REMARK  Name = ZINC59990062
REMARK  12 active torsions:
REMARK  status: ('A' for Active; 'I' for Inactive)
REMARK    1  A    between atoms: C_1  and  C_2
REMARK    2  A    between atoms: C_5  and  C_35
REMARK    3  A    between atoms: N_8  and  C_10
REMARK    4  A    between atoms: C_10  and  C_11
REMARK    5  A    between atoms: C_10  and  C_12
REMARK    6  A    between atoms: C_10  and  C_13
REMARK    7  A    between atoms: C_13  and  N_14
REMARK    8  A    between atoms: C_15  and  C_17
REMARK    9  A    between atoms: C_21  and  S_23
REMARK   10  A    between atoms: S_23  and  N_26
REMARK   11  A    between atoms: N_26  and  C_27
REMARK   12  A    between atoms: C_27  and  C_28
REMARK                            x       y       z     vdW  Elec       q    Type
REMARK                         _______ _______ _______ _____ _____    ______ ____
ROOT
ATOM      1  C   UNL     1       3.764   1.875   2.163  0.00  0.00    +0.039 A 
ATOM      2  C   UNL     1       2.534   2.465   2.461  0.00  0.00    +0.014 A 
ATOM      3  C   UNL     1       2.430   3.838   2.528  0.00  0.00    +0.023 A 
ATOM      4  C   UNL     1       3.543   4.632   2.302  0.00  0.00    +0.067 A 
ATOM      5  C   UNL     1       4.766   4.052   2.006  0.00  0.00    +0.124 A 
ATOM      6  C   UNL     1       4.883   2.679   1.941  0.00  0.00    +0.043 A 
ATOM      7 CL   UNL     1       3.404   6.360   2.388  0.00  0.00    -0.082 Cl
ENDROOT
BRANCH   1   9
ATOM      8  N   UNL     1       2.801  -0.371   2.305  0.00  0.00    -0.313 N 
ATOM      9  C   UNL     1       3.883   0.403   2.090  0.00  0.00    +0.244 C 
ATOM     10  O   UNL     1       4.956  -0.108   1.836  0.00  0.00    -0.270 OA
ATOM     11  H   UNL     1       1.945   0.037   2.508  0.00  0.00    +0.149 HD
BRANCH   8  12
ATOM     12  C   UNL     1       2.918  -1.830   2.232  0.00  0.00    +0.092 C 
BRANCH  12  13
ATOM     13  C   UNL     1       1.589  -2.469   2.639  0.00  0.00    -0.055 C 
ATOM     14  C   UNL     1       1.737  -3.992   2.646  0.00  0.00    -0.008 C 
ATOM     15  C   UNL     1       0.503  -2.067   1.639  0.00  0.00    -0.008 C 
BRANCH  13  21
ATOM     16  C   UNL     1       3.028  -2.192   7.310  0.00  0.00    +0.005 C 
ATOM     17  C   UNL     1       1.924  -1.815   6.319  0.00  0.00    -0.031 C 
ATOM     18  C   UNL     1       0.594  -2.417   6.782  0.00  0.00    +0.003 C 
ATOM     19  C   UNL     1      -0.486  -2.100   5.744  0.00  0.00    -0.031 C 
ATOM     20  C   UNL     1      -0.049  -2.639   4.380  0.00  0.00    -0.075 C 
ATOM     21  N   UNL     1       1.214  -2.007   3.982  0.00  0.00    +0.384 N 
ATOM     22  C   UNL     1       2.273  -2.364   4.934  0.00  0.00    -0.075 C 
ATOM     23  C   UNL     1      -1.802  -2.762   6.159  0.00  0.00    +0.005 C 
ATOM     24  H   UNL     1       1.098  -1.005   3.971  0.00  0.00    -0.081 HD
ENDBRANCH  13  21
ENDBRANCH  12  13
ENDBRANCH   8  12
ENDBRANCH   1   9
BRANCH   5  25
ATOM     25  S   UNL     1       6.175   5.070   1.720  0.00  0.00    +0.060 S 
ATOM     26  O   UNL     1       6.226   6.003   2.790  0.00  0.00    -0.153 OA
ATOM     27  O   UNL     1       7.254   4.195   1.420  0.00  0.00    -0.153 OA
BRANCH  25  28
ATOM     28  N   UNL     1       5.877   5.943   0.344  0.00  0.00    -0.187 NA
ATOM     29  H   UNL     1       6.421   5.802  -0.446  0.00  0.00    +0.148 HD
BRANCH  28  30
ATOM     30  C   UNL     1       4.793   6.927   0.322  0.00  0.00    +0.137 C 
BRANCH  30  31
ATOM     31  C   UNL     1       4.958   7.841  -0.894  0.00  0.00    +0.134 C 
ATOM     32  C   UNL     1       3.891   8.956  -0.860  0.00  0.00    +0.035 C 
ATOM     33  C   UNL     1       3.495   9.078  -2.357  0.00  0.00    +0.031 C 
ATOM     34  C   UNL     1       3.632   7.605  -2.818  0.00  0.00    +0.160 C 
ATOM     35  O   UNL     1       4.764   7.089  -2.097  0.00  0.00    -0.375 OA
ENDBRANCH  30  31
ENDBRANCH  28  30
ENDBRANCH  25  28
ENDBRANCH   5  25
TORSDOF 8
