REMARK  Name = ZINC00485519
REMARK  4 active torsions:
REMARK  status: ('A' for Active; 'I' for Inactive)
REMARK    1  A    between atoms: C_7  and  C_11
REMARK    2  A    between atoms: C_11  and  C_12
REMARK    3  A    between atoms: N_16  and  C_20
REMARK    4  A    between atoms: C_17  and  O_19
REMARK                            x       y       z     vdW  Elec       q    Type
REMARK                         _______ _______ _______ _____ _____    ______ ____
ROOT
ATOM      1  C   UNL     1       0.232  -3.585  -1.465  0.00  0.00    +0.201 C 
ATOM      2  C   UNL     1      -0.774  -4.719  -1.490  0.00  0.00    +0.252 C 
ATOM      3  O   UNL     1      -1.878  -4.738  -0.990  0.00  0.00    -0.272 OA
ATOM      4  N   UNL     1      -0.174  -5.704  -2.192  0.00  0.00    -0.193 N 
ATOM      5  C   UNL     1       1.078  -5.313  -2.600  0.00  0.00    +0.290 C 
ATOM      6  N   UNL     1       1.380  -4.109  -2.222  0.00  0.00    -0.223 NA
ENDROOT
BRANCH   4   7
ATOM      7  C   UNL     1      -0.748  -6.953  -2.465  0.00  0.00    +0.046 A 
ATOM      8  C   UNL     1      -0.094  -7.852  -3.297  0.00  0.00    +0.025 A 
ATOM      9  C   UNL     1      -0.662  -9.082  -3.565  0.00  0.00    +0.022 A 
ATOM     10  C   UNL     1      -1.882  -9.419  -3.005  0.00  0.00    +0.041 A 
ATOM     11  C   UNL     1      -2.535  -8.525  -2.175  0.00  0.00    +0.022 A 
ATOM     12  C   UNL     1      -1.969  -7.296  -1.900  0.00  0.00    +0.025 A 
ATOM     13 CL   UNL     1      -2.594 -10.966  -3.344  0.00  0.00    -0.084 Cl
ENDBRANCH   4   7
BRANCH   5  14
ATOM     14  O   UNL     1       1.908  -6.099  -3.321  0.00  0.00    -0.481 OA
ATOM     15  H   UNL     1       2.756  -5.685  -3.533  0.00  0.00    +0.295 HD
ENDBRANCH   5  14
BRANCH   1  16
ATOM     16  C   UNL     1       0.640  -3.262  -0.026  0.00  0.00    +0.073 C 
BRANCH  16  23
ATOM     17  C   UNL     1      -0.027   1.378  -0.041  0.00  0.00    +0.001 A 
ATOM     18  C   UNL     1       1.162   2.095  -0.035  0.00  0.00    +0.002 A 
ATOM     19  C   UNL     1       2.376   1.443  -0.025  0.00  0.00    +0.026 A 
ATOM     20  C   UNL     1       2.413   0.053  -0.022  0.00  0.00    +0.047 A 
ATOM     21  C   UNL     1       1.206  -0.669  -0.028  0.00  0.00    +0.003 A 
ATOM     22  C   UNL     1      -0.013   0.012  -0.038  0.00  0.00    +0.010 A 
ATOM     23  C   UNL     1       1.581  -2.085  -0.023  0.00  0.00    -0.020 A 
ATOM     24  C   UNL     1       2.922  -2.136  -0.014  0.00  0.00    +0.087 A 
ATOM     25  N   UNL     1       3.437  -0.868  -0.013  0.00  0.00    -0.360 N 
ATOM     26  H   UNL     1       4.382  -0.650  -0.008  0.00  0.00    +0.165 HD
ENDBRANCH  16  23
ENDBRANCH   1  16
TORSDOF 4
