REMARK  Name = ZINC45820753
REMARK  0 active torsions:
REMARK  status: ('A' for Active; 'I' for Inactive)
REMARK                            x       y       z     vdW  Elec       q    Type
REMARK                         _______ _______ _______ _____ _____    ______ ____
ROOT
ATOM      1  C   UNL     1      -0.016   1.351   0.009  0.00  0.00    +0.199 A 
ATOM      2  N   UNL     1       1.215   1.797   0.000  0.00  0.00    -0.217 NA
ATOM      3  C   UNL     1       2.057   0.760  -0.013  0.00  0.00    +0.178 A 
ATOM      4  C   UNL     1       1.302  -0.383  -0.013  0.00  0.00    +0.097 A 
ATOM      5  N   UNL     1       0.002  -0.004   0.002  0.00  0.00    -0.344 N 
ATOM      6  C   UNL     1       1.944  -1.748  -0.027  0.00  0.00    +0.214 C 
ATOM      7  N   UNL     1       3.298  -1.561  -0.581  0.00  0.00    -0.314 N 
ATOM      8  C   UNL     1       4.012  -0.427  -0.291  0.00  0.00    +0.185 C 
ATOM      9  N   UNL     1       3.431   0.711  -0.026  0.00  0.00    -0.219 NA
ATOM     10 CL   UNL     1       2.042  -2.403   1.650  0.00  0.00    -0.094 Cl
ATOM     11  H   UNL     1       3.685  -2.243  -1.152  0.00  0.00    +0.149 HD
ATOM     12  H   UNL     1      -0.770  -0.591   0.007  0.00  0.00    +0.167 HD
ENDROOT
TORSDOF 0
