REMARK  Name = ZINC11841135
REMARK  10 active torsions:
REMARK  status: ('A' for Active; 'I' for Inactive)
REMARK    1  A    between atoms: C_1  and  C_2
REMARK    2  A    between atoms: C_6  and  N_9
REMARK    3  A    between atoms: C_7  and  C_8
REMARK    4  A    between atoms: C_14  and  N_67
REMARK    5  A    between atoms: N_20  and  C_23
REMARK    6  A    between atoms: C_23  and  C_24
REMARK    7  A    between atoms: C_24  and  C_25
REMARK    8  A    between atoms: C_25  and  C_26
REMARK    9  A    between atoms: C_26  and  C_27
REMARK   10  A    between atoms: C_26  and  C_28
REMARK                            x       y       z     vdW  Elec       q    Type
REMARK                         _______ _______ _______ _____ _____    ______ ____
ROOT
ATOM      1  N   UNL     1       2.557   4.898   5.158  0.00  0.00    -0.333 N 
ATOM      2  C   UNL     1       1.188   4.370   5.241  0.00  0.00    +0.086 C 
ATOM      3  C   UNL     1       0.859   3.610   3.954  0.00  0.00    -0.059 C 
ATOM      4  C   UNL     1       2.371   5.041   2.721  0.00  0.00    -0.059 C 
ATOM      5  C   UNL     1       2.701   5.801   4.008  0.00  0.00    +0.086 C 
ATOM      6  N   UNL     1       0.986   4.535   2.808  0.00  0.00    +0.384 N 
ATOM      7  H   UNL     1       0.349   5.328   2.947  0.00  0.00    -0.081 HD
ENDROOT
BRANCH   1  13
ATOM      8  C   UNL     1       5.432   5.115   9.138  0.00  0.00    +0.044 C 
ATOM      9  C   UNL     1       4.310   5.666   8.295  0.00  0.00    -0.046 A 
ATOM     10  C   UNL     1       3.639   6.806   8.697  0.00  0.00    +0.004 A 
ATOM     11  C   UNL     1       2.610   7.314   7.926  0.00  0.00    +0.002 A 
ATOM     12  C   UNL     1       2.252   6.687   6.749  0.00  0.00    +0.023 A 
ATOM     13  C   UNL     1       2.920   5.538   6.345  0.00  0.00    +0.033 A 
ATOM     14  C   UNL     1       3.954   5.030   7.122  0.00  0.00    -0.027 A 
ATOM     15  C   UNL     1       4.685   3.787   6.685  0.00  0.00    +0.046 C 
ENDBRANCH   1  13
BRANCH   6  16
ATOM     16  C   UNL     1       0.621   3.840   1.555  0.00  0.00    -0.067 C 
ATOM     17  C   UNL     1       1.386   2.533   1.456  0.00  0.00    -0.006 C 
ATOM     18  C   UNL     1       1.176   1.885   0.086  0.00  0.00    +0.094 C 
ATOM     19  C   UNL     1      -0.102   1.074   0.128  0.00  0.00    +0.215 C 
ATOM     20  O   UNL     1      -0.050  -0.138   0.121  0.00  0.00    -0.276 OA
ATOM     21  N   UNL     1      -1.285   1.688   0.168  0.00  0.00    -0.302 N 
ATOM     22  C   UNL     1      -1.362   3.158   0.177  0.00  0.00    +0.106 C 
ATOM     23  C   UNL     1      -0.887   3.670   1.538  0.00  0.00    +0.004 C 
BRANCH  21  24
ATOM     24  C   UNL     1      -2.516   0.894   0.209  0.00  0.00    +0.108 C 
BRANCH  24  25
ATOM     25  C   UNL     1      -2.896   0.617   1.665  0.00  0.00    +0.019 C 
BRANCH  25  26
ATOM     26  C   UNL     1      -4.181  -0.211   1.708  0.00  0.00    +0.004 C 
BRANCH  26  27
ATOM     27  C   UNL     1      -4.561  -0.488   3.164  0.00  0.00    -0.017 C 
ATOM     28  C   UNL     1      -5.910  -1.209   3.211  0.00  0.00    +0.007 C 
ATOM     29  C   UNL     1      -3.490  -1.368   3.812  0.00  0.00    +0.007 C 
ENDBRANCH  26  27
ENDBRANCH  25  26
ENDBRANCH  24  25
ENDBRANCH  21  24
ENDBRANCH   6  16
TORSDOF 6
