REMARK  Name = ZINC00903940
REMARK  11 active torsions:
REMARK  status: ('A' for Active; 'I' for Inactive)
REMARK    1  A    between atoms: C_1  and  C_2
REMARK    2  A    between atoms: C_6  and  N_9
REMARK    3  A    between atoms: C_7  and  C_8
REMARK    4  A    between atoms: N_9  and  C_10
REMARK    5  A    between atoms: C_10  and  C_12
REMARK    6  A    between atoms: C_10  and  C_17
REMARK    7  A    between atoms: N_19  and  C_20
REMARK    8  A    between atoms: C_20  and  C_21
REMARK    9  A    between atoms: C_27  and  C_29
REMARK   10  A    between atoms: C_29  and  N_30
REMARK   11  A    between atoms: C_32  and  C_35
REMARK                            x       y       z     vdW  Elec       q    Type
REMARK                         _______ _______ _______ _____ _____    ______ ____
ROOT
ATOM      1  N   UNL     1      -0.681  -3.470   2.432  0.00  0.00    -0.253 N 
ATOM      2  C   UNL     1      -1.512  -3.788   3.444  0.00  0.00    +0.244 C 
ATOM      3  O   UNL     1      -1.066  -3.991   4.554  0.00  0.00    -0.273 OA
ENDROOT
BRANCH   1   9
ATOM      4  C   UNL     1      -2.151  -5.213  -1.924  0.00  0.00    +0.044 C 
ATOM      5  C   UNL     1      -1.917  -4.062  -0.980  0.00  0.00    -0.046 A 
ATOM      6  C   UNL     1      -2.212  -2.771  -1.379  0.00  0.00    +0.004 A 
ATOM      7  C   UNL     1      -2.000  -1.712  -0.516  0.00  0.00    +0.002 A 
ATOM      8  C   UNL     1      -1.493  -1.940   0.748  0.00  0.00    +0.024 A 
ATOM      9  C   UNL     1      -1.196  -3.235   1.152  0.00  0.00    +0.041 A 
ATOM     10  C   UNL     1      -1.415  -4.297   0.284  0.00  0.00    -0.026 A 
ATOM     11  C   UNL     1      -1.099  -5.705   0.721  0.00  0.00    +0.046 C 
ENDBRANCH   1   9
BRANCH   1  12
ATOM     12  C   UNL     1       0.760  -3.369   2.671  0.00  0.00    +0.204 C 
BRANCH  12  13
ATOM     13  C   UNL     1       1.497  -4.212   1.663  0.00  0.00    +0.019 A 
ATOM     14  C   UNL     1       2.285  -5.296   1.869  0.00  0.00    +0.013 A 
ATOM     15  C   UNL     1       2.865  -5.919   0.780  0.00  0.00    +0.008 A 
ATOM     16  C   UNL     1       2.629  -5.429  -0.462  0.00  0.00    +0.045 A 
ATOM     17  S   UNL     1       1.553  -4.048  -0.114  0.00  0.00    -0.099 S 
ENDBRANCH  12  13
BRANCH  12  18
ATOM     18  C   UNL     1       1.193  -1.932   2.537  0.00  0.00    +0.239 C 
ATOM     19  O   UNL     1       0.373  -1.072   2.292  0.00  0.00    -0.273 OA
ATOM     20  N   UNL     1       2.491  -1.602   2.688  0.00  0.00    -0.311 N 
ATOM     21  H   UNL     1       3.147  -2.290   2.884  0.00  0.00    +0.149 HD
BRANCH  20  22
ATOM     22  C   UNL     1       2.912  -0.205   2.557  0.00  0.00    +0.135 C 
BRANCH  22  23
ATOM     23  C   UNL     1       4.423  -0.105   2.773  0.00  0.00    +0.135 C 
ATOM     24  C   UNL     1       4.884   1.371   2.674  0.00  0.00    +0.035 C 
ATOM     25  C   UNL     1       6.185   1.331   3.521  0.00  0.00    +0.031 C 
ATOM     26  C   UNL     1       5.837   0.292   4.608  0.00  0.00    +0.160 C 
ATOM     27  O   UNL     1       4.765  -0.517   4.106  0.00  0.00    -0.375 OA
ENDBRANCH  22  23
ENDBRANCH  20  22
ENDBRANCH  12  18
ENDBRANCH   1  12
BRANCH   2  28
ATOM     28  C   UNL     1      -2.995  -3.891   3.198  0.00  0.00    +0.264 C 
BRANCH  28  29
ATOM     29  N   UNL     1      -3.674  -4.247   4.446  0.00  0.00    -0.154 N 
ATOM     30  N   UNL     1      -3.906  -5.448   4.853  0.00  0.00    -0.130 NA
ATOM     31  C   UNL     1      -4.531  -5.368   6.011  0.00  0.00    +0.205 A 
ATOM     32  N   UNL     1      -4.667  -4.062   6.285  0.00  0.00    -0.108 NA
ATOM     33  N   UNL     1      -4.128  -3.409   5.312  0.00  0.00    -0.045 NA
BRANCH  31  34
ATOM     34  C   UNL     1      -4.995  -6.502   6.848  0.00  0.00    +0.023 A 
ATOM     35  C   UNL     1      -4.776  -7.813   6.431  0.00  0.00    +0.014 A 
ATOM     36  C   UNL     1      -5.210  -8.865   7.212  0.00  0.00    +0.039 A 
ATOM     37  C   UNL     1      -5.862  -8.619   8.409  0.00  0.00    +0.123 A 
ATOM     38  C   UNL     1      -6.082  -7.316   8.828  0.00  0.00    +0.039 A 
ATOM     39  C   UNL     1      -5.646  -6.259   8.055  0.00  0.00    +0.014 A 
ATOM     40  F   UNL     1      -6.285  -9.651   9.171  0.00  0.00    -0.205 F 
ENDBRANCH  31  34
ENDBRANCH  28  29
ENDBRANCH   2  28
TORSDOF 9
