REMARK  Name = ZINC66391973
REMARK  7 active torsions:
REMARK  status: ('A' for Active; 'I' for Inactive)
REMARK    1  A    between atoms: C_1  and  C_2
REMARK    2  A    between atoms: C_2  and  C_4
REMARK    3  A    between atoms: C_2  and  N_11
REMARK    4  A    between atoms: N_9  and  C_10
REMARK    5  A    between atoms: N_11  and  C_12
REMARK    6  A    between atoms: C_12  and  C_13
REMARK    7  A    between atoms: C_13  and  C_19
REMARK                            x       y       z     vdW  Elec       q    Type
REMARK                         _______ _______ _______ _____ _____    ______ ____
ROOT
ATOM      1  C   UNL     1      -0.065  -0.144  -2.366  0.00  0.00    -0.070 C 
ENDROOT
BRANCH   1   2
ATOM      2  C   UNL     1       0.517  -0.598  -3.706  0.00  0.00    -0.014 C 
ATOM      3  C   UNL     1       0.517  -2.128  -3.772  0.00  0.00    +0.038 C 
ATOM      4  C   UNL     1      -0.926  -2.634  -3.710  0.00  0.00    +0.160 C 
ATOM      5  O   UNL     1      -1.677  -2.062  -4.783  0.00  0.00    -0.380 OA
ATOM      6  C   UNL     1      -1.751  -0.635  -4.746  0.00  0.00    +0.160 C 
ATOM      7  C   UNL     1      -0.341  -0.049  -4.850  0.00  0.00    +0.038 C 
BRANCH   2   8
ATOM      8  C   UNL     1       1.928  -0.086  -3.843  0.00  0.00    -0.024 A 
ATOM      9  C   UNL     1       2.510   0.621  -2.807  0.00  0.00    +0.007 A 
ATOM     10  C   UNL     1       3.803   1.091  -2.932  0.00  0.00    +0.020 A 
ATOM     11  C   UNL     1       4.517   0.855  -4.094  0.00  0.00    +0.042 A 
ATOM     12  C   UNL     1       3.935   0.147  -5.130  0.00  0.00    +0.040 A 
ATOM     13  C   UNL     1       2.642  -0.328  -5.003  0.00  0.00    +0.046 A 
ATOM     14 CL   UNL     1       1.913  -1.221  -6.301  0.00  0.00    -0.083 Cl
ATOM     15 CL   UNL     1       6.142   1.446  -4.251  0.00  0.00    -0.083 Cl
ENDBRANCH   2   8
ENDBRANCH   1   2
BRANCH   1  16
ATOM     16  N   UNL     1      -0.216   1.317  -2.368  0.00  0.00    +0.387 N 
ATOM     17  H   UNL     1      -0.785   1.595  -3.154  0.00  0.00    -0.085 HD
ATOM     18  H   UNL     1       0.692   1.750  -2.441  0.00  0.00    -0.085 HD
BRANCH  16  20
ATOM     19  C   UNL     1      -2.288   1.190  -1.068  0.00  0.00    -0.004 C 
ATOM     20  C   UNL     1      -0.863   1.745  -1.120  0.00  0.00    +0.013 C 
BRANCH  20  21
ATOM     21  C   UNL     1      -0.908   3.250  -1.068  0.00  0.00    +0.206 C 
ATOM     22  O   UNL     1      -0.447   3.902  -1.980  0.00  0.00    -0.277 OA
ATOM     23  N   UNL     1      -1.461   3.871  -0.007  0.00  0.00    -0.242 N 
ATOM     24  C   UNL     1      -1.501   5.217   0.040  0.00  0.00    +0.306 C 
ATOM     25  O   UNL     1      -1.039   5.871  -0.874  0.00  0.00    -0.252 OA
ATOM     26  N   UNL     1      -2.054   5.838   1.101  0.00  0.00    -0.302 N 
ATOM     27  C   UNL     1      -2.098   7.301   1.152  0.00  0.00    +0.129 C 
ATOM     28  H   UNL     1      -1.830   3.349   0.723  0.00  0.00    +0.159 HD
ATOM     29  H   UNL     1      -2.423   5.316   1.831  0.00  0.00    +0.150 HD
ENDBRANCH  20  21
ENDBRANCH  16  20
ENDBRANCH   1  16
TORSDOF 5
