REMARK  Name = ZINC63349132
REMARK  5 active torsions:
REMARK  status: ('A' for Active; 'I' for Inactive)
REMARK    1  A    between atoms: C_1  and  C_2
REMARK    2  A    between atoms: C_2  and  C_3
REMARK    3  A    between atoms: C_4  and  C_26
REMARK    4  A    between atoms: C_21  and  S_24
REMARK    5  A    between atoms: S_24  and  C_25
REMARK                            x       y       z     vdW  Elec       q    Type
REMARK                         _______ _______ _______ _____ _____    ______ ____
ROOT
ATOM      1  C   UNL     1       0.731  -0.503   1.223  0.00  0.00    +0.033 C 
ATOM      2  C   UNL     1       0.143  -0.879   2.399  0.00  0.00    +0.042 C 
ATOM      3  C   UNL     1       1.210  -1.294   3.293  0.00  0.00    +0.147 C 
ATOM      4  N   UNL     1       1.177  -1.826   4.505  0.00  0.00    -0.238 NA
ATOM      5  C   UNL     1       2.312  -2.275   5.050  0.00  0.00    +0.124 C 
ATOM      6  C   UNL     1       3.526  -2.089   4.471  0.00  0.00    +0.059 C 
ATOM      7  C   UNL     1       3.682  -1.124   3.317  0.00  0.00    +0.156 C 
ATOM      8  N   UNL     1       2.400  -1.025   2.630  0.00  0.00    -0.225 N 
ATOM      9  N   UNL     1       2.083  -0.658   1.329  0.00  0.00    -0.265 N 
ATOM     10  C   UNL     1       4.777  -1.579   2.407  0.00  0.00    +0.018 C 
ATOM     11  C   UNL     1       5.710  -2.408   2.822  0.00  0.00    +0.085 C 
ATOM     12  N   UNL     1       5.728  -2.906   4.117  0.00  0.00    -0.211 N 
ATOM     13  C   UNL     1       4.672  -2.748   4.949  0.00  0.00    +0.257 C 
ATOM     14  O   UNL     1       4.698  -3.195   6.083  0.00  0.00    -0.269 OA
ATOM     15  C   UNL     1       6.869  -3.570   4.581  0.00  0.00    +0.248 A 
ATOM     16  H   UNL     1       8.705  -5.112   6.576  0.00  0.00    +0.191 HD
ATOM     17  N   UNL     1       7.985  -3.781   3.876  0.00  0.00    -0.187 NA
ATOM     18  C   UNL     1       8.858  -4.435   4.614  0.00  0.00    +0.186 A 
ATOM     19  N   UNL     1       8.300  -4.653   5.824  0.00  0.00    -0.252 N 
ATOM     20  N   UNL     1       7.018  -4.081   5.779  0.00  0.00    -0.135 NA
ATOM     21  H   UNL     1       2.722  -0.530   0.611  0.00  0.00    +0.170 HD
ENDROOT
BRANCH   2  22
ATOM     22  C   UNL     1      -1.308  -0.864   2.704  0.00  0.00    -0.013 A 
ATOM     23  C   UNL     1      -2.002   0.344   2.745  0.00  0.00    +0.010 A 
ATOM     24  C   UNL     1      -3.352   0.352   3.030  0.00  0.00    +0.020 A 
ATOM     25  C   UNL     1      -4.017  -0.838   3.273  0.00  0.00    +0.041 A 
ATOM     26  C   UNL     1      -3.333  -2.040   3.234  0.00  0.00    +0.020 A 
ATOM     27  C   UNL     1      -1.984  -2.060   2.945  0.00  0.00    +0.010 A 
ATOM     28 CL   UNL     1      -5.716  -0.821   3.631  0.00  0.00    -0.084 Cl
ENDBRANCH   2  22
BRANCH   1  30
ATOM     29  C   UNL     1      -0.019   1.526   0.010  0.00  0.00    +0.010 C 
ATOM     30  C   UNL     1       0.002  -0.004   0.002  0.00  0.00    +0.049 C 
ENDBRANCH   1  30
BRANCH  18  31
ATOM     31  S   UNL     1      10.470  -4.936   4.111  0.00  0.00    -0.090 S 
ATOM     32  C   UNL     1      10.601  -4.345   2.401  0.00  0.00    +0.093 C 
ENDBRANCH  18  31
TORSDOF 3
