REMARK  Name = ZINC42839212
REMARK  7 active torsions:
REMARK  status: ('A' for Active; 'I' for Inactive)
REMARK    1  A    between atoms: C_1  and  C_2
REMARK    2  A    between atoms: C_2  and  N_3
REMARK    3  A    between atoms: N_3  and  C_4
REMARK    4  A    between atoms: C_4  and  C_5
REMARK    5  A    between atoms: N_18  and  C_19
REMARK    6  A    between atoms: C_19  and  C_20
REMARK    7  A    between atoms: C_19  and  C_21
REMARK                            x       y       z     vdW  Elec       q    Type
REMARK                         _______ _______ _______ _____ _____    ______ ____
ROOT
ATOM      1  C   UNL     1      -2.072  -0.758  -1.251  0.00  0.00    +0.157 C 
ENDROOT
BRANCH   1   2
ATOM      2  C   UNL     1      -1.816  -2.197  -1.703  0.00  0.00    +0.228 C 
ATOM      3  C   UNL     1      -2.534  -2.457  -3.034  0.00  0.00    +0.275 C 
ATOM      4  O   UNL     1      -2.263  -3.805  -3.434  0.00  0.00    -0.485 OA
ATOM      5  C   UNL     1      -0.969  -4.218  -3.352  0.00  0.00    +0.162 A 
ATOM      6  C   UNL     1      -0.572  -5.352  -4.044  0.00  0.00    +0.049 A 
ATOM      7  C   UNL     1       0.738  -5.787  -3.968  0.00  0.00    +0.004 A 
ATOM      8  C   UNL     1       1.656  -5.092  -3.202  0.00  0.00    +0.004 A 
ATOM      9  C   UNL     1       1.267  -3.961  -2.511  0.00  0.00    +0.049 A 
ATOM     10  C   UNL     1      -0.046  -3.519  -2.584  0.00  0.00    +0.163 A 
ATOM     11  O   UNL     1      -0.412  -2.398  -1.903  0.00  0.00    -0.480 OA
ENDBRANCH   1   2
BRANCH   1  12
ATOM     12  N   UNL     1      -1.372  -0.511   0.012  0.00  0.00    -0.282 N 
ATOM     13  C   UNL     1      -1.993  -0.751   1.184  0.00  0.00    +0.303 C 
ATOM     14  O   UNL     1      -3.134  -1.171   1.193  0.00  0.00    -0.253 OA
ATOM     15  N   UNL     1      -1.350  -0.524   2.347  0.00  0.00    -0.297 N 
ATOM     16  H   UNL     1      -0.440  -0.188   2.340  0.00  0.00    +0.150 HD
BRANCH  15  17
ATOM     17  C   UNL     1      -2.025  -0.784   3.620  0.00  0.00    +0.068 C 
ATOM     18  C   UNL     1      -0.981  -1.058   4.705  0.00  0.00    +0.027 C 
ATOM     19  C   UNL     1      -2.860   0.436   4.014  0.00  0.00    +0.027 C 
ENDBRANCH  15  17
BRANCH  12  21
ATOM     20  C   UNL     1      -0.019   1.526   0.010  0.00  0.00    +0.024 C 
ATOM     21  C   UNL     1       0.002  -0.004   0.002  0.00  0.00    +0.106 C 
ENDBRANCH  12  21
ENDBRANCH   1  12
TORSDOF 4
