REMARK  Name = ZINC40014528
REMARK  5 active torsions:
REMARK  status: ('A' for Active; 'I' for Inactive)
REMARK    1  A    between atoms: C_1  and  C_2
REMARK    2  A    between atoms: C_12  and  C_28
REMARK    3  A    between atoms: C_31  and  O_34
REMARK    4  A    between atoms: O_34  and  C_35
REMARK    5  A    between atoms: C_35  and  C_36
REMARK                            x       y       z     vdW  Elec       q    Type
REMARK                         _______ _______ _______ _____ _____    ______ ____
ROOT
ATOM      1  C   UNL     1      -0.018   1.503   0.010  0.00  0.00    +0.044 C 
ATOM      2  C   UNL     1       0.002  -0.004   0.002  0.00  0.00    -0.049 A 
ATOM      3  C   UNL     1       0.006  -0.698  -1.199  0.00  0.00    +0.005 A 
ATOM      4  C   UNL     1       0.024  -2.068  -1.235  0.00  0.00    +0.029 A 
ATOM      5  C   UNL     1       0.039  -2.822  -0.038  0.00  0.00    +0.080 A 
ATOM      6  C   UNL     1       0.035  -2.081   1.166  0.00  0.00    +0.041 A 
ATOM      7  C   UNL     1       0.023  -0.709   1.192  0.00  0.00    +0.020 A 
ATOM      8  S   UNL     1       0.058  -3.361   2.397  0.00  0.00    -0.052 S 
ATOM      9  C   UNL     1       0.071  -4.752   1.275  0.00  0.00    +0.169 A 
ATOM     10  N   UNL     1       0.058  -4.165   0.101  0.00  0.00    -0.224 NA
ATOM     11  N   UNL     1       0.090  -6.104   1.569  0.00  0.00    -0.232 N 
ATOM     12  C   UNL     1       0.106  -7.202   0.588  0.00  0.00    +0.151 C 
ATOM     13  C   UNL     1       0.121  -8.463   1.389  0.00  0.00    +0.072 A 
ATOM     14  C   UNL     1       0.131  -9.870   0.976  0.00  0.00    +0.199 A 
ATOM     15  O   UNL     1       0.303 -10.226  -0.176  0.00  0.00    -0.287 OA
ATOM     16  C   UNL     1      -0.091 -10.819   2.096  0.00  0.00    +0.067 A 
ATOM     17  C   UNL     1      -0.307 -12.173   1.840  0.00  0.00    +0.053 A 
ATOM     18  C   UNL     1      -0.516 -13.040   2.892  0.00  0.00    +0.124 A 
ATOM     19  C   UNL     1      -0.510 -12.563   4.198  0.00  0.00    +0.042 A 
ATOM     20  C   UNL     1      -0.296 -11.230   4.460  0.00  0.00    +0.050 A 
ATOM     21  C   UNL     1      -0.080 -10.334   3.414  0.00  0.00    +0.140 A 
ATOM     22  O   UNL     1       0.139  -9.030   3.701  0.00  0.00    -0.450 OA
ATOM     23  C   UNL     1       0.120  -8.117   2.711  0.00  0.00    +0.199 A 
ATOM     24  C   UNL     1       0.104  -6.647   2.803  0.00  0.00    +0.289 C 
ATOM     25  O   UNL     1       0.100  -6.015   3.841  0.00  0.00    -0.266 OA
ATOM     26  F   UNL     1      -0.726 -14.353   2.654  0.00  0.00    -0.205 F 
ENDROOT
BRANCH  12  27
ATOM     27  C   UNL     1       1.341  -7.115  -0.271  0.00  0.00    -0.022 A 
ATOM     28  C   UNL     1       2.549  -6.745   0.293  0.00  0.00    +0.009 A 
ATOM     29  C   UNL     1       3.683  -6.664  -0.492  0.00  0.00    +0.046 A 
ATOM     30  C   UNL     1       3.609  -6.954  -1.847  0.00  0.00    +0.121 A 
ATOM     31  C   UNL     1       2.397  -7.325  -2.410  0.00  0.00    +0.046 A 
ATOM     32  C   UNL     1       1.267  -7.410  -1.619  0.00  0.00    +0.009 A 
BRANCH  30  33
ATOM     33  O   UNL     1       4.723  -6.875  -2.621  0.00  0.00    -0.483 OA
BRANCH  33  34
ATOM     34  C   UNL     1       4.573  -7.187  -4.008  0.00  0.00    +0.324 C 
BRANCH  34  35
ATOM     35  C   UNL     1       5.903  -7.045  -4.701  0.00  0.00    +0.248 C 
ATOM     36  O   UNL     1       6.883  -6.710  -4.071  0.00  0.00    -0.272 OA
ATOM     37  N   UNL     1       6.004  -7.292  -6.022  0.00  0.00    -0.327 N 
ATOM     38  H   UNL     1       5.220  -7.560  -6.527  0.00  0.00    +0.145 HD
ATOM     39  H   UNL     1       6.860  -7.200  -6.469  0.00  0.00    +0.145 HD
ENDBRANCH  34  35
ENDBRANCH  33  34
ENDBRANCH  30  33
ENDBRANCH  12  27
TORSDOF 4
