REMARK  Name = ZINC38671109
REMARK  7 active torsions:
REMARK  status: ('A' for Active; 'I' for Inactive)
REMARK    1  A    between atoms: C_1  and  N_2
REMARK    2  A    between atoms: C_10  and  C_12
REMARK    3  A    between atoms: C_12  and  C_14
REMARK    4  A    between atoms: C_12  and  N_27
REMARK    5  A    between atoms: C_14  and  N_15
REMARK    6  A    between atoms: N_15  and  S_16
REMARK    7  A    between atoms: S_16  and  C_19
REMARK                            x       y       z     vdW  Elec       q    Type
REMARK                         _______ _______ _______ _____ _____    ______ ____
ROOT
ATOM      1  C   UNL     1       4.994  -2.572  -0.352  0.00  0.00    -0.022 C 
ENDROOT
BRANCH   1  11
ATOM      2  C   UNL     1       0.214   1.639   1.063  0.00  0.00    +0.129 C 
ATOM      3  N   UNL     1       0.190   0.187   0.865  0.00  0.00    -0.333 N 
ATOM      4  C   UNL     1      -1.070  -0.560   0.971  0.00  0.00    +0.105 C 
ATOM      5  C   UNL     1      -0.798  -1.822   1.800  0.00  0.00    +0.024 C 
ATOM      6  C   UNL     1       0.205  -2.698   1.051  0.00  0.00    +0.038 C 
ATOM      7  C   UNL     1       1.413  -1.893   0.652  0.00  0.00    -0.026 A 
ATOM      8  C   UNL     1       1.367  -0.509   0.565  0.00  0.00    +0.033 A 
ATOM      9  C   UNL     1       2.497   0.205   0.183  0.00  0.00    +0.023 A 
ATOM     10  C   UNL     1       3.668  -0.464  -0.113  0.00  0.00    +0.004 A 
ATOM     11  C   UNL     1       3.715  -1.843  -0.030  0.00  0.00    -0.059 A 
ATOM     12  C   UNL     1       2.593  -2.556   0.360  0.00  0.00    +0.007 A 
ENDBRANCH   1  11
BRANCH   1  13
ATOM     13  N   UNL     1       5.637  -1.944  -1.513  0.00  0.00    +0.385 N 
ATOM     14  C   UNL     1       4.709  -1.954  -2.650  0.00  0.00    -0.078 C 
ATOM     15  C   UNL     1       5.343  -1.229  -3.838  0.00  0.00    -0.019 C 
ATOM     16  C   UNL     1       6.641  -1.941  -4.231  0.00  0.00    -0.004 C 
ATOM     17  C   UNL     1       7.572  -1.989  -3.016  0.00  0.00    -0.019 C 
ATOM     18  C   UNL     1       6.855  -2.687  -1.858  0.00  0.00    -0.078 C 
ATOM     19  H   UNL     1       5.879  -0.990  -1.288  0.00  0.00    -0.081 HD
ENDBRANCH   1  13
BRANCH   1  20
ATOM     20  C   UNL     1       5.937  -2.505   0.852  0.00  0.00    +0.095 C 
BRANCH  20  21
ATOM     21  N   UNL     1       5.334  -3.213   1.984  0.00  0.00    -0.191 NA
ATOM     22  H   UNL     1       4.393  -3.446   1.965  0.00  0.00    +0.148 HD
BRANCH  21  23
ATOM     23  S   UNL     1       6.261  -3.615   3.297  0.00  0.00    +0.064 S 
ATOM     24  O   UNL     1       5.396  -4.259   4.222  0.00  0.00    -0.153 OA
ATOM     25  O   UNL     1       7.433  -4.238   2.790  0.00  0.00    -0.153 OA
BRANCH  23  26
ATOM     26  C   UNL     1       6.776  -2.109   4.052  0.00  0.00    +0.175 A 
ATOM     27  C   UNL     1       7.956  -1.504   3.656  0.00  0.00    +0.152 A 
ATOM     28  C   UNL     1       8.360  -0.320   4.251  0.00  0.00    +0.040 A 
ATOM     29  C   UNL     1       7.585   0.257   5.239  0.00  0.00    +0.006 A 
ATOM     30  C   UNL     1       6.407  -0.347   5.636  0.00  0.00    +0.040 A 
ATOM     31  C   UNL     1       5.998  -1.527   5.038  0.00  0.00    +0.152 A 
ATOM     32  F   UNL     1       4.843  -2.114   5.421  0.00  0.00    -0.203 F 
ATOM     33  F   UNL     1       8.714  -2.068   2.690  0.00  0.00    -0.203 F 
ENDBRANCH  23  26
ENDBRANCH  21  23
ENDBRANCH  20  21
ENDBRANCH   1  20
TORSDOF 6
