REMARK  Name = ZINC08892047
REMARK  10 active torsions:
REMARK  status: ('A' for Active; 'I' for Inactive)
REMARK    1  A    between atoms: C_1  and  C_2
REMARK    2  A    between atoms: C_2  and  C_25
REMARK    3  A    between atoms: N_5  and  C_9
REMARK    4  A    between atoms: C_9  and  C_10
REMARK    5  A    between atoms: N_12  and  C_13
REMARK    6  A    between atoms: C_14  and  C_21
REMARK    7  A    between atoms: C_21  and  O_23
REMARK    8  A    between atoms: O_23  and  C_24
REMARK    9  A    between atoms: C_28  and  O_31
REMARK   10  A    between atoms: O_31  and  C_32
REMARK                            x       y       z     vdW  Elec       q    Type
REMARK                         _______ _______ _______ _____ _____    ______ ____
ROOT
ATOM      1  C   UNL     1       1.308  -2.917   1.089  0.00  0.00    +0.047 C 
ATOM      2  C   UNL     1       0.037  -2.202   0.624  0.00  0.00    +0.135 C 
ATOM      3  C   UNL     1       0.023  -0.767   1.113  0.00  0.00    +0.251 C 
ATOM      4  O   UNL     1       0.030  -0.385   2.263  0.00  0.00    -0.272 OA
ATOM      5  N   UNL     1       0.002  -0.004   0.002  0.00  0.00    -0.215 N 
ATOM      6  C   UNL     1      -0.004  -0.750  -1.109  0.00  0.00    +0.310 C 
ATOM      7  O   UNL     1      -0.026  -0.287  -2.233  0.00  0.00    -0.252 OA
ATOM      8  N   UNL     1       0.021  -2.068  -0.843  0.00  0.00    -0.281 N 
ATOM      9  H   UNL     1       0.023  -2.790  -1.491  0.00  0.00    +0.152 HD
ENDROOT
BRANCH   2  10
ATOM     10  C   UNL     1      -1.188  -2.937   1.103  0.00  0.00    -0.015 A 
ATOM     11  C   UNL     1      -1.780  -2.584   2.302  0.00  0.00    +0.010 A 
ATOM     12  C   UNL     1      -2.907  -3.253   2.740  0.00  0.00    +0.046 A 
ATOM     13  C   UNL     1      -3.437  -4.287   1.982  0.00  0.00    +0.127 A 
ATOM     14  C   UNL     1      -2.838  -4.642   0.783  0.00  0.00    +0.046 A 
ATOM     15  C   UNL     1      -1.715  -3.967   0.346  0.00  0.00    +0.010 A 
BRANCH  13  16
ATOM     16  O   UNL     1      -4.543  -4.949   2.414  0.00  0.00    -0.434 OA
BRANCH  16  17
ATOM     17  C   UNL     1      -5.106  -4.529   3.658  0.00  0.00    +0.541 C 
ATOM     18  F   UNL     1      -4.157  -4.679   4.675  0.00  0.00    -0.166 F 
ATOM     19  F   UNL     1      -5.485  -3.185   3.568  0.00  0.00    -0.166 F 
ENDBRANCH  16  17
ENDBRANCH  13  16
ENDBRANCH   2  10
BRANCH   5  20
ATOM     20  C   UNL     1      -0.018   1.461   0.010  0.00  0.00    +0.214 C 
BRANCH  20  21
ATOM     21  C   UNL     1       1.396   1.982  -0.001  0.00  0.00    +0.236 C 
ATOM     22  O   UNL     1       2.328   1.207  -0.014  0.00  0.00    -0.274 OA
ATOM     23  N   UNL     1       1.624   3.311   0.004  0.00  0.00    -0.278 N 
ATOM     24  H   UNL     1       0.879   3.931   0.015  0.00  0.00    +0.155 HD
BRANCH  23  25
ATOM     25  C   UNL     1       2.925   3.790  -0.005  0.00  0.00    +0.086 A 
ATOM     26  C   UNL     1       3.357   5.107  -0.008  0.00  0.00    +0.091 A 
ATOM     27  C   UNL     1       4.800   5.345  -0.015  0.00  0.00    -0.021 A 
ATOM     28  C   UNL     1       5.562   4.237  -0.030  0.00  0.00    -0.004 A 
ATOM     29  S   UNL     1       4.403   2.891  -0.025  0.00  0.00    -0.077 S 
ATOM     30  C   UNL     1       7.031   4.562  -0.046  0.00  0.00    +0.043 C 
ATOM     31  C   UNL     1       7.096   6.044  -0.476  0.00  0.00    +0.010 C 
ATOM     32  C   UNL     1       5.721   6.566  -0.016  0.00  0.00    +0.037 C 
BRANCH  26  33
ATOM     33  C   UNL     1       2.404   6.218  -0.001  0.00  0.00    +0.342 C 
ATOM     34  O   UNL     1       2.016   6.680   1.056  0.00  0.00    -0.245 OA
BRANCH  33  35
ATOM     35  O   UNL     1       1.956   6.731  -1.165  0.00  0.00    -0.464 OA
ATOM     36  C   UNL     1       1.013   7.832  -1.082  0.00  0.00    +0.280 C 
ENDBRANCH  33  35
ENDBRANCH  26  33
ENDBRANCH  23  25
ENDBRANCH  20  21
ENDBRANCH   5  20
TORSDOF 8
