REMARK  Name = ZINC40010988
REMARK  13 active torsions:
REMARK  status: ('A' for Active; 'I' for Inactive)
REMARK    1  A    between atoms: C_1  and  C_2
REMARK    2  A    between atoms: C_6  and  C_15
REMARK    3  A    between atoms: C_13  and  C_14
REMARK    4  A    between atoms: C_19  and  O_35
REMARK    5  A    between atoms: C_20  and  O_33
REMARK    6  A    between atoms: N_25  and  C_26
REMARK    7  A    between atoms: C_26  and  N_28
REMARK    8  A    between atoms: N_28  and  C_29
REMARK    9  A    between atoms: C_29  and  C_30
REMARK   10  A    between atoms: C_30  and  O_31
REMARK   11  A    between atoms: O_31  and  C_32
REMARK   12  A    between atoms: O_33  and  C_34
REMARK   13  A    between atoms: O_35  and  C_36
REMARK                            x       y       z     vdW  Elec       q    Type
REMARK                         _______ _______ _______ _____ _____    ______ ____
ROOT
ATOM      1  C   UNL     1      -1.181  -4.880  -2.985  0.00  0.00    +0.121 C 
ATOM      2  C   UNL     1      -1.195  -6.387  -2.908  0.00  0.00    -0.019 A 
ATOM      3  C   UNL     1      -0.257  -7.081  -3.660  0.00  0.00    +0.055 A 
ATOM      4  C   UNL     1      -0.210  -8.462  -3.625  0.00  0.00    +0.162 A 
ATOM      5  C   UNL     1      -1.112  -9.159  -2.827  0.00  0.00    +0.162 A 
ATOM      6  C   UNL     1      -2.047  -8.464  -2.083  0.00  0.00    +0.053 A 
ATOM      7  C   UNL     1      -2.095  -7.076  -2.125  0.00  0.00    -0.037 A 
ATOM      8  C   UNL     1      -3.158  -6.391  -1.308  0.00  0.00    +0.054 C 
ATOM      9  C   UNL     1      -2.801  -4.925  -1.067  0.00  0.00    +0.112 C 
ATOM     10  N   UNL     1      -2.392  -4.343  -2.355  0.00  0.00    -0.304 N 
ENDROOT
BRANCH   1  16
ATOM     11  C   UNL     1      -0.005   1.503  -0.003  0.00  0.00    +0.044 C 
ATOM     12  C   UNL     1       0.013  -0.004  -0.009  0.00  0.00    -0.047 A 
ATOM     13  C   UNL     1       0.013  -0.664  -1.196  0.00  0.00    +0.013 A 
ATOM     14  C   UNL     1       0.031  -2.127  -1.190  0.00  0.00    -0.007 A 
ATOM     15  C   UNL     1       0.032  -2.832  -2.357  0.00  0.00    -0.003 C 
ATOM     16  C   UNL     1       0.052  -4.345  -2.256  0.00  0.00    +0.123 C 
ATOM     17  C   UNL     1       0.070  -4.948  -0.870  0.00  0.00    +0.226 C 
ATOM     18  O   UNL     1       0.087  -6.157  -0.730  0.00  0.00    -0.275 OA
ATOM     19  N   UNL     1       0.067  -4.157   0.191  0.00  0.00    -0.284 N 
ATOM     20  C   UNL     1       0.049  -2.827   0.106  0.00  0.00    +0.041 A 
ATOM     21  C   UNL     1       0.048  -2.048   1.278  0.00  0.00    +0.027 A 
ATOM     22  C   UNL     1       0.035  -0.692   1.204  0.00  0.00    -0.046 A 
ATOM     23  C   UNL     1       0.041   0.102   2.485  0.00  0.00    +0.044 C 
ATOM     24  H   UNL     1       0.078  -4.564   1.071  0.00  0.00    +0.155 HD
ENDBRANCH   1  16
BRANCH  10  25
ATOM     25  C   UNL     1      -3.102  -3.354  -2.933  0.00  0.00    +0.133 C 
ATOM     26  S   UNL     1      -4.580  -2.842  -2.236  0.00  0.00    -0.019 S 
BRANCH  25  27
ATOM     27  N   UNL     1      -2.649  -2.767  -4.058  0.00  0.00    -0.324 N 
ATOM     28  H   UNL     1      -1.850  -3.104  -4.493  0.00  0.00    +0.148 HD
BRANCH  27  29
ATOM     29  C   UNL     1      -3.363  -1.620  -4.625  0.00  0.00    +0.131 C 
BRANCH  29  30
ATOM     30  C   UNL     1      -2.645  -1.148  -5.891  0.00  0.00    +0.178 C 
BRANCH  30  31
ATOM     31  O   UNL     1      -2.717  -2.169  -6.889  0.00  0.00    -0.381 OA
ATOM     32  C   UNL     1      -2.074  -1.827  -8.118  0.00  0.00    +0.194 C 
ENDBRANCH  30  31
ENDBRANCH  29  30
ENDBRANCH  27  29
ENDBRANCH  25  27
ENDBRANCH  10  25
BRANCH   5  33
ATOM     33  O   UNL     1      -1.074 -10.518  -2.779  0.00  0.00    -0.491 OA
ATOM     34  C   UNL     1      -2.031 -11.165  -1.938  0.00  0.00    +0.277 C 
ENDBRANCH   5  33
BRANCH   4  35
ATOM     35  O   UNL     1       0.710  -9.135  -4.367  0.00  0.00    -0.491 OA
ATOM     36  C   UNL     1       1.601  -8.351  -5.162  0.00  0.00    +0.277 C 
ENDBRANCH   4  35
TORSDOF 8
