REMARK  Name = ZINC43594822
REMARK  3 active torsions:
REMARK  status: ('A' for Active; 'I' for Inactive)
REMARK    1  A    between atoms: C_10  and  C_12
REMARK    2  A    between atoms: N_17  and  C_18
REMARK    3  A    between atoms: C_18  and  C_19
REMARK                            x       y       z     vdW  Elec       q    Type
REMARK                         _______ _______ _______ _____ _____    ______ ____
ROOT
ATOM      1  C   UNL     1      -0.025   1.367   0.013  0.00  0.00    +0.000 A 
ATOM      2  C   UNL     1       1.163   2.074   0.010  0.00  0.00    +0.000 A 
ATOM      3  C   UNL     1       2.363   1.394  -0.011  0.00  0.00    +0.006 A 
ATOM      4  C   UNL     1       2.387   0.006  -0.025  0.00  0.00    -0.013 A 
ATOM      5  C   UNL     1       1.205  -0.700  -0.011  0.00  0.00    -0.040 A 
ATOM      6  C   UNL     1      -0.003  -0.012   0.002  0.00  0.00    +0.004 A 
ATOM      7  C   UNL     1       1.151  -2.205   0.007  0.00  0.00    +0.054 C 
ATOM      8  C   UNL     1       2.468  -2.802  -0.488  0.00  0.00    +0.115 C 
ATOM      9  N   UNL     1       3.568  -2.108   0.203  0.00  0.00    -0.268 N 
ATOM     10  C   UNL     1       3.732  -0.675  -0.062  0.00  0.00    +0.221 C 
ATOM     11  C   UNL     1       4.391  -2.765   1.044  0.00  0.00    +0.303 C 
ATOM     12  O   UNL     1       4.176  -3.930   1.319  0.00  0.00    -0.253 OA
ATOM     13  N   UNL     1       5.452  -2.130   1.581  0.00  0.00    -0.291 N 
ATOM     14  H   UNL     1       5.582  -1.183   1.419  0.00  0.00    +0.151 HD
ENDROOT
BRANCH  10  15
ATOM     15  C   UNL     1       4.353  -0.484  -1.421  0.00  0.00    +0.381 C 
ATOM     16  O   UNL     1       4.747   0.619  -1.762  0.00  0.00    -0.244 OA
ATOM     17  O   UNL     1       4.462  -1.431  -2.180  0.00  0.00    -0.244 OA
ENDBRANCH  10  15
BRANCH  13  18
ATOM     18  C   UNL     1       6.407  -2.871   2.408  0.00  0.00    +0.218 C 
BRANCH  18  19
ATOM     19  C   UNL     1       7.508  -1.923   2.889  0.00  0.00    +0.405 C 
ATOM     20  F   UNL     1       6.938  -0.892   3.644  0.00  0.00    -0.169 F 
ATOM     21  F   UNL     1       8.420  -2.631   3.679  0.00  0.00    -0.169 F 
ATOM     22  F   UNL     1       8.171  -1.380   1.784  0.00  0.00    -0.169 F 
ENDBRANCH  18  19
ENDBRANCH  13  18
TORSDOF 3
