REMARK  Name = ZINC34979388
REMARK  5 active torsions:
REMARK  status: ('A' for Active; 'I' for Inactive)
REMARK    1  A    between atoms: C_1  and  C_2
REMARK    2  A    between atoms: C_2  and  C_4
REMARK    3  A    between atoms: C_2  and  N_11
REMARK    4  A    between atoms: N_11  and  C_12
REMARK    5  A    between atoms: C_15  and  N_19
REMARK                            x       y       z     vdW  Elec       q    Type
REMARK                         _______ _______ _______ _____ _____    ______ ____
ROOT
ATOM      1  N   UNL     1       0.688  -0.476  -1.203  0.00  0.00    -0.336 N 
ATOM      2  H   UNL     1       0.175  -0.710  -1.993  0.00  0.00    +0.147 HD
ENDROOT
BRANCH   1   3
ATOM      3  C   UNL     1       2.080  -0.591  -1.215  0.00  0.00    +0.046 A 
ATOM      4  C   UNL     1       2.816  -0.263  -0.084  0.00  0.00    +0.026 A 
ATOM      5  C   UNL     1       4.192  -0.378  -0.099  0.00  0.00    +0.034 A 
ATOM      6  C   UNL     1       4.839  -0.818  -1.239  0.00  0.00    +0.128 A 
ATOM      7  C   UNL     1       4.111  -1.146  -2.368  0.00  0.00    +0.054 A 
ATOM      8  C   UNL     1       2.733  -1.039  -2.358  0.00  0.00    +0.064 A 
ATOM      9 CL   UNL     1       1.818  -1.458  -3.773  0.00  0.00    -0.082 Cl
BRANCH   6  10
ATOM     10  N   UNL     1       6.314  -0.939  -1.251  0.00  0.00    +0.056 N 
ATOM     11  O   UNL     1       6.952  -0.652  -0.265  0.00  0.00    -0.126 OA
ATOM     12  O   UNL     1       6.881  -1.324  -2.247  0.00  0.00    -0.126 OA
ENDBRANCH   6  10
ENDBRANCH   1   3
BRANCH   1  14
ATOM     13  C   UNL     1      -0.019   1.526   0.010  0.00  0.00    +0.033 C 
ATOM     14  C   UNL     1       0.002  -0.004   0.002  0.00  0.00    +0.098 C 
BRANCH  14  15
ATOM     15  C   UNL     1      -1.412  -0.526   0.013  0.00  0.00    -0.028 A 
ATOM     16  C   UNL     1      -2.141  -0.569  -1.161  0.00  0.00    +0.006 A 
ATOM     17  C   UNL     1      -3.438  -1.048  -1.151  0.00  0.00    +0.015 A 
ATOM     18  C   UNL     1      -4.005  -1.484   0.032  0.00  0.00    +0.018 A 
ATOM     19  C   UNL     1      -3.275  -1.440   1.206  0.00  0.00    +0.015 A 
ATOM     20  C   UNL     1      -1.977  -0.966   1.195  0.00  0.00    +0.006 A 
ATOM     21 BR   UNL     1      -5.779  -2.138   0.046  0.00  0.00    -0.050 Br
ENDBRANCH  14  15
ENDBRANCH   1  14
TORSDOF 4
