REMARK  Name = ZINC12441437
REMARK  9 active torsions:
REMARK  status: ('A' for Active; 'I' for Inactive)
REMARK    1  A    between atoms: C_1  and  C_2
REMARK    2  A    between atoms: C_2  and  C_3
REMARK    3  A    between atoms: C_3  and  C_4
REMARK    4  A    between atoms: C_4  and  N_5
REMARK    5  A    between atoms: C_6  and  C_15
REMARK    6  A    between atoms: C_9  and  S_10
REMARK    7  A    between atoms: S_10  and  C_13
REMARK    8  A    between atoms: C_13  and  C_14
REMARK    9  A    between atoms: C_15  and  N_56
REMARK                            x       y       z     vdW  Elec       q    Type
REMARK                         _______ _______ _______ _____ _____    ______ ____
ROOT
ATOM      1  C   UNL     1      -4.675   0.595   3.089  0.00  0.00    -0.072 C 
ATOM      2  C   UNL     1      -6.207   0.599   3.019  0.00  0.00    +0.035 C 
ATOM      3  C   UNL     1      -6.672   2.037   3.012  0.00  0.00    +0.017 A 
ATOM      4  C   UNL     1      -5.872   3.067   3.372  0.00  0.00    -0.036 A 
ATOM      5  C   UNL     1      -6.652   4.278   3.238  0.00  0.00    +0.003 A 
ATOM      6  C   UNL     1      -6.359   5.626   3.465  0.00  0.00    +0.030 A 
ATOM      7  C   UNL     1      -7.367   6.529   3.229  0.00  0.00    +0.042 A 
ATOM      8  C   UNL     1      -8.620   6.135   2.786  0.00  0.00    +0.022 A 
ATOM      9  C   UNL     1      -8.936   4.808   2.553  0.00  0.00    +0.027 A 
ATOM     10  C   UNL     1      -7.933   3.869   2.785  0.00  0.00    +0.047 A 
ATOM     11  N   UNL     1      -7.906   2.509   2.660  0.00  0.00    -0.358 N 
ATOM     12  H   UNL     1      -8.650   1.960   2.365  0.00  0.00    +0.166 HD
ATOM     13 CL   UNL     1      -7.061   8.218   3.492  0.00  0.00    -0.084 Cl
ATOM     14  C   UNL     1      -4.444   2.899   3.822  0.00  0.00    -0.040 C 
ATOM     15  N   UNL     1      -4.245   1.478   4.195  0.00  0.00    +0.386 N 
ATOM     16  H   UNL     1      -4.811   1.269   5.026  0.00  0.00    -0.081 HD
ENDROOT
BRANCH  15  17
ATOM     17  C   UNL     1      -2.822   1.234   4.511  0.00  0.00    -0.022 C 
BRANCH  17  19
ATOM     18  N   UNL     1      -1.546   1.201   2.280  0.00  0.00    -0.315 N 
ATOM     19  C   UNL     1      -1.935   1.815   3.440  0.00  0.00    +0.023 A 
ATOM     20  C   UNL     1      -1.371   3.038   3.441  0.00  0.00    +0.133 A 
ATOM     21  N   UNL     1      -0.654   3.165   2.314  0.00  0.00    -0.220 NA
ATOM     22  C   UNL     1      -0.758   2.070   1.612  0.00  0.00    +0.251 A 
BRANCH  22  23
ATOM     23  S   UNL     1       0.008   1.773   0.053  0.00  0.00    +0.030 S 
ATOM     24  O   UNL     1       0.149   0.361  -0.018  0.00  0.00    -0.166 OA
ATOM     25  O   UNL     1       1.152   2.617   0.045  0.00  0.00    -0.166 OA
BRANCH  23  26
ATOM     26  C   UNL     1      -1.198   2.343  -1.176  0.00  0.00    +0.172 C 
ATOM     27  C   UNL     1      -0.633   2.131  -2.582  0.00  0.00    +0.028 C 
ENDBRANCH  23  26
ENDBRANCH  22  23
BRANCH  18  28
ATOM     28  C   UNL     1      -1.917  -0.148   1.845  0.00  0.00    +0.125 C 
BRANCH  28  29
ATOM     29  C   UNL     1      -0.894  -1.155   2.377  0.00  0.00    +0.021 C 
BRANCH  29  31
ATOM     30  C   UNL     1      -0.259  -3.570   2.454  0.00  0.00    +0.004 C 
ATOM     31  C   UNL     1      -1.281  -2.563   1.922  0.00  0.00    -0.002 C 
ENDBRANCH  29  31
ENDBRANCH  28  29
ENDBRANCH  18  28
ENDBRANCH  17  19
ENDBRANCH  15  17
TORSDOF 7
