REMARK  Name = ZINC66264381
REMARK  7 active torsions:
REMARK  status: ('A' for Active; 'I' for Inactive)
REMARK    1  A    between atoms: C_1  and  C_2
REMARK    2  A    between atoms: C_6  and  C_13
REMARK    3  A    between atoms: C_13  and  N_14
REMARK    4  A    between atoms: C_19  and  C_21
REMARK    5  A    between atoms: C_21  and  C_22
REMARK    6  A    between atoms: C_21  and  C_23
REMARK    7  A    between atoms: C_21  and  C_24
REMARK                            x       y       z     vdW  Elec       q    Type
REMARK                         _______ _______ _______ _____ _____    ______ ____
ROOT
ATOM      1  C   UNL     1      -0.018   1.503   0.010  0.00  0.00    +0.044 C 
ATOM      2  C   UNL     1       0.002  -0.004   0.002  0.00  0.00    -0.047 A 
ATOM      3  C   UNL     1       0.006  -0.684  -1.207  0.00  0.00    +0.004 A 
ATOM      4  C   UNL     1       0.025  -2.050  -1.235  0.00  0.00    +0.012 A 
ATOM      5  C   UNL     1       0.040  -2.768  -0.035  0.00  0.00    +0.023 A 
ATOM      6  C   UNL     1       0.061  -4.234  -0.030  0.00  0.00    -0.009 A 
ATOM      7  C   UNL     1       0.077  -4.870   1.169  0.00  0.00    +0.098 A 
ATOM      8  C   UNL     1       0.072  -4.118   2.363  0.00  0.00    +0.338 A 
ATOM      9  O   UNL     1       0.086  -4.701   3.432  0.00  0.00    -0.245 OA
ATOM     10  O   UNL     1       0.053  -2.776   2.350  0.00  0.00    -0.422 OA
ATOM     11  C   UNL     1       0.037  -2.082   1.193  0.00  0.00    +0.140 A 
ATOM     12  C   UNL     1       0.023  -0.693   1.196  0.00  0.00    +0.050 A 
ENDROOT
BRANCH   6  13
ATOM     13  C   UNL     1       0.066  -5.012  -1.320  0.00  0.00    +0.183 C 
BRANCH  13  14
ATOM     14  N   UNL     1      -1.311  -5.181  -1.793  0.00  0.00    -0.225 N 
ATOM     15  C   UNL     1      -2.048  -6.202  -1.316  0.00  0.00    +0.268 A 
ATOM     16  O   UNL     1      -1.574  -6.976  -0.500  0.00  0.00    -0.266 OA
ATOM     17  C   UNL     1      -3.374  -6.367  -1.770  0.00  0.00    +0.073 A 
ATOM     18  C   UNL     1      -3.852  -5.471  -2.683  0.00  0.00    +0.031 A 
ATOM     19  C   UNL     1      -2.999  -4.442  -3.116  0.00  0.00    +0.067 A 
ATOM     20  N   UNL     1      -1.785  -4.349  -2.648  0.00  0.00    -0.172 NA
BRANCH  19  21
ATOM     21  C   UNL     1      -3.492  -3.435  -4.123  0.00  0.00    +0.006 C 
ATOM     22  C   UNL     1      -2.380  -2.428  -4.424  0.00  0.00    +0.017 C 
ATOM     23  C   UNL     1      -3.890  -4.156  -5.412  0.00  0.00    +0.017 C 
ATOM     24  C   UNL     1      -4.707  -2.698  -3.555  0.00  0.00    +0.017 C 
ENDBRANCH  19  21
ENDBRANCH  13  14
ENDBRANCH   6  13
TORSDOF 3
