REMARK  Name = ZINC38670246
REMARK  9 active torsions:
REMARK  status: ('A' for Active; 'I' for Inactive)
REMARK    1  A    between atoms: C_1  and  N_2
REMARK    2  A    between atoms: C_10  and  C_12
REMARK    3  A    between atoms: C_12  and  C_14
REMARK    4  A    between atoms: C_12  and  N_30
REMARK    5  A    between atoms: C_14  and  N_15
REMARK    6  A    between atoms: C_16  and  C_18
REMARK    7  A    between atoms: C_18  and  C_23
REMARK    8  A    between atoms: N_30  and  C_31
REMARK    9  A    between atoms: N_30  and  C_32
REMARK                            x       y       z     vdW  Elec       q    Type
REMARK                         _______ _______ _______ _____ _____    ______ ____
ROOT
ATOM      1  C   UNL     1       5.560  -1.992   1.555  0.00  0.00    +0.093 C 
ENDROOT
BRANCH   1   2
ATOM      2  N   UNL     1       4.773  -2.697   2.570  0.00  0.00    -0.316 N 
ATOM      3  C   UNL     1       5.320  -2.981   3.768  0.00  0.00    +0.224 C 
ATOM      4  O   UNL     1       6.431  -2.577   4.040  0.00  0.00    -0.275 OA
ATOM      5  H   UNL     1       3.859  -2.959   2.379  0.00  0.00    +0.149 HD
BRANCH   3   6
ATOM      6  C   UNL     1       4.551  -3.801   4.772  0.00  0.00    +0.072 C 
ATOM      7  C   UNL     1       3.191  -3.142   5.060  0.00  0.00    +0.021 C 
ATOM      8  C   UNL     1       3.173  -2.808   6.566  0.00  0.00    +0.001 C 
ATOM      9  C   UNL     1       4.670  -2.713   6.952  0.00  0.00    +0.001 C 
ATOM     10  C   UNL     1       5.312  -3.846   6.113  0.00  0.00    +0.021 C 
BRANCH   6  11
ATOM     11  C   UNL     1       4.346  -5.199   4.247  0.00  0.00    -0.032 A 
ATOM     12  C   UNL     1       4.961  -5.594   3.074  0.00  0.00    +0.006 A 
ATOM     13  C   UNL     1       4.774  -6.876   2.592  0.00  0.00    +0.020 A 
ATOM     14  C   UNL     1       3.971  -7.764   3.285  0.00  0.00    +0.041 A 
ATOM     15  C   UNL     1       3.356  -7.369   4.459  0.00  0.00    +0.020 A 
ATOM     16  C   UNL     1       3.548  -6.088   4.943  0.00  0.00    +0.006 A 
ATOM     17 CL   UNL     1       3.736  -9.374   2.680  0.00  0.00    -0.084 Cl
ENDBRANCH   6  11
ENDBRANCH   3   6
ENDBRANCH   1   2
BRANCH   1  18
ATOM     18  C   UNL     1       4.754  -1.900   0.257  0.00  0.00    -0.021 C 
BRANCH  18  28
ATOM     19  C   UNL     1       0.255   2.677   1.433  0.00  0.00    +0.129 C 
ATOM     20  N   UNL     1       0.120   1.248   1.140  0.00  0.00    -0.333 N 
ATOM     21  C   UNL     1      -1.208   0.624   1.064  0.00  0.00    +0.105 C 
ATOM     22  C   UNL     1      -1.147  -0.702   1.834  0.00  0.00    +0.024 C 
ATOM     23  C   UNL     1      -0.152  -1.631   1.139  0.00  0.00    +0.038 C 
ATOM     24  C   UNL     1       1.162  -0.928   0.922  0.00  0.00    -0.026 A 
ATOM     25  C   UNL     1       1.253   0.457   0.921  0.00  0.00    +0.033 A 
ATOM     26  C   UNL     1       2.479   1.075   0.707  0.00  0.00    +0.023 A 
ATOM     27  C   UNL     1       3.610   0.312   0.492  0.00  0.00    +0.004 A 
ATOM     28  C   UNL     1       3.520  -1.067   0.490  0.00  0.00    -0.059 A 
ATOM     29  C   UNL     1       2.301  -1.687   0.713  0.00  0.00    +0.007 A 
ENDBRANCH  18  28
BRANCH  18  30
ATOM     30  N   UNL     1       5.577  -1.276  -0.787  0.00  0.00    +0.382 N 
ATOM     31  C   UNL     1       6.734  -2.133  -1.077  0.00  0.00    -0.096 C 
ATOM     32  C   UNL     1       4.775  -1.106  -2.006  0.00  0.00    -0.096 C 
ATOM     33  H   UNL     1       5.898  -0.374  -0.468  0.00  0.00    -0.082 HD
ENDBRANCH  18  30
ENDBRANCH   1  18
TORSDOF 6
