REMARK  Name = ZINC15536883
REMARK  9 active torsions:
REMARK  status: ('A' for Active; 'I' for Inactive)
REMARK    1  A    between atoms: C_1  and  N_52
REMARK    2  A    between atoms: C_2  and  N_52
REMARK    3  A    between atoms: C_3  and  C_5
REMARK    4  A    between atoms: C_3  and  C_23
REMARK    5  A    between atoms: C_3  and  N_52
REMARK    6  A    between atoms: C_5  and  N_6
REMARK    7  A    between atoms: C_7  and  C_9
REMARK    8  A    between atoms: N_12  and  S_15
REMARK    9  A    between atoms: S_15  and  C_18
REMARK                            x       y       z     vdW  Elec       q    Type
REMARK                         _______ _______ _______ _____ _____    ______ ____
ROOT
ATOM      1  N   UNL     1       0.334   0.601   0.102  0.00  0.00    -0.316 N 
ATOM      2  C   UNL     1       1.016   0.146  -0.967  0.00  0.00    +0.216 C 
ATOM      3  O   UNL     1       1.314   0.906  -1.864  0.00  0.00    -0.276 OA
ATOM      4  H   UNL     1       0.095  -0.007   0.820  0.00  0.00    +0.149 HD
ENDROOT
BRANCH   2   5
ATOM      5  C   UNL     1       1.410  -1.306  -1.048  0.00  0.00    +0.077 C 
ATOM      6  C   UNL     1       2.305  -1.659   0.142  0.00  0.00    +0.030 C 
ATOM      7  C   UNL     1       2.675  -3.144   0.075  0.00  0.00    +0.110 C 
ATOM      8  N   UNL     1       3.276  -3.424  -1.236  0.00  0.00    -0.176 NA
ATOM      9  C   UNL     1       2.537  -3.041  -2.448  0.00  0.00    +0.110 C 
ATOM     10  C   UNL     1       2.169  -1.557  -2.353  0.00  0.00    +0.030 C 
BRANCH   8  11
ATOM     11  S   UNL     1       4.757  -4.156  -1.347  0.00  0.00    +0.067 S 
ATOM     12  O   UNL     1       4.943  -4.880  -0.139  0.00  0.00    -0.152 OA
ATOM     13  O   UNL     1       4.808  -4.778  -2.624  0.00  0.00    -0.152 OA
BRANCH  11  14
ATOM     14  C   UNL     1       5.970  -2.877  -1.361  0.00  0.00    +0.143 A 
ATOM     15  C   UNL     1       6.610  -2.298  -0.316  0.00  0.00    +0.036 A 
ATOM     16  C   UNL     1       7.538  -1.304  -0.567  0.00  0.00    +0.010 A 
ATOM     17  C   UNL     1       7.772  -0.931  -1.849  0.00  0.00    +0.047 A 
ATOM     18  S   UNL     1       6.668  -2.005  -2.753  0.00  0.00    -0.077 S 
ENDBRANCH  11  14
ENDBRANCH   8  11
ENDBRANCH   2   5
BRANCH   1  19
ATOM     19  C   UNL     1      -0.049   2.013   0.181  0.00  0.00    +0.094 C 
BRANCH  19  20
ATOM     20  C   UNL     1      -0.883   2.246   1.442  0.00  0.00    -0.014 C 
BRANCH  20  21
ATOM     21  C   UNL     1      -0.023   2.030   2.660  0.00  0.00    -0.022 A 
ATOM     22  C   UNL     1       0.587   2.948   3.449  0.00  0.00    +0.009 A 
ATOM     23  C   UNL     1       1.335   2.515   4.527  0.00  0.00    +0.008 A 
ATOM     24  C   UNL     1       1.437   1.184   4.765  0.00  0.00    +0.045 A 
ATOM     25  S   UNL     1       0.450   0.497   3.445  0.00  0.00    -0.103 S 
ENDBRANCH  20  21
BRANCH  20  28
ATOM     26  C   UNL     1      -2.836   1.500   2.663  0.00  0.00    -0.096 C 
ATOM     27  C   UNL     1      -2.818   1.421   0.243  0.00  0.00    -0.096 C 
ATOM     28  N   UNL     1      -1.999   1.278   1.465  0.00  0.00    +0.382 N 
ATOM     29  H   UNL     1      -1.615   0.326   1.499  0.00  0.00    -0.082 HD
ENDBRANCH  20  28
ENDBRANCH  19  20
ENDBRANCH   1  19
TORSDOF 7
