REMARK  Name = ZINC50347218
REMARK  9 active torsions:
REMARK  status: ('A' for Active; 'I' for Inactive)
REMARK    1  A    between atoms: C_1  and  C_2
REMARK    2  A    between atoms: C_2  and  C_3
REMARK    3  A    between atoms: C_3  and  C_5
REMARK    4  A    between atoms: C_3  and  N_9
REMARK    5  A    between atoms: N_6  and  O_7
REMARK    6  A    between atoms: C_12  and  C_15
REMARK    7  A    between atoms: C_15  and  C_16
REMARK    8  A    between atoms: C_15  and  C_17
REMARK    9  A    between atoms: C_15  and  C_18
REMARK                            x       y       z     vdW  Elec       q    Type
REMARK                         _______ _______ _______ _____ _____    ______ ____
ROOT
ATOM      1  N   UNL     1       2.097   0.119   1.264  0.00  0.00    +0.386 N 
ATOM      2  C   UNL     1       2.066   1.587   1.258  0.00  0.00    -0.078 C 
ATOM      3  C   UNL     1       3.492   2.130   1.146  0.00  0.00    -0.015 C 
ATOM      4  C   UNL     1       4.315   1.640   2.341  0.00  0.00    -0.009 C 
ATOM      5  C   UNL     1       4.279   0.110   2.380  0.00  0.00    -0.015 C 
ATOM      6  C   UNL     1       2.824  -0.359   2.446  0.00  0.00    -0.078 C 
ATOM      7  H   UNL     1       2.561  -0.208   0.430  0.00  0.00    -0.081 HD
ENDROOT
BRANCH   4   8
ATOM      8  C   UNL     1       5.763   2.114   2.195  0.00  0.00    -0.035 C 
ATOM      9  C   UNL     1       5.796   3.643   2.146  0.00  0.00    +0.011 C 
ATOM     10  C   UNL     1       6.583   1.623   3.389  0.00  0.00    +0.011 C 
ATOM     11  C   UNL     1       6.356   1.550   0.902  0.00  0.00    +0.011 C 
ENDBRANCH   4   8
BRANCH   1  12
ATOM     12  C   UNL     1       0.723  -0.398   1.293  0.00  0.00    -0.001 C 
BRANCH  12  13
ATOM     13  C   UNL     1       0.752  -1.904   1.288  0.00  0.00    +0.118 C 
ATOM     14  N   UNL     1      -0.238  -2.572   1.781  0.00  0.00    -0.079 NA
ATOM     15  N   UNL     1       1.835  -2.570   0.757  0.00  0.00    -0.345 N 
ATOM     16  H   UNL     1       2.579  -2.069   0.387  0.00  0.00    +0.143 HD
ATOM     17  H   UNL     1       1.855  -3.540   0.754  0.00  0.00    +0.143 HD
BRANCH  14  18
ATOM     18  O   UNL     1      -0.210  -3.987   1.776  0.00  0.00    -0.408 OA
ATOM     19  H   UNL     1      -0.994  -4.398   2.166  0.00  0.00    +0.328 HD
ENDBRANCH  14  18
ENDBRANCH  12  13
BRANCH  12  21
ATOM     20  C   UNL     1      -1.491  -0.366   0.136  0.00  0.00    +0.002 C 
ATOM     21  C   UNL     1      -0.036   0.102   0.062  0.00  0.00    -0.011 C 
ENDBRANCH  12  21
ENDBRANCH   1  12
TORSDOF 5
