REMARK  Name = ZINC43134722
REMARK  4 active torsions:
REMARK  status: ('A' for Active; 'I' for Inactive)
REMARK    1  A    between atoms: C_1  and  C_2
REMARK    2  A    between atoms: C_7  and  N_8
REMARK    3  A    between atoms: N_11  and  C_12
REMARK    4  A    between atoms: C_12  and  C_13
REMARK                            x       y       z     vdW  Elec       q    Type
REMARK                         _______ _______ _______ _____ _____    ______ ____
ROOT
ATOM      1  N   UNL     1       0.025  -0.015   2.417  0.00  0.00    -0.269 N 
ATOM      2  C   UNL     1      -0.056  -0.694   3.578  0.00  0.00    +0.304 C 
ATOM      3  O   UNL     1      -0.040  -1.910   3.573  0.00  0.00    -0.252 OA
ATOM      4  N   UNL     1      -0.156  -0.026   4.745  0.00  0.00    -0.295 N 
ATOM      5  H   UNL     1       0.078   0.954   2.425  0.00  0.00    +0.156 HD
ATOM      6  H   UNL     1      -0.169   0.944   4.748  0.00  0.00    +0.151 HD
ENDROOT
BRANCH   1  13
ATOM      7  C   UNL     1      -1.266   1.182   0.182  0.00  0.00    +0.045 C 
ATOM      8  C   UNL     1      -0.585  -0.158   0.085  0.00  0.00    -0.029 A 
ATOM      9  C   UNL     1      -0.570  -0.841  -1.116  0.00  0.00    +0.005 A 
ATOM     10  C   UNL     1       0.055  -2.071  -1.206  0.00  0.00    +0.000 A 
ATOM     11  C   UNL     1       0.667  -2.622  -0.095  0.00  0.00    +0.002 A 
ATOM     12  C   UNL     1       0.655  -1.945   1.108  0.00  0.00    +0.023 A 
ATOM     13  C   UNL     1       0.034  -0.706   1.200  0.00  0.00    +0.038 A 
ENDBRANCH   1  13
BRANCH   4  14
ATOM     14  C   UNL     1      -0.245  -0.765   6.006  0.00  0.00    +0.148 C 
BRANCH  14  15
ATOM     15  C   UNL     1      -0.347   0.208   7.152  0.00  0.00    +0.008 A 
ATOM     16  C   UNL     1      -1.454   0.741   7.723  0.00  0.00    +0.014 A 
ATOM     17  C   UNL     1      -1.307   1.625   8.776  0.00  0.00    +0.023 A 
ATOM     18  C   UNL     1      -0.058   1.932   9.207  0.00  0.00    +0.055 A 
ATOM     19  S   UNL     1       0.960   0.952   8.115  0.00  0.00    -0.085 S 
ATOM     20 BR   UNL     1       0.469   3.091  10.605  0.00  0.00    -0.043 Br
ENDBRANCH  14  15
ENDBRANCH   4  14
TORSDOF 3
