REMARK  Name = ZINC31876307
REMARK  14 active torsions:
REMARK  status: ('A' for Active; 'I' for Inactive)
REMARK    1  A    between atoms: C_1  and  C_2
REMARK    2  A    between atoms: C_2  and  C_3
REMARK    3  A    between atoms: C_3  and  C_4
REMARK    4  A    between atoms: C_4  and  N_5
REMARK    5  A    between atoms: C_6  and  N_37
REMARK    6  A    between atoms: C_7  and  N_14
REMARK    7  A    between atoms: N_14  and  C_15
REMARK    8  A    between atoms: C_15  and  C_16
REMARK    9  A    between atoms: C_16  and  C_17
REMARK   10  A    between atoms: C_17  and  C_18
REMARK   11  A    between atoms: C_17  and  C_19
REMARK   12  A    between atoms: C_20  and  C_22
REMARK   13  A    between atoms: N_27  and  C_29
REMARK   14  A    between atoms: C_32  and  C_36
REMARK                            x       y       z     vdW  Elec       q    Type
REMARK                         _______ _______ _______ _____ _____    ______ ____
ROOT
ATOM      1  N   UNL     1      -6.465  -1.183   1.201  0.00  0.00    -0.264 N 
ATOM      2  C   UNL     1      -5.567  -0.262   1.608  0.00  0.00    +0.225 C 
ATOM      3  O   UNL     1      -5.858   0.522   2.487  0.00  0.00    -0.275 OA
ENDROOT
BRANCH   1   6
ATOM      4  N   UNL     1      -9.259  -1.448   3.572  0.00  0.00    -0.280 N 
ATOM      5  C   UNL     1      -7.977  -1.460   3.075  0.00  0.00    +0.127 A 
ATOM      6  C   UNL     1      -7.769  -1.183   1.740  0.00  0.00    +0.140 A 
ATOM      7  C   UNL     1      -8.881  -0.907   0.922  0.00  0.00    +0.277 A 
ATOM      8  O   UNL     1      -8.727  -0.665  -0.263  0.00  0.00    -0.266 OA
ATOM      9  N   UNL     1     -10.118  -0.913   1.458  0.00  0.00    -0.273 N 
ATOM     10  H   UNL     1     -10.992  -0.698   0.826  0.00  0.00    +0.173 HD
ATOM     11  C   UNL     1     -10.300  -1.180   2.763  0.00  0.00    +0.331 A 
ATOM     12  O   UNL     1     -11.427  -1.179   3.220  0.00  0.00    -0.246 OA
BRANCH   5  13
ATOM     13  N   UNL     1      -6.914  -1.739   3.901  0.00  0.00    -0.343 N 
ATOM     14  H   UNL     1      -5.891  -1.746   3.497  0.00  0.00    +0.144 HD
ATOM     15  H   UNL     1      -7.087  -1.955   4.966  0.00  0.00    +0.144 HD
ENDBRANCH   5  13
BRANCH   4  16
ATOM     16  C   UNL     1      -9.494  -1.735   4.989  0.00  0.00    +0.128 C 
BRANCH  16  17
ATOM     17  C   UNL     1      -9.700  -3.239   5.178  0.00  0.00    +0.021 C 
BRANCH  17  19
ATOM     18  C   UNL     1     -10.152  -5.043   6.847  0.00  0.00    +0.004 C 
ATOM     19  C   UNL     1      -9.945  -3.539   6.658  0.00  0.00    -0.002 C 
ENDBRANCH  17  19
ENDBRANCH  16  17
ENDBRANCH   4  16
ENDBRANCH   1   6
BRANCH   2  20
ATOM     20  C   UNL     1      -4.202  -0.208   0.972  0.00  0.00    +0.102 C 
ATOM     21  C   UNL     1      -4.260   0.500  -0.401  0.00  0.00    +0.110 C 
ATOM     22  C   UNL     1      -2.972   1.292  -0.467  0.00  0.00    +0.221 C 
ATOM     23  O   UNL     1      -2.498   1.766  -1.478  0.00  0.00    -0.275 OA
ATOM     24  N   UNL     1      -2.428   1.391   0.758  0.00  0.00    -0.268 N 
ATOM     25  C   UNL     1      -3.258   0.722   1.766  0.00  0.00    +0.127 C 
BRANCH  24  26
ATOM     26  C   UNL     1      -1.225   2.052   1.038  0.00  0.00    +0.072 A 
ATOM     27  C   UNL     1      -0.024   1.359   0.996  0.00  0.00    +0.026 A 
ATOM     28  C   UNL     1       1.161   2.015   1.266  0.00  0.00    +0.005 A 
ATOM     29  C   UNL     1       1.152   3.361   1.583  0.00  0.00    -0.048 A 
ATOM     30  C   UNL     1      -0.043   4.055   1.631  0.00  0.00    +0.043 A 
ATOM     31  C   UNL     1      -1.233   3.405   1.361  0.00  0.00    +0.145 A 
ATOM     32  F   UNL     1      -2.400   4.083   1.407  0.00  0.00    -0.204 F 
ATOM     33  C   UNL     1       2.447   4.073   1.877  0.00  0.00    +0.044 C 
ENDBRANCH  24  26
ENDBRANCH   2  20
BRANCH   1  34
ATOM     34  C   UNL     1      -6.086  -2.183   0.200  0.00  0.00    +0.114 C 
BRANCH  34  35
ATOM     35  C   UNL     1      -5.586  -3.446   0.904  0.00  0.00    +0.022 C 
BRANCH  35  36
ATOM     36  C   UNL     1      -5.191  -4.491  -0.142  0.00  0.00    -0.016 C 
ATOM     37  C   UNL     1      -3.996  -3.977  -0.948  0.00  0.00    +0.007 C 
ATOM     38  C   UNL     1      -4.809  -5.796   0.559  0.00  0.00    +0.007 C 
ENDBRANCH  35  36
ENDBRANCH  34  35
ENDBRANCH   1  34
TORSDOF 10
