REMARK  Name = ZINC06760336
REMARK  7 active torsions:
REMARK  status: ('A' for Active; 'I' for Inactive)
REMARK    1  A    between atoms: C_1  and  C_2
REMARK    2  A    between atoms: C_5  and  N_8
REMARK    3  A    between atoms: C_9  and  N_25
REMARK    4  A    between atoms: C_10  and  C_23
REMARK    5  A    between atoms: C_17  and  C_20
REMARK    6  A    between atoms: C_20  and  C_21
REMARK    7  A    between atoms: C_20  and  C_22
REMARK                            x       y       z     vdW  Elec       q    Type
REMARK                         _______ _______ _______ _____ _____    ______ ____
ROOT
ATOM      1  N   UNL     1       4.000   1.626  -2.608  0.00  0.00    -0.264 N 
ATOM      2  C   UNL     1       3.344   0.764  -3.433  0.00  0.00    +0.122 A 
ATOM      3  C   UNL     1       2.240   0.053  -2.960  0.00  0.00    +0.094 A 
ATOM      4  C   UNL     1       1.815   0.236  -1.624  0.00  0.00    -0.014 A 
ATOM      5  C   UNL     1       2.494   1.098  -0.823  0.00  0.00    +0.047 A 
ATOM      6  C   UNL     1       3.600   1.800  -1.337  0.00  0.00    +0.263 A 
ATOM      7  O   UNL     1       4.204   2.578  -0.618  0.00  0.00    -0.267 OA
ATOM      8  C   UNL     1       2.094   1.326   0.611  0.00  0.00    +0.201 C 
ATOM      9  O   UNL     1       0.772   0.838   0.841  0.00  0.00    -0.371 OA
ATOM     10  C   UNL     1       0.589  -0.513   0.402  0.00  0.00    +0.126 C 
ATOM     11  C   UNL     1       0.619  -0.532  -1.128  0.00  0.00    +0.069 C 
ENDROOT
BRANCH   1  16
ATOM     12  C   UNL     1       8.476   4.519  -4.558  0.00  0.00    +0.044 C 
ATOM     13  C   UNL     1       7.287   3.751  -4.040  0.00  0.00    -0.050 A 
ATOM     14  C   UNL     1       6.016   4.283  -4.160  0.00  0.00    +0.005 A 
ATOM     15  C   UNL     1       4.925   3.581  -3.686  0.00  0.00    +0.026 A 
ATOM     16  C   UNL     1       5.105   2.340  -3.089  0.00  0.00    +0.051 A 
ATOM     17  C   UNL     1       6.383   1.811  -2.966  0.00  0.00    +0.026 A 
ATOM     18  C   UNL     1       7.469   2.515  -3.447  0.00  0.00    +0.005 A 
ENDBRANCH   1  16
BRANCH  10  19
ATOM     19  C   UNL     1      -0.761  -1.037   0.897  0.00  0.00    +0.012 C 
ATOM     20  C   UNL     1      -0.796  -0.991   2.426  0.00  0.00    +0.010 C 
ATOM     21  C   UNL     1      -1.885  -0.164   0.335  0.00  0.00    +0.010 C 
ENDBRANCH  10  19
BRANCH   2  22
ATOM     22  N   UNL     1       3.767   0.595  -4.723  0.00  0.00    -0.343 N 
ATOM     23  H   UNL     1       4.583   1.023  -5.027  0.00  0.00    +0.144 HD
ATOM     24  H   UNL     1       3.250   0.047  -5.335  0.00  0.00    +0.144 HD
ENDBRANCH   2  22
BRANCH   3  25
ATOM     25  C   UNL     1       1.544  -0.856  -3.820  0.00  0.00    +0.103 C 
ATOM     26  N   UNL     1       0.992  -1.576  -4.503  0.00  0.00    -0.191 NA
ENDBRANCH   3  25
TORSDOF 4
