REMARK  Name = ZINC04867569
REMARK  4 active torsions:
REMARK  status: ('A' for Active; 'I' for Inactive)
REMARK    1  A    between atoms: C_1  and  O_2
REMARK    2  A    between atoms: O_2  and  C_3
REMARK    3  A    between atoms: C_10  and  C_19
REMARK    4  A    between atoms: C_23  and  N_25
REMARK                            x       y       z     vdW  Elec       q    Type
REMARK                         _______ _______ _______ _____ _____    ______ ____
ROOT
ATOM      1  C   UNL     1      -7.548   3.680  -0.881  0.00  0.00    +0.141 A 
ATOM      2  C   UNL     1      -8.237   4.735  -0.314  0.00  0.00    +0.049 A 
ATOM      3  C   UNL     1      -8.055   5.048   1.020  0.00  0.00    +0.024 A 
ATOM      4  C   UNL     1      -7.171   4.305   1.783  0.00  0.00    +0.047 A 
ATOM      5  C   UNL     1      -6.470   3.256   1.222  0.00  0.00    +0.002 A 
ATOM      6  C   UNL     1      -6.656   2.916  -0.119  0.00  0.00    +0.075 A 
ATOM      7  N   UNL     1      -6.010   1.854  -0.753  0.00  0.00    -0.334 N 
ATOM      8  C   UNL     1      -4.995   1.133   0.031  0.00  0.00    +0.105 C 
ATOM      9  C   UNL     1      -5.525   1.016   1.446  0.00  0.00    +0.029 C 
ATOM     10  C   UNL     1      -5.486   2.474   2.002  0.00  0.00    +0.050 C 
ATOM     11  C   UNL     1      -5.597   2.278   3.468  0.00  0.00    -0.023 C 
ATOM     12  C   UNL     1      -5.084   1.092   3.775  0.00  0.00    -0.030 C 
ATOM     13  C   UNL     1      -4.616   0.380   2.503  0.00  0.00    +0.033 C 
ATOM     14 CL   UNL     1      -6.941   4.696   3.458  0.00  0.00    -0.083 Cl
ATOM     15  H   UNL     1      -5.639   2.139  -1.648  0.00  0.00    +0.147 HD
ENDROOT
BRANCH   8  16
ATOM     16  C   UNL     1      -3.700   1.904   0.030  0.00  0.00    -0.025 A 
ATOM     17  C   UNL     1      -3.710   3.270  -0.181  0.00  0.00    +0.005 A 
ATOM     18  C   UNL     1      -2.522   3.977  -0.182  0.00  0.00    +0.003 A 
ATOM     19  C   UNL     1      -1.325   3.319   0.032  0.00  0.00    +0.033 A 
ATOM     20  C   UNL     1      -1.316   1.952   0.238  0.00  0.00    +0.127 A 
ATOM     21  C   UNL     1      -2.503   1.245   0.240  0.00  0.00    +0.038 A 
BRANCH  20  22
ATOM     22  N   UNL     1      -0.034   1.247   0.464  0.00  0.00    +0.056 N 
ATOM     23  O   UNL     1      -0.026   0.044   0.651  0.00  0.00    -0.126 OA
ATOM     24  O   UNL     1       1.013   1.870   0.457  0.00  0.00    -0.126 OA
ENDBRANCH  20  22
ENDBRANCH   8  16
BRANCH   1  26
ATOM     25  C   UNL     1      -8.660   4.198  -2.919  0.00  0.00    +0.277 C 
ATOM     26  O   UNL     1      -7.737   3.381  -2.194  0.00  0.00    -0.493 OA
ENDBRANCH   1  26
TORSDOF 3
