REMARK  Name = ZINC04571673
REMARK  6 active torsions:
REMARK  status: ('A' for Active; 'I' for Inactive)
REMARK    1  A    between atoms: C_1  and  C_2
REMARK    2  A    between atoms: C_11  and  O_26
REMARK    3  A    between atoms: C_13  and  C_16
REMARK    4  A    between atoms: C_18  and  O_24
REMARK    5  A    between atoms: C_19  and  O_23
REMARK    6  A    between atoms: O_24  and  C_25
REMARK                            x       y       z     vdW  Elec       q    Type
REMARK                         _______ _______ _______ _____ _____    ______ ____
ROOT
ATOM      1  C   UNL     1      -0.019   1.526   0.010  0.00  0.00    +0.008 C 
ATOM      2  C   UNL     1       0.002  -0.004   0.002  0.00  0.00    -0.009 C 
ATOM      3  C   UNL     1      -1.433  -0.537   0.019  0.00  0.00    +0.008 C 
ATOM      4  C   UNL     1      -1.432  -2.045  -0.237  0.00  0.00    +0.037 C 
ATOM      5  C   UNL     1      -0.467  -2.705   0.737  0.00  0.00    -0.023 A 
ATOM      6  C   UNL     1       0.482  -1.985   1.377  0.00  0.00    -0.004 A 
ATOM      7  S   UNL     1       1.343  -3.163   2.383  0.00  0.00    -0.078 S 
ATOM      8  C   UNL     1       0.495  -4.532   1.987  0.00  0.00    +0.080 A 
ATOM      9  C   UNL     1      -0.471  -4.120   1.062  0.00  0.00    +0.068 A 
ATOM     10  C   UNL     1      -1.381  -5.159   0.513  0.00  0.00    +0.220 C 
ATOM     11  N   UNL     1      -1.394  -6.324   1.100  0.00  0.00    -0.223 NA
ATOM     12  C   UNL     1      -0.626  -6.657   2.294  0.00  0.00    +0.224 C 
ATOM     13  N   UNL     1       0.598  -5.843   2.397  0.00  0.00    -0.313 N 
ATOM     14  C   UNL     1       0.739  -0.515   1.249  0.00  0.00    +0.046 C 
ATOM     15  H   UNL     1       1.430  -6.210   2.735  0.00  0.00    +0.149 HD
ENDROOT
BRANCH  12  16
ATOM     16  C   UNL     1      -1.481  -6.414   3.511  0.00  0.00    -0.000 A 
ATOM     17  C   UNL     1      -2.853  -6.564   3.432  0.00  0.00    +0.056 A 
ATOM     18  C   UNL     1      -3.640  -6.341   4.550  0.00  0.00    +0.163 A 
ATOM     19  C   UNL     1      -3.047  -5.966   5.752  0.00  0.00    +0.177 A 
ATOM     20  C   UNL     1      -1.671  -5.818   5.825  0.00  0.00    +0.086 A 
ATOM     21  C   UNL     1      -0.890  -6.047   4.706  0.00  0.00    +0.031 A 
ATOM     22 CL   UNL     1      -0.926  -5.350   7.322  0.00  0.00    -0.080 Cl
BRANCH  19  23
ATOM     23  O   UNL     1      -3.816  -5.746   6.852  0.00  0.00    -0.502 OA
ATOM     24  H   UNL     1      -3.959  -6.532   7.396  0.00  0.00    +0.292 HD
ENDBRANCH  19  23
BRANCH  18  25
ATOM     25  O   UNL     1      -4.990  -6.487   4.473  0.00  0.00    -0.491 OA
ATOM     26  C   UNL     1      -5.530  -6.874   3.207  0.00  0.00    +0.277 C 
ENDBRANCH  18  25
ENDBRANCH  12  16
BRANCH  10  27
ATOM     27  O   UNL     1      -2.168  -4.905  -0.558  0.00  0.00    -0.492 OA
ATOM     28  H   UNL     1      -2.718  -5.653  -0.828  0.00  0.00    +0.294 HD
ENDBRANCH  10  27
TORSDOF 4
