REMARK  Name = ZINC13520275
REMARK  6 active torsions:
REMARK  status: ('A' for Active; 'I' for Inactive)
REMARK    1  A    between atoms: C_1  and  C_2
REMARK    2  A    between atoms: C_11  and  C_13
REMARK    3  A    between atoms: N_15  and  C_16
REMARK    4  A    between atoms: N_15  and  C_17
REMARK    5  A    between atoms: C_20  and  C_24
REMARK    6  A    between atoms: C_21  and  C_23
REMARK                            x       y       z     vdW  Elec       q    Type
REMARK                         _______ _______ _______ _____ _____    ______ ____
ROOT
ATOM      1  C   UNL     1      -2.094   1.865   0.667  0.00  0.00    +0.044 C 
ATOM      2  C   UNL     1      -1.920   0.375   0.528  0.00  0.00    -0.050 A 
ATOM      3  C   UNL     1      -2.098  -0.228  -0.708  0.00  0.00    +0.005 A 
ATOM      4  C   UNL     1      -1.942  -1.591  -0.851  0.00  0.00    +0.026 A 
ATOM      5  C   UNL     1      -1.603  -2.372   0.246  0.00  0.00    +0.050 A 
ATOM      6  C   UNL     1      -1.421  -1.762   1.502  0.00  0.00    +0.013 A 
ATOM      7  C   UNL     1      -1.578  -0.379   1.628  0.00  0.00    +0.014 A 
ATOM      8  C   UNL     1      -1.067  -2.595   2.641  0.00  0.00    +0.034 A 
ATOM      9  C   UNL     1      -0.905  -3.987   2.505  0.00  0.00    +0.055 A 
ATOM     10  C   UNL     1      -0.564  -4.671   3.677  0.00  0.00    +0.034 A 
ATOM     11  C   UNL     1      -0.411  -3.985   4.847  0.00  0.00    +0.076 A 
ATOM     12  S   UNL     1      -0.745  -2.300   4.359  0.00  0.00    -0.083 S 
ATOM     13  C   UNL     1      -1.117  -4.533   1.144  0.00  0.00    +0.257 A 
ATOM     14  N   UNL     1      -1.443  -3.739   0.117  0.00  0.00    -0.322 N 
ATOM     15  O   UNL     1      -0.993  -5.730   0.956  0.00  0.00    -0.267 OA
ATOM     16  H   UNL     1      -1.573  -4.140  -0.756  0.00  0.00    +0.169 HD
ENDROOT
BRANCH  11  17
ATOM     17  C   UNL     1      -0.061  -4.503   6.174  0.00  0.00    +0.257 C 
ATOM     18  O   UNL     1       0.007  -5.704   6.359  0.00  0.00    -0.269 OA
ATOM     19  N   UNL     1       0.186  -3.649   7.187  0.00  0.00    -0.270 N 
ATOM     20  C   UNL     1       0.097  -2.204   6.965  0.00  0.00    +0.138 C 
BRANCH  19  21
ATOM     21  C   UNL     1       0.527  -4.143   8.450  0.00  0.00    +0.037 A 
ATOM     22  C   UNL     1       0.442  -5.505   8.711  0.00  0.00    +0.024 A 
ATOM     23  C   UNL     1       0.780  -5.989   9.959  0.00  0.00    +0.005 A 
ATOM     24  C   UNL     1       1.203  -5.120  10.949  0.00  0.00    -0.047 A 
ATOM     25  C   UNL     1       1.288  -3.764  10.692  0.00  0.00    -0.046 A 
ATOM     26  C   UNL     1       0.957  -3.274   9.444  0.00  0.00    +0.027 A 
ATOM     27  C   UNL     1       1.750  -2.821  11.773  0.00  0.00    +0.044 C 
ATOM     28  C   UNL     1       1.571  -5.652  12.310  0.00  0.00    +0.044 C 
ENDBRANCH  19  21
ENDBRANCH  11  17
TORSDOF 2
