REMARK  Name = ZINC15733315
REMARK  3 active torsions:
REMARK  status: ('A' for Active; 'I' for Inactive)
REMARK    1  A    between atoms: C_1  and  C_2
REMARK    2  A    between atoms: C_7  and  N_8
REMARK    3  A    between atoms: C_9  and  C_11
REMARK                            x       y       z     vdW  Elec       q    Type
REMARK                         _______ _______ _______ _____ _____    ______ ____
ROOT
ATOM      1  N   UNL     1      -2.427   1.041   0.020  0.00  0.00    -0.280 N 
ATOM      2  C   UNL     1      -2.414  -0.303  -0.089  0.00  0.00    +0.270 C 
ATOM      3  O   UNL     1      -1.357  -0.901  -0.097  0.00  0.00    -0.268 OA
ATOM      4  H   UNL     1      -3.271   1.512   0.107  0.00  0.00    +0.155 HD
ENDROOT
BRANCH   2   5
ATOM      5  C   UNL     1      -3.690  -1.051  -0.198  0.00  0.00    +0.172 A 
ATOM      6  C   UNL     1      -3.846  -2.440  -0.317  0.00  0.00    +0.032 A 
ATOM      7  C   UNL     1      -5.212  -2.612  -0.359  0.00  0.00    +0.172 A 
ATOM      8  O   UNL     1      -5.759  -1.410  -0.303  0.00  0.00    -0.354 OA
ATOM      9  N   UNL     1      -4.908  -0.545  -0.198  0.00  0.00    -0.073 NA
ATOM     10  C   UNL     1      -5.766  -3.989  -0.420  0.00  0.00    +0.030 A 
ATOM     11  C   UNL     1      -7.082  -4.365  -0.692  0.00  0.00    +0.019 A 
ATOM     12  C   UNL     1      -7.377  -5.684  -0.725  0.00  0.00    +0.046 A 
ATOM     13  S   UNL     1      -5.801  -6.441  -0.365  0.00  0.00    -0.101 S 
ATOM     14  C   UNL     1      -4.863  -5.012  -0.187  0.00  0.00    +0.001 A 
ATOM     15  C   UNL     1      -3.422  -4.849   0.166  0.00  0.00    +0.048 C 
ATOM     16  C   UNL     1      -2.849  -3.553  -0.418  0.00  0.00    +0.046 C 
ENDBRANCH   2   5
BRANCH   1  23
ATOM     17  C   UNL     1      -2.364   3.585   1.291  0.00  0.00    +0.046 C 
ATOM     18  C   UNL     1      -1.150   3.002   0.615  0.00  0.00    -0.028 A 
ATOM     19  C   UNL     1       0.037   3.708   0.595  0.00  0.00    +0.025 A 
ATOM     20  C   UNL     1       1.152   3.172  -0.025  0.00  0.00    +0.041 A 
ATOM     21  C   UNL     1       1.081   1.928  -0.627  0.00  0.00    +0.022 A 
ATOM     22  C   UNL     1      -0.103   1.218  -0.610  0.00  0.00    +0.025 A 
ATOM     23  C   UNL     1      -1.225   1.755   0.006  0.00  0.00    +0.037 A 
ATOM     24 CL   UNL     1       2.642   4.062  -0.047  0.00  0.00    -0.084 Cl
ENDBRANCH   1  23
TORSDOF 2
