REMARK  Name = ZINC05785174
REMARK  4 active torsions:
REMARK  status: ('A' for Active; 'I' for Inactive)
REMARK    1  A    between atoms: C_1  and  C_2
REMARK    2  A    between atoms: C_3  and  C_17
REMARK    3  A    between atoms: C_4  and  C_10
REMARK    4  A    between atoms: C_17  and  C_19
REMARK                            x       y       z     vdW  Elec       q    Type
REMARK                         _______ _______ _______ _____ _____    ______ ____
ROOT
ATOM      1  C   UNL     1      -0.045   1.539  -0.062  0.00  0.00    +0.061 C 
ATOM      2  C   UNL     1      -0.023   0.033  -0.020  0.00  0.00    +0.018 C 
ATOM      3  C   UNL     1      -1.189  -0.651  -0.068  0.00  0.00    +0.041 C 
ATOM      4  C   UNL     1      -1.120  -2.164  -0.023  0.00  0.00    +0.142 C 
ATOM      5  N   UNL     1       0.219  -2.769   0.070  0.00  0.00    -0.288 N 
ATOM      6  C   UNL     1       1.290  -1.953   0.109  0.00  0.00    +0.304 C 
ATOM      7  O   UNL     1       2.400  -2.443   0.186  0.00  0.00    -0.252 OA
ATOM      8  N   UNL     1       1.173  -0.620   0.061  0.00  0.00    -0.273 N 
ATOM      9  H   UNL     1       0.328  -3.733   0.102  0.00  0.00    +0.151 HD
ATOM     10  H   UNL     1       1.984  -0.088   0.089  0.00  0.00    +0.156 HD
ENDROOT
BRANCH   4  11
ATOM     11  C   UNL     1      -1.923  -2.631   1.164  0.00  0.00    -0.004 A 
ATOM     12  C   UNL     1      -1.305  -2.820   2.385  0.00  0.00    +0.007 A 
ATOM     13  C   UNL     1      -2.041  -3.248   3.474  0.00  0.00    +0.000 A 
ATOM     14  C   UNL     1      -3.397  -3.487   3.342  0.00  0.00    +0.001 A 
ATOM     15  C   UNL     1      -4.016  -3.298   2.121  0.00  0.00    +0.020 A 
ATOM     16  C   UNL     1      -3.281  -2.864   1.032  0.00  0.00    +0.046 A 
ATOM     17 CL   UNL     1      -4.059  -2.620  -0.500  0.00  0.00    -0.083 Cl
ENDBRANCH   4  11
BRANCH   3  18
ATOM     18  C   UNL     1      -2.429   0.023  -0.157  0.00  0.00    +0.193 C 
ATOM     19  O   UNL     1      -2.998   0.112  -1.230  0.00  0.00    -0.287 OA
BRANCH  18  20
ATOM     20  C   UNL     1      -3.036   0.619   1.054  0.00  0.00    +0.022 A 
ATOM     21  C   UNL     1      -2.337   0.616   2.262  0.00  0.00    +0.012 A 
ATOM     22  C   UNL     1      -2.908   1.173   3.388  0.00  0.00    +0.001 A 
ATOM     23  C   UNL     1      -4.170   1.735   3.320  0.00  0.00    +0.000 A 
ATOM     24  C   UNL     1      -4.869   1.742   2.126  0.00  0.00    +0.001 A 
ATOM     25  C   UNL     1      -4.306   1.193   0.992  0.00  0.00    +0.012 A 
ENDBRANCH  18  20
ENDBRANCH   3  18
TORSDOF 3
