REMARK  Name = ZINC51065046
REMARK  7 active torsions:
REMARK  status: ('A' for Active; 'I' for Inactive)
REMARK    1  A    between atoms: C_1  and  C_2
REMARK    2  A    between atoms: C_5  and  C_7
REMARK    3  A    between atoms: N_9  and  C_10
REMARK    4  A    between atoms: N_13  and  C_16
REMARK    5  A    between atoms: C_16  and  C_17
REMARK    6  A    between atoms: N_19  and  C_20
REMARK    7  A    between atoms: C_20  and  C_24
REMARK                            x       y       z     vdW  Elec       q    Type
REMARK                         _______ _______ _______ _____ _____    ______ ____
ROOT
ATOM      1  C   UNL     1       3.909  -4.152   0.078  0.00  0.00    +0.070 C 
ATOM      2  C   UNL     1       4.153  -4.678   1.495  0.00  0.00    +0.004 C 
ATOM      3  C   UNL     1       5.166  -5.824   1.440  0.00  0.00    -0.076 C 
ATOM      4  N   UNL     1       6.429  -5.338   0.873  0.00  0.00    +0.385 N 
ATOM      5  C   UNL     1       6.217  -4.898  -0.511  0.00  0.00    -0.076 C 
ATOM      6  C   UNL     1       5.245  -3.717  -0.531  0.00  0.00    +0.004 C 
ATOM      7  H   UNL     1       6.768  -4.563   1.423  0.00  0.00    -0.081 HD
ENDROOT
BRANCH   1  10
ATOM      8  C   UNL     1       1.665  -3.203   0.140  0.00  0.00    +0.280 C 
ATOM      9  O   UNL     1       1.218  -4.334   0.103  0.00  0.00    -0.267 OA
ATOM     10  N   UNL     1       2.998  -3.005   0.132  0.00  0.00    -0.306 N 
ATOM     11  H   UNL     1       3.355  -2.103   0.161  0.00  0.00    +0.149 HD
BRANCH   8  16
ATOM     12  C   UNL     1       0.002   1.516   0.338  0.00  0.00    +0.086 C 
ATOM     13  C   UNL     1       0.019   0.010   0.281  0.00  0.00    +0.103 A 
ATOM     14  C   UNL     1      -1.071  -0.789   0.263  0.00  0.00    +0.045 A 
ATOM     15  C   UNL     1      -0.610  -2.114   0.207  0.00  0.00    +0.055 A 
ATOM     16  C   UNL     1       0.754  -2.055   0.193  0.00  0.00    +0.189 A 
ATOM     17  O   UNL     1       1.116  -0.756   0.234  0.00  0.00    -0.455 OA
ENDBRANCH   8  16
ENDBRANCH   1  10
BRANCH   4  18
ATOM     18  C   UNL     1       7.422  -6.420   0.894  0.00  0.00    +0.019 C 
BRANCH  18  19
ATOM     19  C   UNL     1       8.753  -5.891   0.426  0.00  0.00    +0.197 C 
ATOM     20  O   UNL     1       8.864  -4.726   0.107  0.00  0.00    -0.278 OA
ATOM     21  N   UNL     1       9.821  -6.711   0.363  0.00  0.00    -0.307 N 
ATOM     22  H   UNL     1       9.752  -7.622   0.689  0.00  0.00    +0.149 HD
BRANCH  21  23
ATOM     23  C   UNL     1      11.084  -6.227  -0.198  0.00  0.00    +0.060 C 
ATOM     24  C   UNL     1      12.304  -7.069   0.213  0.00  0.00    +0.030 C 
ATOM     25  C   UNL     1      12.431  -6.144   1.435  0.00  0.00    +0.005 C 
ATOM     26  C   UNL     1      11.711  -5.072   0.601  0.00  0.00    +0.030 C 
BRANCH  23  27
ATOM     27  C   UNL     1      11.003  -5.962  -1.680  0.00  0.00    -0.024 A 
ATOM     28  C   UNL     1      11.994  -5.229  -2.306  0.00  0.00    +0.006 A 
ATOM     29  C   UNL     1      11.920  -4.986  -3.665  0.00  0.00    +0.000 A 
ATOM     30  C   UNL     1      10.855  -5.476  -4.397  0.00  0.00    +0.000 A 
ATOM     31  C   UNL     1       9.864  -6.210  -3.771  0.00  0.00    +0.000 A 
ATOM     32  C   UNL     1       9.941  -6.456  -2.413  0.00  0.00    +0.006 A 
ENDBRANCH  23  27
ENDBRANCH  21  23
ENDBRANCH  18  19
ENDBRANCH   4  18
TORSDOF 6
