REMARK  Name = ZINC39623327
REMARK  8 active torsions:
REMARK  status: ('A' for Active; 'I' for Inactive)
REMARK    1  A    between atoms: C_1  and  C_2
REMARK    2  A    between atoms: C_2  and  C_3
REMARK    3  A    between atoms: C_3  and  C_4
REMARK    4  A    between atoms: C_4  and  C_5
REMARK    5  A    between atoms: C_5  and  N_6
REMARK    6  A    between atoms: C_7  and  C_9
REMARK    7  A    between atoms: C_20  and  C_22
REMARK    8  A    between atoms: C_28  and  C_30
REMARK                            x       y       z     vdW  Elec       q    Type
REMARK                         _______ _______ _______ _____ _____    ______ ____
ROOT
ATOM      1  C   UNL     1       2.078  -6.153  -3.560  0.00  0.00    +0.100 C 
ATOM      2  C   UNL     1       0.639  -6.711  -3.498  0.00  0.00    +0.121 C 
ATOM      3  N   UNL     1       0.271  -6.957  -4.912  0.00  0.00    -0.299 N 
ATOM      4  C   UNL     1       1.508  -7.496  -5.526  0.00  0.00    +0.115 C 
ATOM      5  C   UNL     1       2.646  -6.673  -4.891  0.00  0.00    -0.004 C 
ATOM      6  C   UNL     1       3.021  -5.505  -5.799  0.00  0.00    -0.010 C 
ATOM      7  C   UNL     1       3.636  -6.047  -7.092  0.00  0.00    -0.082 C 
ATOM      8  N   UNL     1       4.825  -6.847  -6.774  0.00  0.00    +0.379 N 
ATOM      9  C   UNL     1       4.442  -8.019  -5.978  0.00  0.00    -0.082 C 
ATOM     10  C   UNL     1       3.861  -7.561  -4.637  0.00  0.00    -0.010 C 
ATOM     11  C   UNL     1      -0.919  -6.739  -5.506  0.00  0.00    +0.236 C 
ATOM     12  O   UNL     1      -1.065  -6.994  -6.683  0.00  0.00    -0.274 OA
ATOM     13  H   UNL     1       5.263  -7.152  -7.630  0.00  0.00    -0.086 HD
ATOM     14  H   UNL     1       5.477  -6.284  -6.248  0.00  0.00    -0.086 HD
ENDROOT
BRANCH  11  15
ATOM     15  C   UNL     1      -2.068  -6.179  -4.708  0.00  0.00    +0.162 C 
ATOM     16  C   UNL     1      -2.739  -7.305  -3.893  0.00  0.00    +0.033 C 
ATOM     17  C   UNL     1      -4.246  -6.950  -3.985  0.00  0.00    +0.021 C 
ATOM     18  C   UNL     1      -4.344  -6.377  -5.421  0.00  0.00    +0.109 C 
ATOM     19  N   UNL     1      -3.085  -5.628  -5.615  0.00  0.00    -0.283 N 
ATOM     20  C   UNL     1      -2.899  -4.610  -6.479  0.00  0.00    +0.320 C 
ATOM     21  O   UNL     1      -1.817  -4.068  -6.552  0.00  0.00    -0.266 OA
BRANCH  20  22
ATOM     22  C   UNL     1      -4.035  -4.146  -7.353  0.00  0.00    +0.470 C 
ATOM     23  F   UNL     1      -3.602  -3.086  -8.157  0.00  0.00    -0.162 F 
ATOM     24  F   UNL     1      -4.462  -5.203  -8.164  0.00  0.00    -0.162 F 
ATOM     25  F   UNL     1      -5.097  -3.717  -6.549  0.00  0.00    -0.162 F 
ENDBRANCH  20  22
ENDBRANCH  11  15
BRANCH   1  27
ATOM     26  N   UNL     1       3.101  -3.961  -3.044  0.00  0.00    -0.315 N 
ATOM     27  C   UNL     1       2.058  -4.646  -3.552  0.00  0.00    +0.218 C 
ATOM     28  O   UNL     1       1.103  -4.050  -4.003  0.00  0.00    -0.275 OA
ATOM     29  H   UNL     1       3.865  -4.437  -2.684  0.00  0.00    +0.149 HD
BRANCH  26  30
ATOM     30  C   UNL     1       3.082  -2.496  -3.036  0.00  0.00    +0.104 C 
BRANCH  30  31
ATOM     31  C   UNL     1       4.375  -1.972  -2.410  0.00  0.00    +0.019 C 
BRANCH  31  32
ATOM     32  C   UNL     1       4.355  -0.442  -2.401  0.00  0.00    +0.001 C 
BRANCH  32  34
ATOM     33  C   UNL     1       5.628   1.612  -1.767  0.00  0.00    +0.004 C 
ATOM     34  C   UNL     1       5.648   0.082  -1.775  0.00  0.00    -0.003 C 
ENDBRANCH  32  34
ENDBRANCH  31  32
ENDBRANCH  30  31
ENDBRANCH  26  30
ENDBRANCH   1  27
TORSDOF 7
