REMARK  Name = ZINC36058897
REMARK  14 active torsions:
REMARK  status: ('A' for Active; 'I' for Inactive)
REMARK    1  A    between atoms: C_1  and  C_2
REMARK    2  A    between atoms: C_2  and  O_3
REMARK    3  A    between atoms: O_3  and  C_4
REMARK    4  A    between atoms: C_4  and  C_6
REMARK    5  A    between atoms: C_7  and  C_37
REMARK    6  A    between atoms: C_11  and  C_13
REMARK    7  A    between atoms: C_16  and  O_21
REMARK    8  A    between atoms: C_17  and  O_19
REMARK    9  A    between atoms: O_19  and  C_20
REMARK   10  A    between atoms: O_21  and  C_22
REMARK   11  A    between atoms: C_23  and  C_26
REMARK   12  A    between atoms: C_27  and  N_29
REMARK   13  A    between atoms: N_29  and  C_30
REMARK   14  A    between atoms: C_30  and  C_31
REMARK                            x       y       z     vdW  Elec       q    Type
REMARK                         _______ _______ _______ _____ _____    ______ ____
ROOT
ATOM      1  C   UNL     1       2.602  -1.150  -1.914  0.00  0.00    +0.082 C 
ATOM      2  C   UNL     1       3.125  -2.410  -1.695  0.00  0.00    +0.053 C 
ATOM      3  N   UNL     1       3.620  -3.114  -2.699  0.00  0.00    -0.230 NA
ATOM      4  C   UNL     1       3.664  -2.709  -3.951  0.00  0.00    +0.166 C 
ATOM      5  N   UNL     1       3.199  -1.497  -4.378  0.00  0.00    -0.267 N 
ATOM      6  C   UNL     1       2.613  -0.619  -3.331  0.00  0.00    +0.150 C 
ATOM      7  C   UNL     1       3.317  -1.219  -5.725  0.00  0.00    +0.048 C 
ATOM      8  C   UNL     1       3.879  -2.162  -6.513  0.00  0.00    +0.072 C 
ATOM      9  S   UNL     1       4.246  -3.452  -5.340  0.00  0.00    -0.060 S 
ATOM     10  C   UNL     1       3.132  -2.985  -0.302  0.00  0.00    +0.066 C 
ENDROOT
BRANCH   6  11
ATOM     11  C   UNL     1       3.382   0.677  -3.334  0.00  0.00    -0.018 A 
ATOM     12  C   UNL     1       2.703   1.882  -3.334  0.00  0.00    +0.009 A 
ATOM     13  C   UNL     1       3.404   3.074  -3.338  0.00  0.00    +0.050 A 
ATOM     14  C   UNL     1       4.789   3.063  -3.341  0.00  0.00    +0.162 A 
ATOM     15  C   UNL     1       5.472   1.850  -3.341  0.00  0.00    +0.162 A 
ATOM     16  C   UNL     1       4.764   0.659  -3.333  0.00  0.00    +0.055 A 
BRANCH  15  17
ATOM     17  O   UNL     1       6.832   1.834  -3.344  0.00  0.00    -0.491 OA
ATOM     18  C   UNL     1       7.466   0.558  -3.451  0.00  0.00    +0.277 C 
ENDBRANCH  15  17
BRANCH  14  19
ATOM     19  O   UNL     1       5.480   4.234  -3.345  0.00  0.00    -0.491 OA
ATOM     20  C   UNL     1       4.713   5.440  -3.345  0.00  0.00    +0.277 C 
ENDBRANCH  14  19
ENDBRANCH   6  11
BRANCH   7  21
ATOM     21  C   UNL     1       2.846   0.057  -6.283  0.00  0.00    +0.091 C 
ATOM     22  C   UNL     1       2.838   0.247  -7.616  0.00  0.00    +0.239 C 
ATOM     23  O   UNL     1       3.132  -0.781  -8.449  0.00  0.00    -0.271 OA
BRANCH  22  24
ATOM     24  N   UNL     1       2.528   1.492  -8.136  0.00  0.00    -0.309 N 
ATOM     25  H   UNL     1       2.390   2.245  -7.541  0.00  0.00    +0.149 HD
BRANCH  24  26
ATOM     26  C   UNL     1       2.410   1.672  -9.585  0.00  0.00    +0.136 C 
BRANCH  26  27
ATOM     27  C   UNL     1       1.943   3.098  -9.886  0.00  0.00    +0.135 C 
ATOM     28  C   UNL     1       1.861   3.311 -11.413  0.00  0.00    +0.035 C 
ATOM     29  C   UNL     1       2.395   4.761 -11.572  0.00  0.00    +0.031 C 
ATOM     30  C   UNL     1       3.453   4.811 -10.441  0.00  0.00    +0.160 C 
ATOM     31  O   UNL     1       2.890   4.039  -9.366  0.00  0.00    -0.375 OA
ENDBRANCH  26  27
ENDBRANCH  24  26
ENDBRANCH  22  24
ENDBRANCH   7  21
BRANCH   1  32
ATOM     32  C   UNL     1       2.075  -0.392  -0.862  0.00  0.00    +0.339 C 
ATOM     33  O   UNL     1       1.976  -0.880   0.251  0.00  0.00    -0.245 OA
BRANCH  32  34
ATOM     34  O   UNL     1       1.674   0.880  -1.080  0.00  0.00    -0.462 OA
BRANCH  34  36
ATOM     35  C   UNL     1       0.720   2.993  -0.395  0.00  0.00    +0.048 C 
ATOM     36  C   UNL     1       1.249   1.631   0.060  0.00  0.00    +0.229 C 
ENDBRANCH  34  36
ENDBRANCH  32  34
ENDBRANCH   1  32
TORSDOF 10
