REMARK  Name = ZINC60339768
REMARK  13 active torsions:
REMARK  status: ('A' for Active; 'I' for Inactive)
REMARK    1  A    between atoms: C_1  and  C_2
REMARK    2  A    between atoms: C_5  and  N_9
REMARK    3  A    between atoms: C_10  and  C_12
REMARK    4  A    between atoms: C_12  and  C_14
REMARK    5  A    between atoms: C_12  and  N_15
REMARK    6  A    between atoms: C_19  and  C_22
REMARK    7  A    between atoms: C_22  and  N_23
REMARK    8  A    between atoms: N_23  and  C_24
REMARK    9  A    between atoms: C_25  and  O_27
REMARK   10  A    between atoms: O_27  and  C_28
REMARK   11  A    between atoms: C_28  and  C_29
REMARK   12  A    between atoms: C_28  and  C_30
REMARK   13  A    between atoms: C_28  and  C_31
REMARK                            x       y       z     vdW  Elec       q    Type
REMARK                         _______ _______ _______ _____ _____    ______ ____
ROOT
ATOM      1  N   UNL     1      -0.114  -6.834  -2.574  0.00  0.00    +0.387 N 
ATOM      2  C   UNL     1      -0.093  -8.302  -2.571  0.00  0.00    -0.078 C 
ATOM      3  C   UNL     1      -0.152  -8.820  -4.009  0.00  0.00    -0.018 C 
ATOM      4  C   UNL     1       1.059  -8.293  -4.785  0.00  0.00    +0.001 C 
ATOM      5  C   UNL     1       1.069  -6.763  -4.719  0.00  0.00    -0.010 C 
ATOM      6  C   UNL     1       1.082  -6.321  -3.254  0.00  0.00    -0.073 C 
ATOM      7  H   UNL     1      -0.939  -6.512  -3.058  0.00  0.00    -0.081 HD
ENDROOT
BRANCH   1   8
ATOM      8  C   UNL     1      -0.136  -6.343  -1.190  0.00  0.00    +0.016 C 
ATOM      9  C   UNL     1      -1.416  -6.819  -0.501  0.00  0.00    -0.004 C 
BRANCH   8  11
ATOM     10  N   UNL     1       0.419  -4.176  -0.135  0.00  0.00    -0.286 N 
ATOM     11  C   UNL     1      -0.096  -4.837  -1.191  0.00  0.00    +0.203 C 
ATOM     12  O   UNL     1      -0.527  -4.219  -2.141  0.00  0.00    -0.277 OA
ATOM     13  H   UNL     1       0.834  -4.668   0.591  0.00  0.00    +0.155 HD
BRANCH  10  18
ATOM     14  C   UNL     1       0.165   1.489   0.064  0.00  0.00    +0.044 C 
ATOM     15  C   UNL     1       0.233  -0.015   0.011  0.00  0.00    -0.049 A 
ATOM     16  C   UNL     1      -0.638  -0.717  -0.802  0.00  0.00    +0.005 A 
ATOM     17  C   UNL     1      -0.579  -2.096  -0.852  0.00  0.00    +0.024 A 
ATOM     18  C   UNL     1       0.357  -2.778  -0.086  0.00  0.00    +0.047 A 
ATOM     19  C   UNL     1       1.232  -2.071   0.729  0.00  0.00    +0.039 A 
ATOM     20  C   UNL     1       1.170  -0.690   0.771  0.00  0.00    +0.020 A 
ATOM     21 BR   UNL     1       2.508  -2.994   1.775  0.00  0.00    -0.048 Br
ENDBRANCH  10  18
ENDBRANCH   8  11
ENDBRANCH   1   8
BRANCH   5  22
ATOM     22  C   UNL     1       2.316  -6.229  -5.426  0.00  0.00    +0.112 C 
BRANCH  22  23
ATOM     23  N   UNL     1       2.246  -6.555  -6.853  0.00  0.00    -0.270 N 
ATOM     24  C   UNL     1       1.616  -5.619  -7.787  0.00  0.00    +0.135 C 
ATOM     25  C   UNL     1       2.761  -7.715  -7.306  0.00  0.00    +0.403 C 
ATOM     26  O   UNL     1       3.284  -8.491  -6.530  0.00  0.00    -0.226 OA
BRANCH  25  27
ATOM     27  O   UNL     1       2.697  -8.014  -8.617  0.00  0.00    -0.445 OA
BRANCH  27  28
ATOM     28  C   UNL     1       3.263  -9.261  -9.026  0.00  0.00    +0.107 C 
ATOM     29  C   UNL     1       2.548 -10.406  -8.307  0.00  0.00    +0.055 C 
ATOM     30  C   UNL     1       3.097  -9.424 -10.538  0.00  0.00    +0.055 C 
ATOM     31  C   UNL     1       4.752  -9.286  -8.671  0.00  0.00    +0.055 C 
ENDBRANCH  27  28
ENDBRANCH  25  27
ENDBRANCH  22  23
ENDBRANCH   5  22
TORSDOF 7
