REMARK  Name = ZINC09913977
REMARK  8 active torsions:
REMARK  status: ('A' for Active; 'I' for Inactive)
REMARK    1  A    between atoms: C_4  and  C_7
REMARK    2  A    between atoms: C_8  and  S_9
REMARK    3  A    between atoms: S_9  and  N_12
REMARK    4  A    between atoms: C_18  and  C_20
REMARK    5  A    between atoms: C_20  and  S_21
REMARK    6  A    between atoms: S_21  and  C_22
REMARK    7  A    between atoms: N_26  and  C_27
REMARK    8  A    between atoms: C_27  and  C_28
REMARK                            x       y       z     vdW  Elec       q    Type
REMARK                         _______ _______ _______ _____ _____    ______ ____
ROOT
ATOM      1  N   UNL     1       0.663  -0.477  -1.441  0.00  0.00    -0.174 NA
ATOM      2  C   UNL     1      -0.190  -0.709  -2.614  0.00  0.00    +0.128 C 
ATOM      3  C   UNL     1       0.326   0.165  -3.770  0.00  0.00    +0.125 C 
ATOM      4  N   UNL     1       1.776  -0.036  -3.898  0.00  0.00    -0.298 N 
ATOM      5  C   UNL     1       2.629   0.191  -2.723  0.00  0.00    +0.125 C 
ATOM      6  C   UNL     1       2.114  -0.678  -1.569  0.00  0.00    +0.128 C 
ATOM      7  C   UNL     1       2.314  -0.420  -5.072  0.00  0.00    +0.226 C 
ATOM      8  O   UNL     1       3.513  -0.583  -5.166  0.00  0.00    -0.275 OA
ENDROOT
BRANCH   1   9
ATOM      9  S   UNL     1       0.002  -0.004   0.002  0.00  0.00    +0.054 S 
ATOM     10  O   UNL     1       0.913  -0.404   1.017  0.00  0.00    -0.153 OA
ATOM     11  O   UNL     1      -1.354  -0.428  -0.014  0.00  0.00    -0.153 OA
BRANCH   9  13
ATOM     12  C   UNL     1      -1.179   2.405   0.021  0.00  0.00    +0.028 C 
ATOM     13  C   UNL     1      -0.022   1.758   0.012  0.00  0.00    +0.153 C 
BRANCH  12  17
ATOM     14  C   UNL     1      -1.236   6.652   0.044  0.00  0.00    +0.000 A 
ATOM     15  C   UNL     1      -2.427   5.947   0.046  0.00  0.00    +0.001 A 
ATOM     16  C   UNL     1      -2.415   4.567   0.038  0.00  0.00    +0.008 A 
ATOM     17  C   UNL     1      -1.199   3.883   0.029  0.00  0.00    -0.024 A 
ATOM     18  C   UNL     1      -0.002   4.600   0.033  0.00  0.00    +0.008 A 
ATOM     19  C   UNL     1      -0.027   5.979   0.035  0.00  0.00    +0.001 A 
ENDBRANCH  12  17
ENDBRANCH   9  13
ENDBRANCH   1   9
BRANCH   7  20
ATOM     20  C   UNL     1       1.427  -0.649  -6.269  0.00  0.00    +0.173 C 
BRANCH  20  21
ATOM     21  S   UNL     1       2.439  -1.154  -7.682  0.00  0.00    -0.075 S 
BRANCH  21  22
ATOM     22  C   UNL     1       1.184  -1.348  -8.903  0.00  0.00    +0.210 A 
ATOM     23  N   UNL     1      -0.107  -1.160  -8.734  0.00  0.00    -0.101 NA
ATOM     24  N   UNL     1      -0.741  -1.383  -9.828  0.00  0.00    -0.022 NA
ATOM     25  N   UNL     1       0.079  -1.733 -10.758  0.00  0.00    -0.043 NA
ATOM     26  N   UNL     1       1.366  -1.723 -10.191  0.00  0.00    -0.215 N 
BRANCH  26  27
ATOM     27  C   UNL     1       2.632  -2.049 -10.853  0.00  0.00    +0.190 C 
BRANCH  27  28
ATOM     28  C   UNL     1       2.912  -3.522 -10.704  0.00  0.00    +0.011 A 
ATOM     29  C   UNL     1       2.553  -4.545 -11.518  0.00  0.00    +0.013 A 
ATOM     30  C   UNL     1       2.925  -5.833 -11.179  0.00  0.00    +0.008 A 
ATOM     31  C   UNL     1       3.637  -6.034 -10.043  0.00  0.00    +0.045 A 
ATOM     32  S   UNL     1       3.809  -4.372  -9.415  0.00  0.00    -0.100 S 
ENDBRANCH  27  28
ENDBRANCH  26  27
ENDBRANCH  21  22
ENDBRANCH  20  21
ENDBRANCH   7  20
TORSDOF 8
