REMARK  Name = ZINC59471630
REMARK  7 active torsions:
REMARK  status: ('A' for Active; 'I' for Inactive)
REMARK    1  A    between atoms: C_1  and  N_2
REMARK    2  A    between atoms: N_2  and  C_3
REMARK    3  A    between atoms: N_2  and  C_4
REMARK    4  A    between atoms: C_7  and  C_10
REMARK    5  A    between atoms: N_11  and  N_12
REMARK    6  A    between atoms: C_13  and  C_15
REMARK    7  A    between atoms: C_18  and  C_21
REMARK                            x       y       z     vdW  Elec       q    Type
REMARK                         _______ _______ _______ _____ _____    ______ ____
ROOT
ATOM      1  C   UNL     1      -0.039  -2.888  -9.683  0.00  0.00    +0.038 A 
ATOM      2  C   UNL     1      -0.227  -4.272  -9.701  0.00  0.00    +0.013 A 
ATOM      3  C   UNL     1      -0.228  -4.949 -10.903  0.00  0.00    +0.006 A 
ATOM      4  C   UNL     1      -0.042  -4.260 -12.089  0.00  0.00    -0.027 A 
ATOM      5  C   UNL     1       0.144  -2.889 -12.078  0.00  0.00    +0.006 A 
ATOM      6  C   UNL     1       0.141  -2.199 -10.883  0.00  0.00    +0.013 A 
ENDROOT
BRANCH   4   7
ATOM      7  C   UNL     1      -0.044  -5.006 -13.398  0.00  0.00    +0.105 C 
ATOM      8  C   UNL     1       1.366  -5.444 -13.753  0.00  0.00    +0.029 C 
ATOM      9  C   UNL     1       2.447  -4.356 -13.798  0.00  0.00    +0.033 C 
ATOM     10  C   UNL     1       3.700  -5.151 -13.426  0.00  0.00    -0.030 C 
ATOM     11  C   UNL     1       3.365  -6.213 -12.702  0.00  0.00    -0.023 C 
ATOM     12  C   UNL     1       1.883  -6.230 -12.511  0.00  0.00    +0.049 C 
ATOM     13  C   UNL     1       1.098  -7.480 -12.408  0.00  0.00    -0.019 A 
ATOM     14  C   UNL     1       1.647  -8.663 -11.964  0.00  0.00    +0.006 A 
ATOM     15  C   UNL     1       0.869  -9.802 -11.872  0.00  0.00    +0.000 A 
ATOM     16  C   UNL     1      -0.467  -9.757 -12.226  0.00  0.00    +0.002 A 
ATOM     17  C   UNL     1      -1.025  -8.578 -12.677  0.00  0.00    +0.023 A 
ATOM     18  C   UNL     1      -0.250  -7.429 -12.780  0.00  0.00    +0.031 A 
ATOM     19  N   UNL     1      -0.832  -6.252 -13.275  0.00  0.00    -0.336 N 
ATOM     20  H   UNL     1      -1.764  -6.254 -13.542  0.00  0.00    +0.147 HD
ENDBRANCH   4   7
BRANCH   1  22
ATOM     21  N   UNL     1      -0.212  -2.825  -7.242  0.00  0.00    -0.203 N 
ATOM     22  C   UNL     1      -0.038  -2.156  -8.399  0.00  0.00    +0.263 C 
ATOM     23  O   UNL     1       0.121  -0.951  -8.386  0.00  0.00    -0.268 OA
ATOM     24  H   UNL     1      -0.339  -3.787  -7.252  0.00  0.00    +0.178 HD
BRANCH  21  26
ATOM     25  C   UNL     1      -0.379  -2.775  -4.910  0.00  0.00    +0.138 C 
ATOM     26  N   UNL     1      -0.210  -2.131  -6.025  0.00  0.00    -0.187 NA
BRANCH  25  30
ATOM     27  C   UNL     1      -0.372  -0.673  -1.222  0.00  0.00    +0.029 A 
ATOM     28  C   UNL     1      -0.555  -2.052  -1.234  0.00  0.00    +0.024 A 
ATOM     29  C   UNL     1      -0.558  -2.737  -2.429  0.00  0.00    +0.011 A 
ATOM     30  C   UNL     1      -0.377  -2.046  -3.630  0.00  0.00    -0.005 A 
ATOM     31  C   UNL     1      -0.194  -0.660  -3.614  0.00  0.00    +0.011 A 
ATOM     32  C   UNL     1      -0.197   0.019  -2.415  0.00  0.00    +0.024 A 
BRANCH  27  34
ATOM     33  C   UNL     1      -0.184   1.471   0.005  0.00  0.00    +0.129 C 
ATOM     34  N   UNL     1      -0.370   0.018  -0.010  0.00  0.00    -0.336 N 
ATOM     35  C   UNL     1      -0.554  -0.710   1.248  0.00  0.00    +0.129 C 
ENDBRANCH  27  34
ENDBRANCH  25  30
ENDBRANCH  21  26
ENDBRANCH   1  22
TORSDOF 5
