REMARK  Name = ZINC10022081
REMARK  10 active torsions:
REMARK  status: ('A' for Active; 'I' for Inactive)
REMARK    1  A    between atoms: C_1  and  C_2
REMARK    2  A    between atoms: C_2  and  O_3
REMARK    3  A    between atoms: O_3  and  C_4
REMARK    4  A    between atoms: C_7  and  C_9
REMARK    5  A    between atoms: C_13  and  N_14
REMARK    6  A    between atoms: C_15  and  C_17
REMARK    7  A    between atoms: C_17  and  C_18
REMARK    8  A    between atoms: C_18  and  C_19
REMARK    9  A    between atoms: C_19  and  S_20
REMARK   10  A    between atoms: S_20  and  C_23
REMARK                            x       y       z     vdW  Elec       q    Type
REMARK                         _______ _______ _______ _____ _____    ______ ____
ROOT
ATOM      1  C   UNL     1      -1.583   2.276  -8.712  0.00  0.00    +0.069 A 
ATOM      2  C   UNL     1      -0.820   1.863  -9.883  0.00  0.00    -0.023 A 
ATOM      3  C   UNL     1       0.336   1.220  -9.611  0.00  0.00    -0.004 A 
ATOM      4  S   UNL     1       0.426   1.172  -7.842  0.00  0.00    -0.077 S 
ATOM      5  C   UNL     1      -1.053   1.989  -7.463  0.00  0.00    +0.084 A 
ATOM      6  C   UNL     1       1.321   0.656 -10.587  0.00  0.00    +0.043 C 
ATOM      7  C   UNL     1       1.639   1.712 -11.654  0.00  0.00    +0.005 C 
ATOM      8  C   UNL     1       0.640   1.558 -12.797  0.00  0.00    +0.001 C 
ATOM      9  C   UNL     1      -0.711   1.095 -12.256  0.00  0.00    +0.005 C 
ATOM     10  C   UNL     1      -1.290   2.139 -11.306  0.00  0.00    +0.037 C 
ENDROOT
BRANCH   1  14
ATOM     11  C   UNL     1      -5.191   2.906  -9.039  0.00  0.00    +0.407 C 
ATOM     12  O   UNL     1      -5.220   4.119  -9.098  0.00  0.00    -0.226 OA
ATOM     13  N   UNL     1      -4.011   2.266  -8.912  0.00  0.00    -0.217 N 
ATOM     14  C   UNL     1      -2.865   2.971  -8.850  0.00  0.00    +0.255 C 
ATOM     15  O   UNL     1      -2.894   4.186  -8.909  0.00  0.00    -0.270 OA
ATOM     16  H   UNL     1      -3.988   1.298  -8.865  0.00  0.00    +0.161 HD
BRANCH  11  17
ATOM     17  O   UNL     1      -6.336   2.202  -9.100  0.00  0.00    -0.450 OA
BRANCH  17  19
ATOM     18  C   UNL     1      -8.755   1.993  -9.290  0.00  0.00    +0.048 C 
ATOM     19  C   UNL     1      -7.568   2.958  -9.237  0.00  0.00    +0.230 C 
ENDBRANCH  17  19
ENDBRANCH  11  17
ENDBRANCH   1  14
BRANCH   5  20
ATOM     20  N   UNL     1      -1.582   2.281  -6.215  0.00  0.00    -0.279 N 
ATOM     21  C   UNL     1      -0.919   1.915  -5.101  0.00  0.00    +0.218 C 
ATOM     22  O   UNL     1       0.140   1.330  -5.189  0.00  0.00    -0.275 OA
ATOM     23  H   UNL     1      -2.429   2.748  -6.145  0.00  0.00    +0.155 HD
BRANCH  21  24
ATOM     24  C   UNL     1      -1.493   2.232  -3.744  0.00  0.00    +0.098 C 
BRANCH  24  25
ATOM     25  C   UNL     1      -0.551   1.712  -2.657  0.00  0.00    +0.032 C 
BRANCH  25  26
ATOM     26  C   UNL     1      -1.135   2.034  -1.279  0.00  0.00    +0.172 C 
BRANCH  26  27
ATOM     27  S   UNL     1      -0.017   1.417   0.010  0.00  0.00    -0.003 S 
ATOM     28  O   UNL     1       0.002  -0.004   0.002  0.00  0.00    -0.169 OA
ATOM     29  O   UNL     1       1.195   2.158   0.002  0.00  0.00    -0.169 OA
BRANCH  27  30
ATOM     30  C   UNL     1      -0.798   1.847   1.530  0.00  0.00    +0.088 A 
ATOM     31  C   UNL     1      -0.521   3.062   2.129  0.00  0.00    +0.028 A 
ATOM     32  C   UNL     1      -1.137   3.403   3.318  0.00  0.00    +0.022 A 
ATOM     33  C   UNL     1      -2.023   2.523   3.915  0.00  0.00    +0.041 A 
ATOM     34  C   UNL     1      -2.295   1.305   3.318  0.00  0.00    +0.022 A 
ATOM     35  C   UNL     1      -1.683   0.968   2.126  0.00  0.00    +0.028 A 
ATOM     36 CL   UNL     1      -2.792   2.948   5.412  0.00  0.00    -0.084 Cl
ENDBRANCH  27  30
ENDBRANCH  26  27
ENDBRANCH  25  26
ENDBRANCH  24  25
ENDBRANCH  21  24
ENDBRANCH   5  20
TORSDOF 9
