REMARK  Name = ZINC17076818
REMARK  8 active torsions:
REMARK  status: ('A' for Active; 'I' for Inactive)
REMARK    1  A    between atoms: C_1  and  O_2
REMARK    2  A    between atoms: O_2  and  C_3
REMARK    3  A    between atoms: C_5  and  N_24
REMARK    4  A    between atoms: C_8  and  N_9
REMARK    5  A    between atoms: N_9  and  C_10
REMARK    6  A    between atoms: C_10  and  N_12
REMARK    7  A    between atoms: N_12  and  C_13
REMARK    8  A    between atoms: C_13  and  C_14
REMARK                            x       y       z     vdW  Elec       q    Type
REMARK                         _______ _______ _______ _____ _____    ______ ____
ROOT
ATOM      1  C   UNL     1      -6.366   1.380   1.386  0.00  0.00    +0.135 C 
ATOM      2  S   UNL     1      -7.273   0.680   0.114  0.00  0.00    -0.019 S 
ENDROOT
BRANCH   1   3
ATOM      3  N   UNL     1      -6.940   1.590   2.587  0.00  0.00    -0.294 N 
ATOM      4  H   UNL     1      -6.410   1.928   3.325  0.00  0.00    +0.154 HD
BRANCH   3  10
ATOM      5  C   UNL     1      -9.120   2.251   3.406  0.00  0.00    +0.143 A 
ATOM      6  C   UNL     1     -10.467   1.981   3.580  0.00  0.00    +0.080 A 
ATOM      7  C   UNL     1     -10.997   0.786   3.129  0.00  0.00    +0.130 A 
ATOM      8  C   UNL     1     -10.185  -0.141   2.500  0.00  0.00    +0.035 A 
ATOM      9  C   UNL     1      -8.841   0.123   2.319  0.00  0.00    +0.029 A 
ATOM     10  C   UNL     1      -8.303   1.320   2.769  0.00  0.00    +0.075 A 
BRANCH   7  11
ATOM     11  N   UNL     1     -12.436   0.498   3.320  0.00  0.00    +0.057 N 
ATOM     12  O   UNL     1     -12.904  -0.555   2.924  0.00  0.00    -0.126 OA
ATOM     13  O   UNL     1     -13.152   1.313   3.873  0.00  0.00    -0.126 OA
ENDBRANCH   7  11
BRANCH   5  15
ATOM     14  C   UNL     1      -9.494   4.331   4.497  0.00  0.00    +0.277 C 
ATOM     15  O   UNL     1      -8.597   3.424   3.853  0.00  0.00    -0.493 OA
ENDBRANCH   5  15
ENDBRANCH   3  10
ENDBRANCH   1   3
BRANCH   1  16
ATOM     16  N   UNL     1      -5.077   1.720   1.186  0.00  0.00    -0.326 N 
ATOM     17  H   UNL     1      -4.563   2.116   1.907  0.00  0.00    +0.148 HD
BRANCH  16  18
ATOM     18  C   UNL     1      -4.453   1.492  -0.119  0.00  0.00    +0.110 C 
BRANCH  18  19
ATOM     19  C   UNL     1      -2.998   1.963  -0.079  0.00  0.00    -0.013 C 
ATOM     20  C   UNL     1      -2.346   1.724  -1.442  0.00  0.00    +0.012 C 
ATOM     21  C   UNL     1      -0.891   2.195  -1.401  0.00  0.00    -0.010 C 
ATOM     22  C   UNL     1      -0.131   1.412  -0.329  0.00  0.00    +0.007 C 
ATOM     23  C   UNL     1      -0.783   1.650   1.035  0.00  0.00    -0.010 C 
ATOM     24  C   UNL     1      -2.238   1.179   0.994  0.00  0.00    +0.012 C 
ATOM     25  C   UNL     1      -0.739   3.143   1.367  0.00  0.00    +0.007 C 
ATOM     26  C   UNL     1      -1.499   3.927   0.294  0.00  0.00    -0.010 C 
ATOM     27  C   UNL     1      -0.847   3.688  -1.069  0.00  0.00    +0.007 C 
ATOM     28  C   UNL     1      -2.954   3.456   0.253  0.00  0.00    +0.012 C 
ENDBRANCH  18  19
ENDBRANCH  16  18
ENDBRANCH   1  16
TORSDOF 7
