REMARK  Name = ZINC09608426
REMARK  7 active torsions:
REMARK  status: ('A' for Active; 'I' for Inactive)
REMARK    1  A    between atoms: C_1  and  C_2
REMARK    2  A    between atoms: C_5  and  N_9
REMARK    3  A    between atoms: C_10  and  C_12
REMARK    4  A    between atoms: C_12  and  N_13
REMARK    5  A    between atoms: N_13  and  C_14
REMARK    6  A    between atoms: N_13  and  S_15
REMARK    7  A    between atoms: S_15  and  C_18
REMARK                            x       y       z     vdW  Elec       q    Type
REMARK                         _______ _______ _______ _____ _____    ______ ____
ROOT
ATOM      1  N   UNL     1      -4.803   1.167  -0.281  0.00  0.00    -0.171 NA
ATOM      2  C   UNL     1      -5.385   0.594   0.935  0.00  0.00    +0.132 C 
ENDROOT
BRANCH   1   3
ATOM      3  S   UNL     1      -5.390   0.727  -1.766  0.00  0.00    +0.061 S 
ATOM      4  O   UNL     1      -6.723   0.280  -1.560  0.00  0.00    -0.153 OA
ATOM      5  O   UNL     1      -5.070   1.785  -2.659  0.00  0.00    -0.153 OA
BRANCH   3   6
ATOM      6  C   UNL     1      -4.465  -0.676  -2.297  0.00  0.00    +0.106 A 
ATOM      7  C   UNL     1      -3.310  -0.501  -3.038  0.00  0.00    +0.030 A 
ATOM      8  C   UNL     1      -2.581  -1.598  -3.453  0.00  0.00    +0.025 A 
ATOM      9  C   UNL     1      -3.013  -2.878  -3.132  0.00  0.00    +0.037 A 
ATOM     10  C   UNL     1      -4.175  -3.050  -2.391  0.00  0.00    -0.024 A 
ATOM     11  C   UNL     1      -4.898  -1.950  -1.976  0.00  0.00    +0.034 A 
ATOM     12  C   UNL     1      -4.643  -4.439  -2.042  0.00  0.00    +0.046 C 
ATOM     13  C   UNL     1      -4.290  -5.398  -3.180  0.00  0.00    +0.101 C 
ATOM     14  C   UNL     1      -2.852  -5.212  -3.581  0.00  0.00    +0.218 C 
ATOM     15  O   UNL     1      -2.199  -6.171  -3.933  0.00  0.00    -0.275 OA
ATOM     16  N   UNL     1      -2.281  -3.993  -3.552  0.00  0.00    -0.285 N 
ATOM     17  H   UNL     1      -1.357  -3.888  -3.825  0.00  0.00    +0.155 HD
ENDBRANCH   3   6
ENDBRANCH   1   3
BRANCH   1  18
ATOM     18  C   UNL     1      -3.702   2.128  -0.184  0.00  0.00    +0.205 C 
BRANCH  18  20
ATOM     19  N   UNL     1      -1.238   2.069   0.019  0.00  0.00    -0.283 N 
ATOM     20  C   UNL     1      -2.395   1.385  -0.081  0.00  0.00    +0.233 C 
ATOM     21  O   UNL     1      -2.384   0.173  -0.088  0.00  0.00    -0.274 OA
ATOM     22  H   UNL     1      -1.250   3.037   0.090  0.00  0.00    +0.155 HD
BRANCH  19  27
ATOM     23  C   UNL     1       3.704  -0.719   0.011  0.00  0.00    +0.044 C 
ATOM     24  C   UNL     1       2.393   0.022   0.014  0.00  0.00    -0.049 A 
ATOM     25  C   UNL     1       1.282  -0.543   0.614  0.00  0.00    +0.005 A 
ATOM     26  C   UNL     1       0.078   0.134   0.619  0.00  0.00    +0.025 A 
ATOM     27  C   UNL     1      -0.017   1.383   0.021  0.00  0.00    +0.052 A 
ATOM     28  C   UNL     1       1.100   1.949  -0.581  0.00  0.00    +0.062 A 
ATOM     29  C   UNL     1       2.302   1.266  -0.582  0.00  0.00    +0.025 A 
ATOM     30 CL   UNL     1       0.987   3.511  -1.330  0.00  0.00    -0.082 Cl
ENDBRANCH  19  27
ENDBRANCH  18  20
ENDBRANCH   1  18
TORSDOF 5
