REMARK  Name = ZINC27028818
REMARK  4 active torsions:
REMARK  status: ('A' for Active; 'I' for Inactive)
REMARK    1  A    between atoms: C_1  and  C_2
REMARK    2  A    between atoms: C_5  and  C_22
REMARK    3  A    between atoms: C_6  and  N_8
REMARK    4  A    between atoms: C_12  and  C_18
REMARK                            x       y       z     vdW  Elec       q    Type
REMARK                         _______ _______ _______ _____ _____    ______ ____
ROOT
ATOM      1  N   UNL     1       0.391  -2.892   2.118  0.00  0.00    -0.234 NA
ATOM      2  C   UNL     1       0.294  -2.367   3.306  0.00  0.00    +0.124 C 
ATOM      3  N   UNL     1       0.041  -1.024   3.459  0.00  0.00    -0.236 N 
ATOM      4  N   UNL     1       0.805  -0.281   4.365  0.00  0.00    -0.212 N 
ATOM      5  C   UNL     1       0.898   1.064   4.529  0.00  0.00    +0.255 A 
ATOM      6  N   UNL     1       1.734   1.276   5.511  0.00  0.00    -0.123 NA
ATOM      7  N   UNL     1       2.174   0.154   5.972  0.00  0.00    -0.121 NA
ATOM      8  C   UNL     1       1.640  -0.826   5.306  0.00  0.00    +0.210 A 
ATOM      9  S   UNL     1       1.877  -2.566   5.487  0.00  0.00    -0.077 S 
ATOM     10  C   UNL     1       0.454  -3.228   4.546  0.00  0.00    +0.150 C 
ATOM     11  H   UNL     1      -0.660  -0.596   2.944  0.00  0.00    +0.174 HD
ENDROOT
BRANCH   1  17
ATOM     12  C   UNL     1       2.099   1.032  -0.264  0.00  0.00    +0.044 C 
ATOM     13  C   UNL     1       1.190  -0.168  -0.183  0.00  0.00    -0.048 A 
ATOM     14  C   UNL     1       0.335  -0.458  -1.231  0.00  0.00    +0.004 A 
ATOM     15  C   UNL     1      -0.502  -1.557  -1.165  0.00  0.00    +0.006 A 
ATOM     16  C   UNL     1      -0.488  -2.373  -0.052  0.00  0.00    -0.025 A 
ATOM     17  C   UNL     1       0.372  -2.086   1.009  0.00  0.00    +0.069 A 
ATOM     18  C   UNL     1       1.217  -0.978   0.933  0.00  0.00    +0.031 A 
ATOM     19  C   UNL     1      -1.401  -3.570   0.019  0.00  0.00    +0.046 C 
ENDBRANCH   1  17
BRANCH   5  20
ATOM     20  C   UNL     1       0.173   2.115   3.728  0.00  0.00    +0.454 C 
ATOM     21  F   UNL     1       0.749   3.366   3.971  0.00  0.00    -0.163 F 
ATOM     22  F   UNL     1       0.273   1.813   2.365  0.00  0.00    -0.163 F 
ATOM     23  F   UNL     1      -1.174   2.140   4.103  0.00  0.00    -0.163 F 
ENDBRANCH   5  20
TORSDOF 2
