REMARK  Name = ZINC17214723
REMARK  13 active torsions:
REMARK  status: ('A' for Active; 'I' for Inactive)
REMARK    1  A    between atoms: C_1  and  C_2
REMARK    2  A    between atoms: C_7  and  N_8
REMARK    3  A    between atoms: C_9  and  C_11
REMARK    4  A    between atoms: C_11  and  C_18
REMARK    5  A    between atoms: N_12  and  N_13
REMARK    6  A    between atoms: N_13  and  C_14
REMARK    7  A    between atoms: C_14  and  C_15
REMARK    8  A    between atoms: C_14  and  C_16
REMARK    9  A    between atoms: C_14  and  C_17
REMARK   10  A    between atoms: C_18  and  C_20
REMARK   11  A    between atoms: C_18  and  C_22
REMARK   12  A    between atoms: C_24  and  C_27
REMARK   13  A    between atoms: C_30  and  N_33
REMARK                            x       y       z     vdW  Elec       q    Type
REMARK                         _______ _______ _______ _____ _____    ______ ____
ROOT
ATOM      1  C   UNL     1       1.007   2.171  -0.169  0.00  0.00    +0.144 C 
ATOM      2  N   UNL     1       0.003   1.480  -0.629  0.00  0.00    -0.184 NA
ENDROOT
BRANCH   1   4
ATOM      3  N   UNL     1       3.402   2.336   0.236  0.00  0.00    -0.280 N 
ATOM      4  C   UNL     1       2.350   1.592  -0.158  0.00  0.00    +0.266 C 
ATOM      5  O   UNL     1       2.517   0.437  -0.505  0.00  0.00    -0.268 OA
ATOM      6  H   UNL     1       3.260   3.397   0.491  0.00  0.00    +0.155 HD
BRANCH   3  13
ATOM      7  C   UNL     1       5.610   4.036   0.810  0.00  0.00    +0.046 C 
ATOM      8  C   UNL     1       5.779   2.553   0.600  0.00  0.00    -0.028 A 
ATOM      9  C   UNL     1       7.033   1.981   0.689  0.00  0.00    +0.025 A 
ATOM     10  C   UNL     1       7.189   0.620   0.490  0.00  0.00    +0.041 A 
ATOM     11  C   UNL     1       6.090  -0.172   0.208  0.00  0.00    +0.022 A 
ATOM     12  C   UNL     1       4.833   0.395   0.123  0.00  0.00    +0.025 A 
ATOM     13  C   UNL     1       4.673   1.760   0.322  0.00  0.00    +0.037 A 
ATOM     14 CL   UNL     1       8.768  -0.095   0.596  0.00  0.00    -0.084 Cl
ENDBRANCH   3  13
ENDBRANCH   1   4
BRANCH   2  15
ATOM     15  N   UNL     1       0.230   0.255  -1.269  0.00  0.00    -0.263 N 
ATOM     16  H   UNL     1       1.137  -0.031  -1.460  0.00  0.00    +0.169 HD
BRANCH  15  17
ATOM     17  C   UNL     1      -0.901  -0.594  -1.649  0.00  0.00    +0.041 C 
ATOM     18  C   UNL     1      -1.807   0.167  -2.620  0.00  0.00    +0.032 C 
ATOM     19  C   UNL     1      -0.381  -1.864  -2.326  0.00  0.00    +0.032 C 
ATOM     20  C   UNL     1      -1.698  -0.973  -0.399  0.00  0.00    +0.032 C 
ENDBRANCH  15  17
ENDBRANCH   2  15
BRANCH   1  21
ATOM     21  C   UNL     1       0.784   3.568   0.351  0.00  0.00    +0.202 C 
BRANCH  21  22
ATOM     22  C   UNL     1      -0.649   3.970   0.116  0.00  0.00    +0.102 A 
ATOM     23  N   UNL     1      -1.116   4.972  -0.587  0.00  0.00    -0.242 NA
ATOM     24  C   UNL     1      -2.417   5.193  -0.697  0.00  0.00    +0.078 A 
ATOM     25  C   UNL     1      -3.268   4.338  -0.050  0.00  0.00    +0.075 A 
ATOM     26  S   UNL     1      -2.099   3.216   0.703  0.00  0.00    -0.078 S 
BRANCH  24  27
ATOM     27  C   UNL     1      -2.935   6.330  -1.495  0.00  0.00    +0.001 A 
ATOM     28  C   UNL     1      -2.058   7.129  -2.226  0.00  0.00    +0.012 A 
ATOM     29  C   UNL     1      -2.546   8.183  -2.971  0.00  0.00    +0.033 A 
ATOM     30  C   UNL     1      -3.903   8.453  -2.986  0.00  0.00    +0.126 A 
ATOM     31  C   UNL     1      -4.778   7.667  -2.258  0.00  0.00    +0.033 A 
ATOM     32  C   UNL     1      -4.301   6.607  -1.514  0.00  0.00    +0.012 A 
BRANCH  30  33
ATOM     33  N   UNL     1      -4.420   9.588  -3.783  0.00  0.00    +0.056 N 
ATOM     34  O   UNL     1      -5.614   9.828  -3.797  0.00  0.00    -0.126 OA
ATOM     35  O   UNL     1      -3.652  10.282  -4.424  0.00  0.00    -0.126 OA
ENDBRANCH  30  33
ENDBRANCH  24  27
ENDBRANCH  21  22
BRANCH  21  36
ATOM     36  C   UNL     1       1.075   3.606   1.794  0.00  0.00    +0.079 C 
ATOM     37  N   UNL     1       1.299   3.636   2.907  0.00  0.00    -0.195 NA
ENDBRANCH  21  36
ENDBRANCH   1  21
TORSDOF 9
