REMARK  Name = ZINC49242483
REMARK  9 active torsions:
REMARK  status: ('A' for Active; 'I' for Inactive)
REMARK    1  A    between atoms: C_1  and  C_2
REMARK    2  A    between atoms: C_2  and  C_3
REMARK    3  A    between atoms: C_3  and  C_5
REMARK    4  A    between atoms: C_3  and  N_6
REMARK    5  A    between atoms: C_7  and  C_9
REMARK    6  A    between atoms: C_9  and  C_10
REMARK    7  A    between atoms: C_10  and  N_11
REMARK    8  A    between atoms: N_14  and  C_15
REMARK    9  A    between atoms: C_15  and  C_16
REMARK                            x       y       z     vdW  Elec       q    Type
REMARK                         _______ _______ _______ _____ _____    ______ ____
ROOT
ATOM      1  N   UNL     1      -6.254   0.753   3.688  0.00  0.00    -0.299 N 
ATOM      2  C   UNL     1      -7.596   0.861   3.749  0.00  0.00    +0.300 C 
ATOM      3  O   UNL     1      -8.269   0.650   2.759  0.00  0.00    -0.253 OA
ATOM      4  N   UNL     1      -8.193   1.203   4.909  0.00  0.00    -0.295 N 
ATOM      5  H   UNL     1      -5.718   0.921   4.479  0.00  0.00    +0.150 HD
ATOM      6  H   UNL     1      -7.656   1.372   5.699  0.00  0.00    +0.151 HD
ENDROOT
BRANCH   1   7
ATOM      7  C   UNL     1      -5.606   0.381   2.428  0.00  0.00    +0.115 C 
BRANCH   7   8
ATOM      8  C   UNL     1      -4.090   0.329   2.630  0.00  0.00    +0.114 C 
BRANCH   8  10
ATOM      9  N   UNL     1      -2.082  -0.162   1.273  0.00  0.00    -0.313 N 
ATOM     10  C   UNL     1      -3.424  -0.053   1.334  0.00  0.00    +0.215 C 
ATOM     11  O   UNL     1      -4.095  -0.264   0.346  0.00  0.00    -0.276 OA
ATOM     12  H   UNL     1      -1.545   0.006   2.063  0.00  0.00    +0.149 HD
BRANCH   9  13
ATOM     13  C   UNL     1      -1.433  -0.534   0.013  0.00  0.00    +0.070 C 
ATOM     14  C   UNL     1      -1.416  -2.058  -0.121  0.00  0.00    +0.028 C 
BRANCH  13  16
ATOM     15  C   UNL     1      -0.019   1.526   0.010  0.00  0.00    +0.005 C 
ATOM     16  C   UNL     1       0.002  -0.004   0.002  0.00  0.00    +0.018 C 
ENDBRANCH  13  16
ENDBRANCH   9  13
ENDBRANCH   8  10
ENDBRANCH   7   8
ENDBRANCH   1   7
BRANCH   4  17
ATOM     17  C   UNL     1      -9.651   1.321   4.975  0.00  0.00    +0.148 C 
BRANCH  17  18
ATOM     18  C   UNL     1     -10.061   1.712   6.372  0.00  0.00    +0.008 A 
ATOM     19  C   UNL     1     -10.228   2.950   6.897  0.00  0.00    +0.028 A 
ATOM     20  C   UNL     1     -10.612   3.071   8.220  0.00  0.00    +0.025 A 
ATOM     21  C   UNL     1     -10.811   1.947   8.952  0.00  0.00    +0.060 A 
ATOM     22  S   UNL     1     -10.459   0.664   7.761  0.00  0.00    -0.099 S 
ATOM     23 BR   UNL     1     -10.857   4.778   8.996  0.00  0.00    -0.050 Br
ENDBRANCH  17  18
ENDBRANCH   4  17
TORSDOF 7
