REMARK  Name = ZINC16780426
REMARK  13 active torsions:
REMARK  status: ('A' for Active; 'I' for Inactive)
REMARK    1  A    between atoms: C_1  and  C_2
REMARK    2  A    between atoms: C_2  and  N_57
REMARK    3  A    between atoms: C_3  and  C_4
REMARK    4  A    between atoms: C_3  and  N_57
REMARK    5  A    between atoms: C_5  and  C_6
REMARK    6  A    between atoms: C_5  and  N_57
REMARK    7  A    between atoms: C_9  and  C_12
REMARK    8  A    between atoms: C_12  and  N_13
REMARK    9  A    between atoms: C_14  and  C_16
REMARK   10  A    between atoms: C_16  and  C_18
REMARK   11  A    between atoms: C_16  and  N_19
REMARK   12  A    between atoms: N_19  and  S_20
REMARK   13  A    between atoms: S_20  and  C_23
REMARK                            x       y       z     vdW  Elec       q    Type
REMARK                         _______ _______ _______ _____ _____    ______ ____
ROOT
ATOM      1  N   UNL     1      -2.908   1.759   5.861  0.00  0.00    -0.310 N 
ATOM      2  C   UNL     1      -3.489   1.992   7.055  0.00  0.00    +0.232 C 
ATOM      3  O   UNL     1      -4.433   2.749   7.132  0.00  0.00    -0.274 OA
ATOM      4  H   UNL     1      -2.152   1.154   5.799  0.00  0.00    +0.149 HD
ENDROOT
BRANCH   2   5
ATOM      5  C   UNL     1      -2.965   1.311   8.293  0.00  0.00    +0.159 C 
ATOM      6  C   UNL     1      -3.066  -0.206   8.122  0.00  0.00    +0.035 C 
BRANCH   5   7
ATOM      7  N   UNL     1      -3.760   1.725   9.451  0.00  0.00    -0.178 NA
ATOM      8  H   UNL     1      -4.710   1.893   9.353  0.00  0.00    +0.149 HD
BRANCH   7   9
ATOM      9  S   UNL     1      -3.037   1.908  10.930  0.00  0.00    +0.059 S 
ATOM     10  O   UNL     1      -4.051   2.337  11.828  0.00  0.00    -0.153 OA
ATOM     11  O   UNL     1      -2.268   0.734  11.153  0.00  0.00    -0.153 OA
BRANCH   9  12
ATOM     12  C   UNL     1      -1.892   3.240  10.789  0.00  0.00    +0.105 A 
ATOM     13  C   UNL     1      -0.585   2.991  10.415  0.00  0.00    +0.029 A 
ATOM     14  C   UNL     1       0.312   4.037  10.299  0.00  0.00    +0.017 A 
ATOM     15  C   UNL     1      -0.097   5.331  10.569  0.00  0.00    +0.018 A 
ATOM     16  C   UNL     1      -1.403   5.579  10.948  0.00  0.00    +0.017 A 
ATOM     17  C   UNL     1      -2.301   4.533  11.058  0.00  0.00    +0.029 A 
ATOM     18 BR   UNL     1       1.131   6.761  10.417  0.00  0.00    -0.050 Br
ENDBRANCH   9  12
ENDBRANCH   7   9
ENDBRANCH   5   7
ENDBRANCH   2   5
BRANCH   1  19
ATOM     19  C   UNL     1      -3.416   2.421   4.657  0.00  0.00    +0.139 C 
BRANCH  19  23
ATOM     20  C   UNL     1      -1.098   1.213   1.279  0.00  0.00    -0.064 A 
ATOM     21  C   UNL     1      -0.721   2.321   2.015  0.00  0.00    +0.002 A 
ATOM     22  C   UNL     1      -1.474   2.714   3.106  0.00  0.00    +0.005 A 
ATOM     23  C   UNL     1      -2.599   1.995   3.466  0.00  0.00    -0.030 A 
ATOM     24  C   UNL     1      -2.972   0.884   2.732  0.00  0.00    +0.005 A 
ATOM     25  C   UNL     1      -2.222   0.493   1.640  0.00  0.00    +0.002 A 
BRANCH  20  26
ATOM     26  C   UNL     1      -0.280   0.786   0.088  0.00  0.00    -0.043 C 
BRANCH  26  27
ATOM     27  N   UNL     1      -0.819   1.444  -1.121  0.00  0.00    +0.382 N 
ATOM     28  H   UNL     1      -1.830   1.275  -1.170  0.00  0.00    -0.081 HD
BRANCH  27  30
ATOM     29  C   UNL     1       0.922   3.196  -0.999  0.00  0.00    -0.017 C 
ATOM     30  C   UNL     1      -0.579   2.901  -1.052  0.00  0.00    -0.082 C 
ENDBRANCH  27  30
BRANCH  27  31
ATOM     31  C   UNL     1      -0.178   0.883  -2.329  0.00  0.00    -0.082 C 
ATOM     32  C   UNL     1      -0.991   1.303  -3.556  0.00  0.00    -0.017 C 
ENDBRANCH  27  31
ENDBRANCH  26  27
ENDBRANCH  20  26
ENDBRANCH  19  23
ENDBRANCH   1  19
TORSDOF 10
