REMARK  Name = ZINC39595836
REMARK  8 active torsions:
REMARK  status: ('A' for Active; 'I' for Inactive)
REMARK    1  A    between atoms: C_1  and  C_2
REMARK    2  A    between atoms: C_2  and  C_4
REMARK    3  A    between atoms: C_2  and  O_32
REMARK    4  A    between atoms: C_4  and  N_5
REMARK    5  A    between atoms: C_6  and  C_8
REMARK    6  A    between atoms: C_19  and  C_21
REMARK    7  A    between atoms: C_23  and  C_28
REMARK    8  A    between atoms: O_32  and  C_33
REMARK                            x       y       z     vdW  Elec       q    Type
REMARK                         _______ _______ _______ _____ _____    ______ ____
ROOT
ATOM      1  C   UNL     1       1.787  -4.192   2.051  0.00  0.00    +0.100 C 
ATOM      2  C   UNL     1       2.790  -4.604   0.950  0.00  0.00    +0.121 C 
ATOM      3  N   UNL     1       4.078  -4.776   1.663  0.00  0.00    -0.296 N 
ATOM      4  C   UNL     1       3.707  -5.421   2.945  0.00  0.00    +0.115 C 
ATOM      5  C   UNL     1       2.390  -4.734   3.358  0.00  0.00    -0.004 C 
ATOM      6  C   UNL     1       1.444  -5.745   3.997  0.00  0.00    -0.010 C 
ATOM      7  C   UNL     1       2.038  -6.225   5.324  0.00  0.00    -0.082 C 
ATOM      8  N   UNL     1       2.236  -5.077   6.218  0.00  0.00    +0.379 N 
ATOM      9  C   UNL     1       3.219  -4.155   5.637  0.00  0.00    -0.082 C 
ATOM     10  C   UNL     1       2.675  -3.587   4.323  0.00  0.00    -0.010 C 
ATOM     11  C   UNL     1       5.309  -4.425   1.241  0.00  0.00    +0.247 C 
ATOM     12  O   UNL     1       5.442  -3.802   0.205  0.00  0.00    -0.270 OA
ATOM     13  H   UNL     1       1.359  -4.596   6.345  0.00  0.00    -0.086 HD
ATOM     14  H   UNL     1       2.571  -5.403   7.112  0.00  0.00    -0.086 HD
ENDROOT
BRANCH  11  15
ATOM     15  C   UNL     1       6.498  -4.797   2.038  0.00  0.00    +0.040 A 
ATOM     16  C   UNL     1       6.450  -5.897   2.895  0.00  0.00    +0.025 A 
ATOM     17  C   UNL     1       7.562  -6.240   3.636  0.00  0.00    +0.058 A 
ATOM     18  C   UNL     1       8.724  -5.497   3.531  0.00  0.00    +0.050 A 
ATOM     19  C   UNL     1       8.779  -4.404   2.682  0.00  0.00    +0.125 A 
ATOM     20  C   UNL     1       7.673  -4.053   1.930  0.00  0.00    +0.051 A 
ATOM     21  F   UNL     1       9.917  -3.682   2.585  0.00  0.00    -0.205 F 
BRANCH  17  22
ATOM     22  C   UNL     1       7.511  -7.428   4.562  0.00  0.00    +0.418 C 
ATOM     23  F   UNL     1       7.905  -8.577   3.870  0.00  0.00    -0.166 F 
ATOM     24  F   UNL     1       8.374  -7.214   5.643  0.00  0.00    -0.166 F 
ATOM     25  F   UNL     1       6.204  -7.594   5.035  0.00  0.00    -0.166 F 
ENDBRANCH  17  22
ENDBRANCH  11  15
BRANCH   1  27
ATOM     26  N   UNL     1       0.577  -2.128   2.680  0.00  0.00    -0.312 N 
ATOM     27  C   UNL     1       1.662  -2.692   2.112  0.00  0.00    +0.218 C 
ATOM     28  O   UNL     1       2.538  -1.991   1.652  0.00  0.00    -0.275 OA
ATOM     29  H   UNL     1      -0.123  -2.689   3.048  0.00  0.00    +0.149 HD
BRANCH  26  30
ATOM     30  C   UNL     1       0.456  -0.669   2.740  0.00  0.00    +0.148 C 
BRANCH  30  32
ATOM     31  C   UNL     1      -1.044   1.223   3.379  0.00  0.00    +0.053 C 
ATOM     32  C   UNL     1      -0.858  -0.295   3.428  0.00  0.00    +0.187 C 
BRANCH  32  33
ATOM     33  O   UNL     1      -0.824  -0.727   4.789  0.00  0.00    -0.488 OA
BRANCH  33  34
ATOM     34  C   UNL     1      -2.019  -0.956   5.395  0.00  0.00    +0.121 A 
ATOM     35  C   UNL     1      -3.195  -0.869   4.664  0.00  0.00    +0.048 A 
ATOM     36  C   UNL     1      -4.409  -1.101   5.281  0.00  0.00    +0.042 A 
ATOM     37  C   UNL     1      -4.453  -1.419   6.628  0.00  0.00    +0.124 A 
ATOM     38  C   UNL     1      -3.280  -1.505   7.358  0.00  0.00    +0.042 A 
ATOM     39  C   UNL     1      -2.064  -1.280   6.742  0.00  0.00    +0.048 A 
ATOM     40  F   UNL     1      -5.641  -1.646   7.230  0.00  0.00    -0.205 F 
ENDBRANCH  33  34
ENDBRANCH  32  33
ENDBRANCH  30  32
ENDBRANCH  26  30
ENDBRANCH   1  27
TORSDOF 7
