REMARK  Name = ZINC20695581
REMARK  6 active torsions:
REMARK  status: ('A' for Active; 'I' for Inactive)
REMARK    1  A    between atoms: C_1  and  C_2
REMARK    2  A    between atoms: C_2  and  C_3
REMARK    3  A    between atoms: C_3  and  C_5
REMARK    4  A    between atoms: C_3  and  N_6
REMARK    5  A    between atoms: C_7  and  C_9
REMARK    6  A    between atoms: C_22  and  C_25
REMARK                            x       y       z     vdW  Elec       q    Type
REMARK                         _______ _______ _______ _____ _____    ______ ____
ROOT
ATOM      1  C   UNL     1      -0.852   0.246   4.098  0.00  0.00    +0.037 A 
ATOM      2  C   UNL     1      -1.554   1.390   3.705  0.00  0.00    +0.015 A 
ATOM      3  C   UNL     1      -2.278   2.096   4.637  0.00  0.00    +0.024 A 
ATOM      4  C   UNL     1      -2.312   1.674   5.964  0.00  0.00    +0.031 A 
ATOM      5  C   UNL     1      -1.620   0.538   6.365  0.00  0.00    -0.019 A 
ATOM      6  C   UNL     1      -0.895  -0.175   5.427  0.00  0.00    +0.019 A 
ATOM      7  C   UNL     1      -1.634   0.050   7.779  0.00  0.00    +0.049 C 
ATOM      8  C   UNL     1      -0.331   0.353   8.480  0.00  0.00    -0.023 C 
ATOM      9  C   UNL     1      -0.551   0.661   9.735  0.00  0.00    -0.030 C 
ATOM     10  C   UNL     1      -2.034   0.601  10.044  0.00  0.00    +0.033 C 
ATOM     11  C   UNL     1      -2.701   0.749   8.645  0.00  0.00    +0.029 C 
ATOM     12  C   UNL     1      -2.755   2.240   8.301  0.00  0.00    +0.105 C 
ATOM     13  N   UNL     1      -3.050   2.408   6.891  0.00  0.00    -0.336 N 
ATOM     14  H   UNL     1      -3.840   3.103   6.573  0.00  0.00    +0.147 HD
ENDROOT
BRANCH  12  15
ATOM     15  C   UNL     1      -1.419   2.874   8.588  0.00  0.00    -0.026 A 
ATOM     16  C   UNL     1      -1.165   3.419   9.833  0.00  0.00    +0.005 A 
ATOM     17  C   UNL     1       0.063   3.996  10.099  0.00  0.00    +0.002 A 
ATOM     18  C   UNL     1       1.034   4.037   9.116  0.00  0.00    +0.020 A 
ATOM     19  C   UNL     1       0.779   3.497   7.869  0.00  0.00    +0.041 A 
ATOM     20  C   UNL     1      -0.448   2.915   7.605  0.00  0.00    +0.025 A 
ATOM     21 CL   UNL     1       1.999   3.549   6.634  0.00  0.00    -0.084 Cl
ENDBRANCH  12  15
BRANCH   1  23
ATOM     22  N   UNL     1      -0.036  -0.115   1.821  0.00  0.00    -0.309 N 
ATOM     23  C   UNL     1      -0.073  -0.518   3.106  0.00  0.00    +0.244 C 
ATOM     24  O   UNL     1       0.537  -1.513   3.448  0.00  0.00    -0.270 OA
ATOM     25  H   UNL     1      -0.588   0.785   1.511  0.00  0.00    +0.149 HD
BRANCH  22  26
ATOM     26  C   UNL     1       0.738  -0.874   0.836  0.00  0.00    +0.070 C 
ATOM     27  C   UNL     1       2.197  -0.413   0.869  0.00  0.00    +0.028 C 
BRANCH  26  29
ATOM     28  C   UNL     1      -1.257  -1.211  -0.630  0.00  0.00    +0.005 C 
ATOM     29  C   UNL     1       0.160  -0.637  -0.560  0.00  0.00    +0.018 C 
ENDBRANCH  26  29
ENDBRANCH  22  26
ENDBRANCH   1  23
TORSDOF 4
