REMARK  Name = ZINC43265689
REMARK  3 active torsions:
REMARK  status: ('A' for Active; 'I' for Inactive)
REMARK    1  A    between atoms: C_8  and  C_12
REMARK    2  A    between atoms: C_12  and  N_13
REMARK    3  A    between atoms: N_16  and  C_17
REMARK                            x       y       z     vdW  Elec       q    Type
REMARK                         _______ _______ _______ _____ _____    ______ ____
ROOT
ATOM      1  N   UNL     1       4.249  -4.765   1.910  0.00  0.00    -0.299 N 
ATOM      2  C   UNL     1       4.423  -6.094   1.772  0.00  0.00    +0.304 C 
ATOM      3  O   UNL     1       3.743  -6.867   2.419  0.00  0.00    -0.253 OA
ATOM      4  N   UNL     1       5.351  -6.567   0.916  0.00  0.00    -0.265 N 
ATOM      5  H   UNL     1       4.792  -4.148   1.393  0.00  0.00    +0.150 HD
ATOM      6  H   UNL     1       5.842  -5.954   0.346  0.00  0.00    +0.157 HD
ENDROOT
BRANCH   4   7
ATOM      7  C   UNL     1       5.607  -7.944   0.850  0.00  0.00    +0.106 A 
ATOM      8  C   UNL     1       6.565  -8.514   1.679  0.00  0.00    +0.147 A 
ATOM      9  C   UNL     1       6.815  -9.874   1.612  0.00  0.00    +0.040 A 
ATOM     10  C   UNL     1       6.113 -10.664   0.720  0.00  0.00    +0.006 A 
ATOM     11  C   UNL     1       5.159 -10.099  -0.106  0.00  0.00    +0.040 A 
ATOM     12  C   UNL     1       4.899  -8.742  -0.040  0.00  0.00    +0.147 A 
ATOM     13  F   UNL     1       3.963  -8.192  -0.844  0.00  0.00    -0.203 F 
ATOM     14  F   UNL     1       7.253  -7.743   2.550  0.00  0.00    -0.203 F 
ENDBRANCH   4   7
BRANCH   1  15
ATOM     15  C   UNL     1       3.241  -4.251   2.840  0.00  0.00    +0.113 C 
BRANCH  15  23
ATOM     16  C   UNL     1       1.315   1.409   4.498  0.00  0.00    +0.000 A 
ATOM     17  C   UNL     1       1.616   2.010   3.289  0.00  0.00    +0.004 A 
ATOM     18  C   UNL     1       2.142   1.258   2.259  0.00  0.00    +0.046 A 
ATOM     19  C   UNL     1       2.370  -0.103   2.430  0.00  0.00    +0.124 A 
ATOM     20  C   UNL     1       2.064  -0.703   3.640  0.00  0.00    -0.005 A 
ATOM     21  C   UNL     1       1.539   0.057   4.672  0.00  0.00    +0.007 A 
ATOM     22  C   UNL     1       2.285  -2.177   3.864  0.00  0.00    +0.047 C 
ATOM     23  C   UNL     1       3.248  -2.721   2.805  0.00  0.00    +0.048 C 
ATOM     24  C   UNL     1       2.778  -2.232   1.430  0.00  0.00    +0.234 C 
ATOM     25  O   UNL     1       2.894  -0.808   1.394  0.00  0.00    -0.491 OA
ENDBRANCH  15  23
ENDBRANCH   1  15
TORSDOF 3
