REMARK  Name = ZINC38546721
REMARK  8 active torsions:
REMARK  status: ('A' for Active; 'I' for Inactive)
REMARK    1  A    between atoms: C_1  and  C_2
REMARK    2  A    between atoms: C_3  and  C_29
REMARK    3  A    between atoms: C_5  and  N_21
REMARK    4  A    between atoms: C_6  and  C_7
REMARK    5  A    between atoms: C_7  and  C_9
REMARK    6  A    between atoms: C_7  and  N_14
REMARK    7  A    between atoms: C_17  and  C_20
REMARK    8  A    between atoms: C_22  and  C_24
REMARK                            x       y       z     vdW  Elec       q    Type
REMARK                         _______ _______ _______ _____ _____    ______ ____
ROOT
ATOM      1  C   UNL     1      -0.474   2.348   0.843  0.00  0.00    +0.045 C 
ATOM      2  C   UNL     1      -0.395   0.943   0.303  0.00  0.00    -0.037 A 
ATOM      3  C   UNL     1      -0.537   0.707  -1.023  0.00  0.00    -0.008 A 
ATOM      4  S   UNL     1      -0.362  -1.067  -1.108  0.00  0.00    -0.078 S 
ATOM      5  C   UNL     1      -0.111  -1.380   0.632  0.00  0.00    +0.074 A 
ATOM      6  C   UNL     1      -0.171  -0.123   1.155  0.00  0.00    -0.025 A 
ATOM      7  C   UNL     1      -0.781   1.690  -2.139  0.00  0.00    +0.052 C 
ENDROOT
BRANCH   5   8
ATOM      8  N   UNL     1       0.099  -2.596   1.286  0.00  0.00    -0.275 N 
ATOM      9  C   UNL     1       0.010  -3.754   0.601  0.00  0.00    +0.255 C 
ATOM     10  O   UNL     1      -0.252  -3.739  -0.588  0.00  0.00    -0.269 OA
ATOM     11  H   UNL     1       0.307  -2.608   2.233  0.00  0.00    +0.156 HD
BRANCH   9  12
ATOM     12  C   UNL     1       0.230  -5.030   1.287  0.00  0.00    +0.074 A 
ATOM     13  C   UNL     1       0.191  -6.317   0.772  0.00  0.00    +0.021 A 
ATOM     14  C   UNL     1       0.441  -7.327   1.670  0.00  0.00    +0.008 A 
ATOM     15  C   UNL     1       0.702  -7.010   2.963  0.00  0.00    +0.046 A 
ATOM     16  S   UNL     1       0.623  -5.332   2.999  0.00  0.00    -0.092 S 
ENDBRANCH   9  12
ENDBRANCH   5   8
BRANCH   6  17
ATOM     17  C   UNL     1      -0.001   0.100   2.636  0.00  0.00    -0.004 C 
BRANCH  17  18
ATOM     18  N   UNL     1      -0.800  -0.887   3.374  0.00  0.00    +0.387 N 
ATOM     19  C   UNL     1      -0.740  -0.588   4.810  0.00  0.00    -0.077 C 
ATOM     20  C   UNL     1      -1.503  -1.660   5.591  0.00  0.00    -0.015 C 
ATOM     21  C   UNL     1      -2.963  -1.676   5.132  0.00  0.00    -0.018 C 
ATOM     22  C   UNL     1      -3.010  -1.915   3.620  0.00  0.00    -0.015 C 
ATOM     23  C   UNL     1      -2.192  -0.834   2.912  0.00  0.00    -0.077 C 
ATOM     24  C   UNL     1      -3.714  -2.798   5.851  0.00  0.00    +0.007 C 
ATOM     25  H   UNL     1      -0.427  -1.811   3.210  0.00  0.00    -0.080 HD
ENDBRANCH  17  18
BRANCH  17  26
ATOM     26  C   UNL     1       1.452  -0.052   3.004  0.00  0.00    -0.050 A 
ATOM     27  C   UNL     1       2.302   1.037   2.970  0.00  0.00    +0.010 A 
ATOM     28  C   UNL     1       3.604   0.866   3.307  0.00  0.00    +0.045 A 
ATOM     29  S   UNL     1       3.660  -0.877   3.688  0.00  0.00    -0.105 S 
ATOM     30  C   UNL     1       1.944  -1.259   3.378  0.00  0.00    +0.047 A 
ENDBRANCH  17  26
ENDBRANCH   6  17
TORSDOF 5
