REMARK  Name = ZINC34740669
REMARK  11 active torsions:
REMARK  status: ('A' for Active; 'I' for Inactive)
REMARK    1  A    between atoms: C_1  and  C_2
REMARK    2  A    between atoms: C_2  and  C_3
REMARK    3  A    between atoms: C_2  and  N_4
REMARK    4  A    between atoms: N_4  and  C_5
REMARK    5  A    between atoms: C_5  and  C_6
REMARK    6  A    between atoms: N_9  and  C_19
REMARK    7  A    between atoms: C_11  and  C_13
REMARK    8  A    between atoms: C_19  and  C_20
REMARK    9  A    between atoms: C_25  and  C_27
REMARK   10  A    between atoms: C_27  and  O_28
REMARK   11  A    between atoms: O_28  and  C_29
REMARK                            x       y       z     vdW  Elec       q    Type
REMARK                         _______ _______ _______ _____ _____    ______ ____
ROOT
ATOM      1  C   UNL     1      -1.487  -2.840  -0.827  0.00  0.00    +0.029 C 
ATOM      2  C   UNL     1      -2.471  -3.273   0.281  0.00  0.00    +0.090 C 
ATOM      3  N   UNL     1      -3.593  -3.920  -0.446  0.00  0.00    -0.297 NA
ATOM      4  C   UNL     1      -2.930  -4.692  -1.528  0.00  0.00    +0.093 C 
ATOM      5  C   UNL     1      -1.786  -3.774  -2.019  0.00  0.00    +0.039 C 
ENDROOT
BRANCH   5   6
ATOM      6  C   UNL     1      -0.568  -4.590  -2.362  0.00  0.00    -0.043 A 
ATOM      7  C   UNL     1      -0.019  -5.443  -1.423  0.00  0.00    +0.004 A 
ATOM      8  C   UNL     1       1.099  -6.192  -1.738  0.00  0.00    +0.000 A 
ATOM      9  C   UNL     1       1.668  -6.089  -2.994  0.00  0.00    +0.000 A 
ATOM     10  C   UNL     1       1.119  -5.237  -3.934  0.00  0.00    +0.000 A 
ATOM     11  C   UNL     1      -0.002  -4.492  -3.620  0.00  0.00    +0.004 A 
ENDBRANCH   5   6
BRANCH   1  12
ATOM     12  C   UNL     1      -1.736  -1.382  -1.219  0.00  0.00    +0.113 C 
BRANCH  12  13
ATOM     13  N   UNL     1      -1.365  -0.507  -0.104  0.00  0.00    -0.297 N 
ATOM     14  C   UNL     1      -2.282  -0.177   0.827  0.00  0.00    +0.242 C 
ATOM     15  O   UNL     1      -3.437  -0.521   0.689  0.00  0.00    -0.273 OA
BRANCH  13  17
ATOM     16  C   UNL     1       0.991  -1.157  -0.023  0.00  0.00    +0.028 C 
ATOM     17  C   UNL     1       0.002   0.009  -0.001  0.00  0.00    +0.070 C 
ATOM     18  C   UNL     1       0.285   0.940  -1.182  0.00  0.00    +0.028 C 
ENDBRANCH  13  17
BRANCH  14  19
ATOM     19  C   UNL     1      -1.872   0.618   2.040  0.00  0.00    +0.255 C 
BRANCH  19  20
ATOM     20  O   UNL     1      -2.985   0.740   2.928  0.00  0.00    -0.374 OA
ATOM     21  C   UNL     1      -2.701   1.481   4.116  0.00  0.00    +0.194 C 
ENDBRANCH  19  20
ENDBRANCH  14  19
ENDBRANCH  12  13
ENDBRANCH   1  12
BRANCH   3  22
ATOM     22  C   UNL     1      -4.354  -4.808   0.443  0.00  0.00    +0.126 C 
BRANCH  22  23
ATOM     23  C   UNL     1      -5.616  -5.252  -0.251  0.00  0.00    +0.004 A 
ATOM     24  C   UNL     1      -5.822  -6.339  -1.034  0.00  0.00    +0.012 A 
ATOM     25  C   UNL     1      -7.079  -6.550  -1.571  0.00  0.00    +0.008 A 
ATOM     26  C   UNL     1      -8.067  -5.664  -1.298  0.00  0.00    +0.045 A 
ATOM     27  S   UNL     1      -7.229  -4.488  -0.248  0.00  0.00    -0.100 S 
ENDBRANCH  22  23
ENDBRANCH   3  22
TORSDOF 8
