REMARK  Name = ZINC20080300
REMARK  9 active torsions:
REMARK  status: ('A' for Active; 'I' for Inactive)
REMARK    1  A    between atoms: C_1  and  C_2
REMARK    2  A    between atoms: C_5  and  C_41
REMARK    3  A    between atoms: C_6  and  N_8
REMARK    4  A    between atoms: N_11  and  C_14
REMARK    5  A    between atoms: C_14  and  C_16
REMARK    6  A    between atoms: C_14  and  C_30
REMARK    7  A    between atoms: C_21  and  O_28
REMARK    8  A    between atoms: O_28  and  C_29
REMARK    9  A    between atoms: N_34  and  C_35
REMARK                            x       y       z     vdW  Elec       q    Type
REMARK                         _______ _______ _______ _____ _____    ______ ____
ROOT
ATOM      1  C   UNL     1       1.456   0.087   8.574  0.00  0.00    +0.162 C 
ENDROOT
BRANCH   1   2
ATOM      2  C   UNL     1       0.935   0.331   7.181  0.00  0.00    +0.042 A 
ATOM      3  C   UNL     1       1.583  -0.203   6.114  0.00  0.00    +0.021 A 
ATOM      4  C   UNL     1       1.051   0.051   4.775  0.00  0.00    -0.001 A 
ATOM      5  C   UNL     1       1.678  -0.472   3.638  0.00  0.00    +0.013 A 
ATOM      6  C   UNL     1       1.157  -0.223   2.402  0.00  0.00    +0.046 A 
ATOM      7  C   UNL     1       0.011   0.559   2.261  0.00  0.00    +0.122 A 
ATOM      8  C   UNL     1      -0.622   1.086   3.373  0.00  0.00    +0.072 A 
ATOM      9  C   UNL     1      -0.110   0.838   4.640  0.00  0.00    +0.053 A 
ATOM     10  N   UNL     1      -0.721   1.350   5.765  0.00  0.00    -0.322 N 
ATOM     11  H   UNL     1      -1.627   1.965   5.666  0.00  0.00    +0.169 HD
ATOM     12  C   UNL     1      -0.224   1.111   6.991  0.00  0.00    +0.254 A 
ATOM     13  O   UNL     1      -0.790   1.580   7.963  0.00  0.00    -0.268 OA
BRANCH   7  14
ATOM     14  O   UNL     1      -0.490   0.802   1.023  0.00  0.00    -0.495 OA
ATOM     15  C   UNL     1       0.210   0.230  -0.084  0.00  0.00    +0.277 C 
ENDBRANCH   7  14
ENDBRANCH   1   2
BRANCH   1  19
ATOM     16  N   UNL     1      -0.850  -2.401  11.092  0.00  0.00    -0.327 N 
ATOM     17  C   UNL     1      -1.303  -2.213   9.707  0.00  0.00    +0.120 C 
ATOM     18  C   UNL     1      -0.134  -1.718   8.853  0.00  0.00    +0.104 C 
ATOM     19  N   UNL     1       0.380  -0.460   9.411  0.00  0.00    -0.286 NA
ATOM     20  C   UNL     1       0.833  -0.647  10.796  0.00  0.00    +0.104 C 
ATOM     21  C   UNL     1      -0.336  -1.142  11.650  0.00  0.00    +0.120 C 
BRANCH  16  27
ATOM     22  C   UNL     1      -5.360  -1.972  12.997  0.00  0.00    +0.044 C 
ATOM     23  C   UNL     1      -4.071  -2.734  12.829  0.00  0.00    -0.049 A 
ATOM     24  C   UNL     1      -3.901  -3.951  13.463  0.00  0.00    +0.004 A 
ATOM     25  C   UNL     1      -2.719  -4.654  13.312  0.00  0.00    +0.005 A 
ATOM     26  C   UNL     1      -1.707  -4.145  12.523  0.00  0.00    -0.029 A 
ATOM     27  C   UNL     1      -1.873  -2.921  11.888  0.00  0.00    +0.033 A 
ATOM     28  C   UNL     1      -3.061  -2.217  12.042  0.00  0.00    +0.026 A 
ATOM     29  C   UNL     1      -0.422  -4.914  12.354  0.00  0.00    +0.045 C 
ENDBRANCH  16  27
ENDBRANCH   1  19
BRANCH   1  30
ATOM     30  C   UNL     1       1.939   1.387   9.163  0.00  0.00    +0.173 A 
ATOM     31  N   UNL     1       1.195   2.365   9.618  0.00  0.00    -0.111 NA
ATOM     32  N   UNL     1       1.977   3.299  10.037  0.00  0.00    -0.023 NA
ATOM     33  N   UNL     1       3.201   2.942   9.863  0.00  0.00    -0.044 NA
ATOM     34  N   UNL     1       3.220   1.767   9.331  0.00  0.00    -0.224 N 
BRANCH  34  35
ATOM     35  C   UNL     1       4.411   0.992   8.973  0.00  0.00    +0.111 C 
ATOM     36  C   UNL     1       5.250   0.739  10.227  0.00  0.00    +0.027 C 
ATOM     37  C   UNL     1       6.494  -0.070   9.853  0.00  0.00    +0.002 C 
ATOM     38  C   UNL     1       7.324   0.713   8.833  0.00  0.00    +0.000 C 
ATOM     39  C   UNL     1       6.484   0.966   7.579  0.00  0.00    +0.002 C 
ATOM     40  C   UNL     1       5.240   1.775   7.953  0.00  0.00    +0.027 C 
ENDBRANCH  34  35
ENDBRANCH   1  30
TORSDOF 6
