REMARK  Name = ZINC06015014
REMARK  13 active torsions:
REMARK  status: ('A' for Active; 'I' for Inactive)
REMARK    1  A    between atoms: C_1  and  C_2
REMARK    2  A    between atoms: C_2  and  C_3
REMARK    3  A    between atoms: C_2  and  C_4
REMARK    4  A    between atoms: C_2  and  N_5
REMARK    5  A    between atoms: C_6  and  C_10
REMARK    6  A    between atoms: C_10  and  C_12
REMARK    7  A    between atoms: C_10  and  N_67
REMARK    8  A    between atoms: C_16  and  O_24
REMARK    9  A    between atoms: O_24  and  C_25
REMARK   10  A    between atoms: C_26  and  C_27
REMARK   11  A    between atoms: C_26  and  N_67
REMARK   12  A    between atoms: C_34  and  C_35
REMARK   13  A    between atoms: C_34  and  N_67
REMARK                            x       y       z     vdW  Elec       q    Type
REMARK                         _______ _______ _______ _____ _____    ______ ____
ROOT
ATOM      1  C   UNL     1      -1.091  -0.197   0.113  0.00  0.00    +0.040 C 
ENDROOT
BRANCH   1   2
ATOM      2  C   UNL     1      -0.172   0.993   0.021  0.00  0.00    +0.011 A 
ATOM      3  C   UNL     1       1.171   0.808  -0.020  0.00  0.00    +0.017 A 
ATOM      4  C   UNL     1       2.037   1.985  -0.109  0.00  0.00    +0.002 A 
ATOM      5  C   UNL     1       3.429   1.855  -0.155  0.00  0.00    +0.055 A 
ATOM      6  C   UNL     1       4.217   2.985  -0.240  0.00  0.00    +0.121 A 
ATOM      7  C   UNL     1       3.631   4.249  -0.279  0.00  0.00    +0.047 A 
ATOM      8  C   UNL     1       2.262   4.389  -0.234  0.00  0.00    +0.030 A 
ATOM      9  C   UNL     1       1.450   3.263  -0.149  0.00  0.00    +0.049 A 
ATOM     10  N   UNL     1       0.076   3.383  -0.104  0.00  0.00    -0.322 N 
ATOM     11  H   UNL     1      -0.341   4.292  -0.132  0.00  0.00    +0.169 HD
ATOM     12  C   UNL     1      -0.711   2.296  -0.022  0.00  0.00    +0.251 A 
ATOM     13  O   UNL     1      -1.921   2.440   0.011  0.00  0.00    -0.268 OA
BRANCH   6  14
ATOM     14  O   UNL     1       5.570   2.865  -0.285  0.00  0.00    -0.495 OA
ATOM     15  C   UNL     1       6.326   4.074  -0.372  0.00  0.00    +0.277 C 
ENDBRANCH   6  14
ENDBRANCH   1   2
BRANCH   1  17
ATOM     16  N   UNL     1      -1.651  -0.975   2.477  0.00  0.00    -0.225 N 
ATOM     17  C   UNL     1      -1.835  -0.158   1.424  0.00  0.00    +0.143 A 
ATOM     18  N   UNL     1      -2.789   0.676   1.757  0.00  0.00    -0.115 NA
ATOM     19  N   UNL     1      -3.169   0.390   2.954  0.00  0.00    -0.023 NA
ATOM     20  N   UNL     1      -2.481  -0.606   3.394  0.00  0.00    -0.043 NA
BRANCH  16  22
ATOM     21  C   UNL     1       0.717  -1.549   2.268  0.00  0.00    +0.036 C 
ATOM     22  C   UNL     1      -0.688  -2.075   2.567  0.00  0.00    +0.059 C 
ATOM     23  C   UNL     1      -0.721  -2.668   3.977  0.00  0.00    +0.036 C 
ATOM     24  C   UNL     1      -1.054  -3.158   1.550  0.00  0.00    +0.036 C 
ENDBRANCH  16  22
ENDBRANCH   1  17
BRANCH   1  25
ATOM     25  N   UNL     1      -2.071  -0.139  -0.992  0.00  0.00    +0.397 N 
ATOM     26  H   UNL     1      -2.721   0.638  -0.821  0.00  0.00    -0.079 HD
BRANCH  25  27
ATOM     27  C   UNL     1      -1.373   0.093  -2.274  0.00  0.00    -0.041 C 
BRANCH  27  28
ATOM     28  C   UNL     1      -2.397   0.416  -3.332  0.00  0.00    -0.064 A 
ATOM     29  C   UNL     1      -2.848  -0.576  -4.182  0.00  0.00    +0.004 A 
ATOM     30  C   UNL     1      -3.790  -0.281  -5.150  0.00  0.00    +0.038 A 
ATOM     31  C   UNL     1      -4.274   1.010  -5.274  0.00  0.00    +0.123 A 
ATOM     32  C   UNL     1      -3.817   2.004  -4.425  0.00  0.00    +0.038 A 
ATOM     33  C   UNL     1      -2.879   1.706  -3.455  0.00  0.00    +0.004 A 
ATOM     34  F   UNL     1      -5.191   1.300  -6.222  0.00  0.00    -0.205 F 
ENDBRANCH  27  28
ENDBRANCH  25  27
BRANCH  25  35
ATOM     35  C   UNL     1      -2.838  -1.401  -1.055  0.00  0.00    -0.001 C 
BRANCH  35  36
ATOM     36  C   UNL     1      -3.920  -1.360  -0.007  0.00  0.00    +0.089 A 
ATOM     37  C   UNL     1      -5.116  -0.757  -0.135  0.00  0.00    +0.042 A 
ATOM     38  C   UNL     1      -5.811  -0.966   1.079  0.00  0.00    +0.041 A 
ATOM     39  C   UNL     1      -4.999  -1.684   1.875  0.00  0.00    +0.195 A 
ATOM     40  O   UNL     1      -3.857  -1.925   1.210  0.00  0.00    -0.470 OA
ENDBRANCH  35  36
ENDBRANCH  25  35
ENDBRANCH   1  25
TORSDOF 9
