REMARK  Name = ZINC49524437
REMARK  8 active torsions:
REMARK  status: ('A' for Active; 'I' for Inactive)
REMARK    1  A    between atoms: C_1  and  C_2
REMARK    2  A    between atoms: N_6  and  C_7
REMARK    3  A    between atoms: C_7  and  C_8
REMARK    4  A    between atoms: C_8  and  N_9
REMARK    5  A    between atoms: C_10  and  C_12
REMARK    6  A    between atoms: N_14  and  C_15
REMARK    7  A    between atoms: N_21  and  S_25
REMARK    8  A    between atoms: S_25  and  C_28
REMARK                            x       y       z     vdW  Elec       q    Type
REMARK                         _______ _______ _______ _____ _____    ______ ____
ROOT
ATOM      1  C   UNL     1      -3.954   0.949   8.522  0.00  0.00    +0.036 A 
ATOM      2  C   UNL     1      -2.747   1.087   9.199  0.00  0.00    +0.024 A 
ATOM      3  C   UNL     1      -2.719   1.662  10.453  0.00  0.00    +0.007 A 
ATOM      4  C   UNL     1      -3.889   2.106  11.047  0.00  0.00    -0.025 A 
ATOM      5  C   UNL     1      -5.095   1.973  10.374  0.00  0.00    +0.056 A 
ATOM      6  C   UNL     1      -5.127   1.398   9.110  0.00  0.00    +0.048 A 
ATOM      7  N   UNL     1      -6.290   2.422  10.947  0.00  0.00    -0.202 N 
ATOM      8  C   UNL     1      -6.310   2.756  12.378  0.00  0.00    +0.132 C 
ATOM      9  C   UNL     1      -5.054   3.583  12.683  0.00  0.00    +0.025 C 
ATOM     10  C   UNL     1      -3.819   2.722  12.419  0.00  0.00    +0.038 C 
ENDROOT
BRANCH   1  13
ATOM     11  C   UNL     1      -3.144  -0.646   6.957  0.00  0.00    +0.303 C 
ATOM     12  O   UNL     1      -2.306  -0.996   7.762  0.00  0.00    -0.265 OA
ATOM     13  N   UNL     1      -3.983   0.366   7.253  0.00  0.00    -0.278 N 
ATOM     14  H   UNL     1      -4.608   0.689   6.585  0.00  0.00    +0.155 HD
BRANCH  11  16
ATOM     15  N   UNL     1      -2.406  -2.350   5.341  0.00  0.00    -0.306 N 
ATOM     16  C   UNL     1      -3.245  -1.338   5.637  0.00  0.00    +0.299 C 
ATOM     17  O   UNL     1      -4.082  -0.989   4.831  0.00  0.00    -0.265 OA
ATOM     18  H   UNL     1      -1.736  -2.629   5.985  0.00  0.00    +0.149 HD
BRANCH  15  19
ATOM     19  C   UNL     1      -2.505  -3.029   4.046  0.00  0.00    +0.126 C 
BRANCH  19  20
ATOM     20  C   UNL     1      -1.446  -4.130   3.965  0.00  0.00    +0.141 C 
BRANCH  20  26
ATOM     21  C   UNL     1      -0.105  -3.195   1.333  0.00  0.00    +0.084 C 
ATOM     22  C   UNL     1      -0.968  -4.417   1.514  0.00  0.00    +0.084 A 
ATOM     23  N   UNL     1      -1.278  -5.274   0.581  0.00  0.00    -0.350 N 
ATOM     24  C   UNL     1      -2.059  -6.232   1.101  0.00  0.00    +0.101 A 
ATOM     25  C   UNL     1      -2.241  -5.957   2.407  0.00  0.00    +0.104 A 
ATOM     26  N   UNL     1      -1.545  -4.809   2.671  0.00  0.00    -0.335 N 
ATOM     27  H   UNL     1      -0.988  -5.226  -0.344  0.00  0.00    +0.166 HD
ENDBRANCH  20  26
ENDBRANCH  19  20
ENDBRANCH  15  19
ENDBRANCH  11  16
ENDBRANCH   1  13
BRANCH   7  28
ATOM     28  S   UNL     1      -7.659   2.573  10.029  0.00  0.00    +0.081 S 
ATOM     29  O   UNL     1      -8.559   3.384  10.772  0.00  0.00    -0.149 OA
ATOM     30  O   UNL     1      -7.232   2.914   8.717  0.00  0.00    -0.149 OA
BRANCH  28  31
ATOM     31  C   UNL     1      -8.393   0.975   9.920  0.00  0.00    +0.146 A 
ATOM     32  C   UNL     1      -9.314   0.402  10.733  0.00  0.00    +0.036 A 
ATOM     33  C   UNL     1      -9.753  -0.878  10.451  0.00  0.00    +0.010 A 
ATOM     34  C   UNL     1      -9.249  -1.522   9.370  0.00  0.00    +0.047 A 
ATOM     35  S   UNL     1      -8.124  -0.306   8.706  0.00  0.00    -0.077 S 
ENDBRANCH  28  31
ENDBRANCH   7  28
TORSDOF 7
