REMARK  Name = ZINC08889235
REMARK  7 active torsions:
REMARK  status: ('A' for Active; 'I' for Inactive)
REMARK    1  A    between atoms: C_1  and  C_2
REMARK    2  A    between atoms: C_6  and  C_13
REMARK    3  A    between atoms: C_13  and  O_14
REMARK    4  A    between atoms: O_14  and  C_15
REMARK    5  A    between atoms: C_15  and  C_17
REMARK    6  A    between atoms: C_17  and  C_18
REMARK    7  A    between atoms: C_18  and  C_19
REMARK                            x       y       z     vdW  Elec       q    Type
REMARK                         _______ _______ _______ _____ _____    ______ ____
ROOT
ATOM      1  C   UNL     1      -2.136   8.216  -4.642  0.00  0.00    +0.128 C 
ENDROOT
BRANCH   1   2
ATOM      2  C   UNL     1      -2.439   9.223  -5.721  0.00  0.00    +0.308 C 
ATOM      3  O   UNL     1      -2.581   8.860  -6.864  0.00  0.00    -0.251 OA
BRANCH   2   4
ATOM      4  O   UNL     1      -2.551  10.524  -5.412  0.00  0.00    -0.460 OA
BRANCH   4   5
ATOM      5  C   UNL     1      -2.844  11.438  -6.501  0.00  0.00    +0.268 C 
BRANCH   5  11
ATOM      6  C   UNL     1      -4.057  17.293  -9.412  0.00  0.00    +0.044 C 
ATOM      7  C   UNL     1      -3.762  16.126  -8.505  0.00  0.00    -0.047 A 
ATOM      8  C   UNL     1      -3.687  14.846  -9.036  0.00  0.00    +0.004 A 
ATOM      9  C   UNL     1      -3.420  13.775  -8.229  0.00  0.00    +0.012 A 
ATOM     10  C   UNL     1      -3.214  13.973  -6.861  0.00  0.00    +0.024 A 
ATOM     11  C   UNL     1      -2.933  12.845  -5.968  0.00  0.00    +0.007 A 
ATOM     12  C   UNL     1      -2.749  13.102  -4.648  0.00  0.00    +0.099 A 
ATOM     13  C   UNL     1      -2.837  14.429  -4.173  0.00  0.00    +0.338 A 
ATOM     14  O   UNL     1      -2.670  14.647  -2.987  0.00  0.00    -0.245 OA
ATOM     15  O   UNL     1      -3.101  15.456  -4.996  0.00  0.00    -0.422 OA
ATOM     16  C   UNL     1      -3.294  15.268  -6.319  0.00  0.00    +0.140 A 
ATOM     17  C   UNL     1      -3.567  16.341  -7.157  0.00  0.00    +0.050 A 
ENDBRANCH   5  11
ENDBRANCH   4   5
ENDBRANCH   2   4
ENDBRANCH   1   2
BRANCH   1  18
ATOM     18  C   UNL     1      -2.062   6.816  -5.257  0.00  0.00    +0.085 C 
BRANCH  18  19
ATOM     19  C   UNL     1      -1.759   5.809  -4.178  0.00  0.00    +0.111 A 
ATOM     20  N   UNL     1      -1.651   4.504  -4.524  0.00  0.00    -0.310 N 
ATOM     21  H   UNL     1      -1.773   4.261  -5.456  0.00  0.00    +0.170 HD
ATOM     22  C   UNL     1      -1.382   3.522  -3.632  0.00  0.00    +0.260 A 
ATOM     23  O   UNL     1      -1.288   2.352  -3.962  0.00  0.00    -0.267 OA
ATOM     24  C   UNL     1      -1.213   3.947  -2.271  0.00  0.00    +0.075 A 
ATOM     25  C   UNL     1      -0.921   3.104  -1.126  0.00  0.00    -0.023 A 
ATOM     26  C   UNL     1      -0.803   3.725   0.071  0.00  0.00    -0.004 A 
ATOM     27  S   UNL     1      -1.074   5.446  -0.270  0.00  0.00    -0.073 S 
ATOM     28  C   UNL     1      -1.343   5.329  -2.010  0.00  0.00    +0.116 A 
ATOM     29  N   UNL     1      -1.610   6.237  -2.944  0.00  0.00    -0.227 NA
ATOM     30  C   UNL     1      -0.510   3.093   1.397  0.00  0.00    +0.043 C 
ATOM     31  C   UNL     1      -0.726   1.578   1.270  0.00  0.00    +0.005 C 
ATOM     32  C   UNL     1      -0.013   1.086   0.008  0.00  0.00    +0.005 C 
ATOM     33  C   UNL     1      -0.749   1.591  -1.233  0.00  0.00    +0.037 C 
ENDBRANCH  18  19
ENDBRANCH   1  18
TORSDOF 6
