REMARK  Name = ZINC03647345
REMARK  6 active torsions:
REMARK  status: ('A' for Active; 'I' for Inactive)
REMARK    1  A    between atoms: C_1  and  C_2
REMARK    2  A    between atoms: C_5  and  C_7
REMARK    3  A    between atoms: C_16  and  C_20
REMARK    4  A    between atoms: C_20  and  C_21
REMARK    5  A    between atoms: C_20  and  C_22
REMARK    6  A    between atoms: C_20  and  C_23
REMARK                            x       y       z     vdW  Elec       q    Type
REMARK                         _______ _______ _______ _____ _____    ______ ____
ROOT
ATOM      1  C   UNL     1       1.684  -3.245  -0.023  0.00  0.00    +0.227 C 
ATOM      2  N   UNL     1       2.932  -2.858  -0.704  0.00  0.00    -0.314 N 
ATOM      3  C   UNL     1       2.925  -2.905  -2.076  0.00  0.00    +0.080 A 
ATOM      4  C   UNL     1       2.049  -3.730  -2.796  0.00  0.00    +0.068 A 
ATOM      5  C   UNL     1       2.159  -3.654  -4.243  0.00  0.00    -0.023 A 
ATOM      6  C   UNL     1       3.103  -2.796  -4.689  0.00  0.00    -0.004 A 
ATOM      7  S   UNL     1       3.824  -2.110  -3.223  0.00  0.00    -0.078 S 
ATOM      8  C   UNL     1       3.450  -2.500  -6.115  0.00  0.00    +0.046 C 
ATOM      9  C   UNL     1       2.321  -3.036  -7.008  0.00  0.00    -0.000 C 
ATOM     10  C   UNL     1       1.989  -4.468  -6.580  0.00  0.00    +0.009 C 
ATOM     11  C   UNL     1       1.304  -4.457  -5.212  0.00  0.00    +0.037 C 
ATOM     12  C   UNL     1       1.121  -4.588  -2.024  0.00  0.00    +0.248 C 
ATOM     13  O   UNL     1       0.460  -5.455  -2.565  0.00  0.00    -0.270 OA
ATOM     14  N   UNL     1       1.039  -4.367  -0.696  0.00  0.00    -0.287 N 
ATOM     15  H   UNL     1       3.719  -2.583  -0.208  0.00  0.00    +0.149 HD
ATOM     16  H   UNL     1       0.522  -4.989  -0.159  0.00  0.00    +0.151 HD
ENDROOT
BRANCH   1  21
ATOM     17  C   UNL     1      -0.018   1.503   0.010  0.00  0.00    +0.086 C 
ATOM     18  C   UNL     1       0.002  -0.004   0.002  0.00  0.00    +0.102 A 
ATOM     19  C   UNL     1      -1.078  -0.805   0.003  0.00  0.00    +0.045 A 
ATOM     20  C   UNL     1      -0.601  -2.136  -0.007  0.00  0.00    +0.048 A 
ATOM     21  C   UNL     1       0.742  -2.069  -0.013  0.00  0.00    +0.143 A 
ATOM     22  O   UNL     1       1.102  -0.775  -0.013  0.00  0.00    -0.461 OA
ENDBRANCH   1  21
BRANCH   9  23
ATOM     23  C   UNL     1       2.776  -3.028  -8.469  0.00  0.00    -0.035 C 
ATOM     24  C   UNL     1       4.012  -3.916  -8.624  0.00  0.00    +0.011 C 
ATOM     25  C   UNL     1       1.650  -3.562  -9.357  0.00  0.00    +0.011 C 
ATOM     26  C   UNL     1       3.120  -1.597  -8.888  0.00  0.00    +0.011 C 
ENDBRANCH   9  23
TORSDOF 2
