REMARK  Name = ZINC23098480
REMARK  11 active torsions:
REMARK  status: ('A' for Active; 'I' for Inactive)
REMARK    1  A    between atoms: C_1  and  C_2
REMARK    2  A    between atoms: C_2  and  C_3
REMARK    3  A    between atoms: C_2  and  C_4
REMARK    4  A    between atoms: C_4  and  C_6
REMARK    5  A    between atoms: C_4  and  N_29
REMARK    6  A    between atoms: C_6  and  N_7
REMARK    7  A    between atoms: C_8  and  C_10
REMARK    8  A    between atoms: C_14  and  S_16
REMARK    9  A    between atoms: S_16  and  N_19
REMARK   10  A    between atoms: N_29  and  C_30
REMARK   11  A    between atoms: N_29  and  C_31
REMARK                            x       y       z     vdW  Elec       q    Type
REMARK                         _______ _______ _______ _____ _____    ______ ____
ROOT
ATOM      1  C   UNL     1       1.996   3.802  -2.202  0.00  0.00    +0.039 A 
ATOM      2  C   UNL     1       3.386   3.740  -2.318  0.00  0.00    +0.013 A 
ATOM      3  C   UNL     1       3.979   2.620  -2.863  0.00  0.00    +0.003 A 
ATOM      4  C   UNL     1       3.201   1.560  -3.294  0.00  0.00    +0.028 A 
ATOM      5  C   UNL     1       1.823   1.618  -3.186  0.00  0.00    +0.106 A 
ATOM      6  C   UNL     1       1.216   2.730  -2.638  0.00  0.00    +0.041 A 
ENDROOT
BRANCH   1   8
ATOM      7  N   UNL     1       2.108   6.033  -1.200  0.00  0.00    -0.313 N 
ATOM      8  C   UNL     1       1.353   4.999  -1.620  0.00  0.00    +0.244 C 
ATOM      9  O   UNL     1       0.143   5.051  -1.520  0.00  0.00    -0.270 OA
ATOM     10  H   UNL     1       3.204   5.987  -1.290  0.00  0.00    +0.149 HD
BRANCH   7  11
ATOM     11  C   UNL     1       1.471   7.220  -0.623  0.00  0.00    +0.089 C 
BRANCH  11  12
ATOM     12  C   UNL     1       2.546   8.236  -0.231  0.00  0.00    -0.049 C 
BRANCH  12  13
ATOM     13  N   UNL     1       3.518   7.599   0.666  0.00  0.00    +0.379 N 
ATOM     14  C   UNL     1       4.810   8.298   0.624  0.00  0.00    -0.096 C 
ATOM     15  C   UNL     1       3.002   7.531   2.040  0.00  0.00    -0.096 C 
ATOM     16  H   UNL     1       3.679   6.569   0.314  0.00  0.00    -0.082 HD
ENDBRANCH  12  13
BRANCH  12  18
ATOM     17  C   UNL     1       2.963  10.445   0.860  0.00  0.00    +0.005 C 
ATOM     18  C   UNL     1       1.891   9.420   0.484  0.00  0.00    -0.029 C 
ATOM     19  C   UNL     1       0.865  10.072  -0.444  0.00  0.00    +0.005 C 
ENDBRANCH  12  18
ENDBRANCH  11  12
ENDBRANCH   7  11
ENDBRANCH   1   8
BRANCH   5  20
ATOM     20  S   UNL     1       0.840   0.266  -3.744  0.00  0.00    +0.061 S 
ATOM     21  O   UNL     1      -0.448   0.793  -4.035  0.00  0.00    -0.153 OA
ATOM     22  O   UNL     1       1.615  -0.427  -4.712  0.00  0.00    -0.153 OA
BRANCH  20  23
ATOM     23  N   UNL     1       0.652  -0.764  -2.462  0.00  0.00    -0.172 NA
ATOM     24  C   UNL     1       1.603  -1.861  -2.214  0.00  0.00    +0.114 C 
ATOM     25  C   UNL     1       2.296  -1.580  -0.876  0.00  0.00    +0.052 C 
ATOM     26  C   UNL     1       1.289  -1.219   0.183  0.00  0.00    -0.042 A 
ATOM     27  C   UNL     1       1.679  -1.345   1.511  0.00  0.00    +0.004 A 
ATOM     28  C   UNL     1       0.809  -1.019   2.531  0.00  0.00    +0.000 A 
ATOM     29  C   UNL     1      -0.461  -0.563   2.232  0.00  0.00    +0.000 A 
ATOM     30  C   UNL     1      -0.852  -0.442   0.915  0.00  0.00    +0.005 A 
ATOM     31  C   UNL     1       0.021  -0.772  -0.113  0.00  0.00    -0.028 A 
ATOM     32  C   UNL     1      -0.473  -0.625  -1.530  0.00  0.00    +0.144 C 
ENDBRANCH  20  23
ENDBRANCH   5  20
TORSDOF 7
