REMARK  Name = ZINC33121109
REMARK  6 active torsions:
REMARK  status: ('A' for Active; 'I' for Inactive)
REMARK    1  A    between atoms: C_1  and  C_2
REMARK    2  A    between atoms: C_8  and  C_10
REMARK    3  A    between atoms: C_12  and  N_22
REMARK    4  A    between atoms: C_15  and  N_16
REMARK    5  A    between atoms: N_22  and  S_23
REMARK    6  A    between atoms: S_23  and  C_26
REMARK                            x       y       z     vdW  Elec       q    Type
REMARK                         _______ _______ _______ _____ _____    ______ ____
ROOT
ATOM      1  C   UNL     1      -0.477  -0.737   1.120  0.00  0.00    +0.060 A 
ATOM      2  C   UNL     1      -0.452  -2.135   1.123  0.00  0.00    +0.039 A 
ATOM      3  C   UNL     1       0.065  -2.817   0.036  0.00  0.00    +0.049 A 
ATOM      4  C   UNL     1       0.554  -2.115  -1.062  0.00  0.00    +0.026 A 
ATOM      5  C   UNL     1       0.527  -0.737  -1.077  0.00  0.00    +0.026 A 
ATOM      6  C   UNL     1       0.012  -0.037   0.007  0.00  0.00    +0.042 A 
ENDROOT
BRANCH   1  14
ATOM      7  C   UNL     1      -6.448   0.470   2.436  0.00  0.00    +0.007 C 
ATOM      8  C   UNL     1      -5.085  -0.078   2.863  0.00  0.00    -0.011 C 
ATOM      9  C   UNL     1      -4.204   1.073   3.355  0.00  0.00    +0.022 C 
ATOM     10  C   UNL     1      -2.853   0.516   3.814  0.00  0.00    +0.108 C 
ATOM     11  N   UNL     1      -2.266  -0.266   2.718  0.00  0.00    -0.297 N 
ATOM     12  C   UNL     1      -3.066  -1.335   2.106  0.00  0.00    +0.108 C 
ATOM     13  C   UNL     1      -4.413  -0.761   1.669  0.00  0.00    +0.022 C 
ATOM     14  C   UNL     1      -1.020  -0.003   2.277  0.00  0.00    +0.248 C 
ATOM     15  O   UNL     1      -0.343   0.840   2.835  0.00  0.00    -0.270 OA
ENDBRANCH   1  14
BRANCH   6  16
ATOM     16  N   UNL     1      -0.013   1.354  -0.009  0.00  0.00    -0.333 N 
ATOM     17  C   UNL     1       0.765   1.883  -1.138  0.00  0.00    +0.086 C 
ATOM     18  C   UNL     1       0.778   3.412  -1.074  0.00  0.00    -0.063 C 
ATOM     19  N   UNL     1      -0.603   3.913  -1.109  0.00  0.00    +0.381 N 
ATOM     20  C   UNL     1      -1.381   3.384   0.020  0.00  0.00    -0.063 C 
ATOM     21  C   UNL     1      -1.394   1.855  -0.044  0.00  0.00    +0.086 C 
ATOM     22  H   UNL     1      -0.596   5.011  -1.051  0.00  0.00    -0.086 HD
ATOM     23  H   UNL     1      -1.083   3.598  -2.048  0.00  0.00    -0.086 HD
ENDBRANCH   6  16
BRANCH   3  24
ATOM     24  N   UNL     1       0.096  -4.216   0.041  0.00  0.00    -0.216 N 
ATOM     25  H   UNL     1      -0.785  -4.785   0.373  0.00  0.00    +0.174 HD
BRANCH  24  26
ATOM     26  S   UNL     1       1.460  -5.016  -0.454  0.00  0.00    +0.072 S 
ATOM     27  O   UNL     1       1.191  -6.404  -0.309  0.00  0.00    -0.150 OA
ATOM     28  O   UNL     1       1.841  -4.439  -1.695  0.00  0.00    -0.150 OA
BRANCH  26  29
ATOM     29  C   UNL     1       2.737  -4.628   0.696  0.00  0.00    +0.109 A 
ATOM     30  C   UNL     1       3.556  -3.535   0.481  0.00  0.00    +0.029 A 
ATOM     31  C   UNL     1       4.551  -3.236   1.387  0.00  0.00    +0.006 A 
ATOM     32  C   UNL     1       4.746  -4.030   2.510  0.00  0.00    -0.044 A 
ATOM     33  C   UNL     1       3.933  -5.120   2.723  0.00  0.00    -0.042 A 
ATOM     34  C   UNL     1       2.927  -5.417   1.811  0.00  0.00    +0.032 A 
ATOM     35  C   UNL     1       4.080  -6.020   3.922  0.00  0.00    +0.035 C 
ATOM     36  C   UNL     1       5.450  -5.831   4.570  0.00  0.00    +0.005 C 
ATOM     37  C   UNL     1       5.672  -4.332   4.806  0.00  0.00    +0.005 C 
ATOM     38  C   UNL     1       5.861  -3.654   3.450  0.00  0.00    +0.035 C 
ENDBRANCH  26  29
ENDBRANCH  24  26
ENDBRANCH   3  24
TORSDOF 5
