REMARK  Name = ZINC25582180
REMARK  10 active torsions:
REMARK  status: ('A' for Active; 'I' for Inactive)
REMARK    1  A    between atoms: C_1  and  C_2
REMARK    2  A    between atoms: C_2  and  C_3
REMARK    3  A    between atoms: C_8  and  O_27
REMARK    4  A    between atoms: C_9  and  C_23
REMARK    5  A    between atoms: C_12  and  C_15
REMARK    6  A    between atoms: C_13  and  O_14
REMARK    7  A    between atoms: C_15  and  N_16
REMARK    8  A    between atoms: C_19  and  C_22
REMARK    9  A    between atoms: O_27  and  C_28
REMARK   10  A    between atoms: N_31  and  C_33
REMARK                            x       y       z     vdW  Elec       q    Type
REMARK                         _______ _______ _______ _____ _____    ______ ____
ROOT
ATOM      1  C   UNL     1      -2.369   6.652  -3.229  0.00  0.00    -0.005 A 
ATOM      2  C   UNL     1      -1.941   6.727  -4.524  0.00  0.00    +0.022 A 
ATOM      3  C   UNL     1      -0.622   6.397  -4.838  0.00  0.00    +0.068 A 
ATOM      4  C   UNL     1      -0.122   6.465  -6.221  0.00  0.00    +0.235 A 
ATOM      5  O   UNL     1      -0.844   6.812  -7.141  0.00  0.00    -0.283 OA
ATOM      6  C   UNL     1       1.243   6.123  -6.438  0.00  0.00    +0.222 A 
ATOM      7  C   UNL     1       2.007   5.745  -5.394  0.00  0.00    +0.254 A 
ATOM      8  O   UNL     1       1.541   5.682  -4.140  0.00  0.00    -0.447 OA
ATOM      9  C   UNL     1       0.268   5.993  -3.826  0.00  0.00    +0.144 A 
ATOM     10  C   UNL     1      -0.184   5.917  -2.516  0.00  0.00    +0.021 A 
ATOM     11  C   UNL     1      -1.496   6.248  -2.221  0.00  0.00    +0.125 A 
ENDROOT
BRANCH   7  12
ATOM     12  C   UNL     1       3.447   5.377  -5.649  0.00  0.00    +0.454 C 
ATOM     13  F   UNL     1       4.247   6.519  -5.532  0.00  0.00    -0.163 F 
ATOM     14  F   UNL     1       3.857   4.422  -4.713  0.00  0.00    -0.163 F 
ATOM     15  F   UNL     1       3.572   4.850  -6.939  0.00  0.00    -0.163 F 
ENDBRANCH   7  12
BRANCH   1  17
ATOM     16  C   UNL     1      -3.860   8.471  -2.443  0.00  0.00    +0.009 C 
ATOM     17  C   UNL     1      -3.793   7.008  -2.888  0.00  0.00    +0.035 C 
ENDBRANCH   1  17
BRANCH  11  18
ATOM     18  O   UNL     1      -1.935   6.178  -0.939  0.00  0.00    -0.506 OA
ATOM     19  H   UNL     1      -1.250   5.860  -0.139  0.00  0.00    +0.292 HD
ENDBRANCH  11  18
BRANCH  10  20
ATOM     20  C   UNL     1       0.752   5.481  -1.418  0.00  0.00    -0.036 C 
BRANCH  20  21
ATOM     21  N   UNL     1       0.678   4.023  -1.262  0.00  0.00    +0.383 N 
ATOM     22  C   UNL     1       1.390   3.586  -0.053  0.00  0.00    -0.078 C 
ATOM     23  C   UNL     1       1.417   2.057  -0.000  0.00  0.00    -0.016 C 
ATOM     24  C   UNL     1      -0.019   1.526   0.010  0.00  0.00    -0.018 C 
ATOM     25  C   UNL     1      -0.752   2.034  -1.234  0.00  0.00    -0.016 C 
ATOM     26  C   UNL     1      -0.717   3.564  -1.251  0.00  0.00    -0.078 C 
ATOM     27  C   UNL     1       0.002  -0.004   0.002  0.00  0.00    +0.007 C 
ATOM     28  H   UNL     1       1.176   3.563  -2.128  0.00  0.00    -0.081 HD
ENDBRANCH  20  21
ENDBRANCH  10  20
BRANCH   6  29
ATOM     29  O   UNL     1       1.770   6.169  -7.692  0.00  0.00    -0.445 OA
BRANCH  29  30
ATOM     30  C   UNL     1       1.694   5.046  -8.459  0.00  0.00    +0.166 A 
ATOM     31  C   UNL     1       1.116   3.826  -8.080  0.00  0.00    +0.181 A 
ATOM     32  N   UNL     1       1.233   2.987  -9.078  0.00  0.00    -0.171 NA
ATOM     33  N   UNL     1       1.888   3.640 -10.130  0.00  0.00    -0.236 N 
ATOM     34  C   UNL     1       2.158   4.912  -9.726  0.00  0.00    +0.160 A 
BRANCH  33  35
ATOM     35  C   UNL     1       2.205   3.085 -11.377  0.00  0.00    +0.065 A 
ATOM     36  C   UNL     1       2.854   3.852 -12.335  0.00  0.00    +0.028 A 
ATOM     37  C   UNL     1       3.170   3.300 -13.561  0.00  0.00    +0.002 A 
ATOM     38  C   UNL     1       2.829   1.989 -13.839  0.00  0.00    +0.000 A 
ATOM     39  C   UNL     1       2.177   1.225 -12.889  0.00  0.00    +0.002 A 
ATOM     40  C   UNL     1       1.864   1.769 -11.659  0.00  0.00    +0.028 A 
ENDBRANCH  33  35
ENDBRANCH  29  30
ENDBRANCH   6  29
TORSDOF 8
