REMARK  Name = ZINC21960956
REMARK  15 active torsions:
REMARK  status: ('A' for Active; 'I' for Inactive)
REMARK    1  A    between atoms: C_1  and  C_2
REMARK    2  A    between atoms: C_2  and  N_3
REMARK    3  A    between atoms: N_3  and  C_4
REMARK    4  A    between atoms: N_3  and  C_6
REMARK    5  A    between atoms: C_4  and  C_5
REMARK    6  A    between atoms: C_6  and  C_7
REMARK    7  A    between atoms: C_12  and  C_13
REMARK    8  A    between atoms: C_13  and  N_14
REMARK    9  A    between atoms: C_15  and  C_17
REMARK   10  A    between atoms: C_17  and  N_18
REMARK   11  A    between atoms: C_19  and  C_21
REMARK   12  A    between atoms: C_25  and  S_27
REMARK   13  A    between atoms: S_27  and  N_30
REMARK   14  A    between atoms: N_30  and  C_31
REMARK   15  A    between atoms: N_30  and  C_32
REMARK                            x       y       z     vdW  Elec       q    Type
REMARK                         _______ _______ _______ _____ _____    ______ ____
ROOT
ATOM      1  N   UNL     1       3.270   0.526  -0.051  0.00  0.00    -0.310 N 
ATOM      2  C   UNL     1       2.058  -0.034   0.136  0.00  0.00    +0.230 C 
ATOM      3  O   UNL     1       1.965  -1.227   0.329  0.00  0.00    -0.274 OA
ATOM      4  H   UNL     1       3.355   1.609  -0.226  0.00  0.00    +0.149 HD
ENDROOT
BRANCH   1   5
ATOM      5  C   UNL     1       4.474  -0.307  -0.020  0.00  0.00    +0.139 C 
BRANCH   5  11
ATOM      6  C   UNL     1       6.218   1.298   0.784  0.00  0.00    -0.059 A 
ATOM      7  C   UNL     1       7.332   2.089   0.569  0.00  0.00    +0.002 A 
ATOM      8  C   UNL     1       7.915   2.136  -0.683  0.00  0.00    +0.000 A 
ATOM      9  C   UNL     1       7.385   1.393  -1.721  0.00  0.00    +0.000 A 
ATOM     10  C   UNL     1       6.275   0.598  -1.505  0.00  0.00    +0.005 A 
ATOM     11  C   UNL     1       5.688   0.555  -0.254  0.00  0.00    -0.029 A 
BRANCH   6  12
ATOM     12  C   UNL     1       5.583   1.246   2.149  0.00  0.00    -0.043 C 
BRANCH  12  13
ATOM     13  N   UNL     1       6.019   0.029   2.846  0.00  0.00    +0.382 N 
ATOM     14  H   UNL     1       5.833  -0.827   2.181  0.00  0.00    -0.081 HD
BRANCH  13  16
ATOM     15  C   UNL     1       7.754   1.238   4.081  0.00  0.00    -0.017 C 
ATOM     16  C   UNL     1       7.459   0.074   3.133  0.00  0.00    -0.082 C 
ENDBRANCH  13  16
BRANCH  13  17
ATOM     17  C   UNL     1       5.244  -0.180   4.077  0.00  0.00    -0.082 C 
ATOM     18  C   UNL     1       5.438  -1.617   4.564  0.00  0.00    -0.017 C 
ENDBRANCH  13  17
ENDBRANCH  12  13
ENDBRANCH   6  12
ENDBRANCH   5  11
ENDBRANCH   1   5
BRANCH   2  19
ATOM     19  C   UNL     1       0.820   0.824   0.105  0.00  0.00    +0.200 C 
BRANCH  19  20
ATOM     20  N   UNL     1      -0.360  -0.015   0.332  0.00  0.00    -0.303 N 
ATOM     21  C   UNL     1      -1.589   0.540   0.342  0.00  0.00    +0.245 C 
ATOM     22  O   UNL     1      -1.718   1.736   0.167  0.00  0.00    -0.270 OA
ATOM     23  H   UNL     1      -0.243  -1.096   0.495  0.00  0.00    +0.150 HD
BRANCH  21  24
ATOM     24  C   UNL     1      -2.780  -0.307   0.565  0.00  0.00    +0.039 A 
ATOM     25  C   UNL     1      -2.636  -1.682   0.760  0.00  0.00    +0.013 A 
ATOM     26  C   UNL     1      -3.751  -2.466   0.973  0.00  0.00    +0.003 A 
ATOM     27  C   UNL     1      -5.011  -1.894   0.982  0.00  0.00    +0.028 A 
ATOM     28  C   UNL     1      -5.161  -0.533   0.784  0.00  0.00    +0.106 A 
ATOM     29  C   UNL     1      -4.054   0.263   0.575  0.00  0.00    +0.041 A 
BRANCH  28  30
ATOM     30  S   UNL     1      -6.770   0.185   0.797  0.00  0.00    +0.060 S 
ATOM     31  O   UNL     1      -7.598  -0.686   1.555  0.00  0.00    -0.153 OA
ATOM     32  O   UNL     1      -6.600   1.556   1.132  0.00  0.00    -0.153 OA
BRANCH  30  33
ATOM     33  N   UNL     1      -7.338   0.144  -0.758  0.00  0.00    -0.183 NA
ATOM     34  C   UNL     1      -8.097  -1.016  -1.230  0.00  0.00    +0.131 C 
ATOM     35  C   UNL     1      -7.080   1.269  -1.661  0.00  0.00    +0.131 C 
ENDBRANCH  30  33
ENDBRANCH  28  30
ENDBRANCH  21  24
ENDBRANCH  19  20
ENDBRANCH   2  19
TORSDOF 11
