REMARK  Name = ZINC62516477
REMARK  7 active torsions:
REMARK  status: ('A' for Active; 'I' for Inactive)
REMARK    1  A    between atoms: C_1  and  C_2
REMARK    2  A    between atoms: C_2  and  C_3
REMARK    3  A    between atoms: C_2  and  C_4
REMARK    4  A    between atoms: C_2  and  C_5
REMARK    5  A    between atoms: C_7  and  C_14
REMARK    6  A    between atoms: C_20  and  C_23
REMARK    7  A    between atoms: C_23  and  O_24
REMARK                            x       y       z     vdW  Elec       q    Type
REMARK                         _______ _______ _______ _____ _____    ______ ____
ROOT
ATOM      1  C   UNL     1       0.706  -0.484  -1.241  0.00  0.00    +0.120 A 
ATOM      2  N   UNL     1       0.169  -1.228  -2.165  0.00  0.00    -0.226 NA
ATOM      3  C   UNL     1       1.079  -1.490  -3.126  0.00  0.00    +0.151 A 
ATOM      4  C   UNL     1       2.267  -0.848  -2.750  0.00  0.00    +0.078 A 
ATOM      5  N   UNL     1       2.003  -0.216  -1.560  0.00  0.00    -0.302 N 
ATOM      6  C   UNL     1       2.980   0.507  -0.939  0.00  0.00    +0.093 A 
ATOM      7  C   UNL     1       4.210   0.612  -1.486  0.00  0.00    +0.018 A 
ATOM      8  C   UNL     1       4.503  -0.021  -2.704  0.00  0.00    +0.004 A 
ATOM      9  C   UNL     1       3.539  -0.754  -3.331  0.00  0.00    +0.028 A 
ENDROOT
BRANCH   3  10
ATOM     10  C   UNL     1       0.866  -2.291  -4.331  0.00  0.00    +0.267 C 
ATOM     11  O   UNL     1       1.740  -2.364  -5.176  0.00  0.00    -0.268 OA
ATOM     12  N   UNL     1      -0.298  -2.948  -4.506  0.00  0.00    -0.296 N 
ATOM     13  C   UNL     1      -1.405  -2.777  -3.556  0.00  0.00    +0.108 C 
ATOM     14  C   UNL     1      -1.849  -4.157  -3.062  0.00  0.00    +0.019 C 
ATOM     15  C   UNL     1      -2.185  -5.041  -4.266  0.00  0.00    +0.009 C 
ATOM     16  C   UNL     1      -0.938  -5.217  -5.136  0.00  0.00    +0.032 C 
ATOM     17  C   UNL     1      -0.486  -3.844  -5.656  0.00  0.00    +0.114 C 
BRANCH  16  18
ATOM     18  C   UNL     1      -1.266  -6.127  -6.321  0.00  0.00    +0.160 C 
BRANCH  18  19
ATOM     19  O   UNL     1      -0.075  -6.385  -7.067  0.00  0.00    -0.395 OA
ATOM     20  H   UNL     1      -0.209  -6.958  -7.835  0.00  0.00    +0.209 HD
ENDBRANCH  18  19
ENDBRANCH  16  18
ENDBRANCH   3  10
BRANCH   1  22
ATOM     21  C   UNL     1      -0.006   1.542  -0.001  0.00  0.00    +0.019 C 
ATOM     22  C   UNL     1      -0.003   0.012  -0.007  0.00  0.00    +0.021 C 
ATOM     23  C   UNL     1       0.721  -0.502   1.238  0.00  0.00    +0.019 C 
ATOM     24  C   UNL     1      -1.445  -0.501  -0.007  0.00  0.00    +0.019 C 
ENDBRANCH   1  22
TORSDOF 4
