REMARK  Name = ZINC40214920
REMARK  7 active torsions:
REMARK  status: ('A' for Active; 'I' for Inactive)
REMARK    1  A    between atoms: C_1  and  C_2
REMARK    2  A    between atoms: C_4  and  S_18
REMARK    3  A    between atoms: C_6  and  N_9
REMARK    4  A    between atoms: C_7  and  C_8
REMARK    5  A    between atoms: C_10  and  C_12
REMARK    6  A    between atoms: C_15  and  C_17
REMARK    7  A    between atoms: S_18  and  N_21
REMARK                            x       y       z     vdW  Elec       q    Type
REMARK                         _______ _______ _______ _____ _____    ______ ____
ROOT
ATOM      1  C   UNL     1      -0.044   1.494  -0.004  0.00  0.00    +0.044 C 
ATOM      2  C   UNL     1      -0.021  -0.012  -0.007  0.00  0.00    -0.044 A 
ATOM      3  C   UNL     1      -0.024  -0.701  -1.207  0.00  0.00    +0.032 A 
ATOM      4  C   UNL     1      -0.002  -2.083  -1.214  0.00  0.00    +0.107 A 
ATOM      5  C   UNL     1       0.024  -2.781  -0.022  0.00  0.00    +0.052 A 
ATOM      6  C   UNL     1       0.027  -2.093   1.184  0.00  0.00    +0.038 A 
ATOM      7  C   UNL     1       0.010  -0.704   1.188  0.00  0.00    -0.026 A 
ATOM      8  C   UNL     1       0.019   0.047   2.494  0.00  0.00    +0.046 C 
ENDROOT
BRANCH   6   9
ATOM      9  N   UNL     1       0.052  -2.797   2.393  0.00  0.00    -0.285 N 
ATOM     10  C   UNL     1       0.563  -4.044   2.436  0.00  0.00    +0.221 C 
ATOM     11  O   UNL     1       1.091  -4.518   1.452  0.00  0.00    -0.275 OA
ATOM     12  H   UNL     1      -0.298  -2.388   3.200  0.00  0.00    +0.155 HD
BRANCH  10  13
ATOM     13  C   UNL     1       0.477  -4.849   3.707  0.00  0.00    +0.078 C 
ATOM     14  C   UNL     1      -0.446  -6.070   3.709  0.00  0.00    +0.017 C 
ATOM     15  C   UNL     1       1.073  -6.258   3.691  0.00  0.00    -0.002 C 
ATOM     16  C   UNL     1       1.738  -6.758   4.975  0.00  0.00    +0.008 C 
ENDBRANCH  10  13
ENDBRANCH   6   9
BRANCH   4  17
ATOM     17  S   UNL     1      -0.007  -2.955  -2.745  0.00  0.00    +0.056 S 
ATOM     18  O   UNL     1      -0.534  -4.247  -2.475  0.00  0.00    -0.153 OA
ATOM     19  O   UNL     1      -0.583  -2.083  -3.707  0.00  0.00    -0.153 OA
BRANCH  17  20
ATOM     20  N   UNL     1       1.574  -3.172  -3.190  0.00  0.00    -0.204 NA
ATOM     21  H   UNL     1       2.287  -2.835  -2.626  0.00  0.00    +0.144 HD
ATOM     22  H   UNL     1       1.786  -3.637  -4.014  0.00  0.00    +0.144 HD
ENDBRANCH  17  20
ENDBRANCH   4  17
TORSDOF 4
