REMARK  Name = ZINC39675389
REMARK  9 active torsions:
REMARK  status: ('A' for Active; 'I' for Inactive)
REMARK    1  A    between atoms: C_1  and  C_2
REMARK    2  A    between atoms: C_2  and  C_4
REMARK    3  A    between atoms: C_2  and  N_14
REMARK    4  A    between atoms: C_4  and  C_5
REMARK    5  A    between atoms: C_5  and  C_6
REMARK    6  A    between atoms: C_9  and  O_12
REMARK    7  A    between atoms: O_12  and  C_13
REMARK    8  A    between atoms: C_15  and  C_17
REMARK    9  A    between atoms: C_28  and  C_30
REMARK                            x       y       z     vdW  Elec       q    Type
REMARK                         _______ _______ _______ _____ _____    ______ ____
ROOT
ATOM      1  C   UNL     1       2.873  -1.354   3.117  0.00  0.00    +0.100 C 
ATOM      2  C   UNL     1       2.231  -2.760   3.126  0.00  0.00    +0.121 C 
ATOM      3  N   UNL     1       3.207  -3.621   2.417  0.00  0.00    -0.296 N 
ATOM      4  C   UNL     1       4.530  -3.141   2.883  0.00  0.00    +0.115 C 
ATOM      5  C   UNL     1       4.381  -1.609   2.960  0.00  0.00    -0.004 C 
ATOM      6  C   UNL     1       4.896  -0.965   1.677  0.00  0.00    -0.010 C 
ATOM      7  C   UNL     1       6.407  -1.183   1.572  0.00  0.00    -0.082 C 
ATOM      8  N   UNL     1       7.071  -0.592   2.740  0.00  0.00    +0.379 N 
ATOM      9  C   UNL     1       6.640  -1.279   3.963  0.00  0.00    -0.082 C 
ATOM     10  C   UNL     1       5.137  -1.065   4.169  0.00  0.00    -0.010 C 
ATOM     11  C   UNL     1       2.949  -4.615   1.544  0.00  0.00    +0.247 C 
ATOM     12  O   UNL     1       1.812  -4.809   1.162  0.00  0.00    -0.270 OA
ATOM     13  H   UNL     1       8.071  -0.683   2.640  0.00  0.00    -0.086 HD
ATOM     14  H   UNL     1       6.830   0.386   2.803  0.00  0.00    -0.086 HD
ENDROOT
BRANCH  11  15
ATOM     15  C   UNL     1       4.052  -5.472   1.051  0.00  0.00    +0.040 A 
ATOM     16  C   UNL     1       5.266  -5.549   1.740  0.00  0.00    +0.033 A 
ATOM     17  C   UNL     1       6.268  -6.361   1.245  0.00  0.00    +0.111 A 
ATOM     18  N   UNL     1       6.091  -7.056   0.139  0.00  0.00    -0.263 NA
ATOM     19  C   UNL     1       4.963  -7.012  -0.541  0.00  0.00    +0.111 A 
ATOM     20  C   UNL     1       3.906  -6.231  -0.115  0.00  0.00    +0.033 A 
ENDBRANCH  11  15
BRANCH   1  22
ATOM     21  N   UNL     1       2.386   0.798   1.999  0.00  0.00    -0.312 N 
ATOM     22  C   UNL     1       2.353  -0.548   1.954  0.00  0.00    +0.218 C 
ATOM     23  O   UNL     1       1.905  -1.112   0.978  0.00  0.00    -0.275 OA
ATOM     24  H   UNL     1       2.744   1.249   2.780  0.00  0.00    +0.149 HD
BRANCH  21  26
ATOM     25  C   UNL     1       2.986   1.736  -0.179  0.00  0.00    +0.028 C 
ATOM     26  C   UNL     1       1.881   1.581   0.868  0.00  0.00    +0.070 C 
BRANCH  26  27
ATOM     27  C   UNL     1       1.447   2.964   1.359  0.00  0.00    +0.026 C 
BRANCH  27  28
ATOM     28  C   UNL     1       0.260   2.817   2.312  0.00  0.00    +0.037 C 
BRANCH  28  29
ATOM     29  C   UNL     1      -0.168   4.179   2.796  0.00  0.00    -0.047 A 
ATOM     30  C   UNL     1       0.395   4.713   3.940  0.00  0.00    +0.007 A 
ATOM     31  C   UNL     1       0.005   5.962   4.385  0.00  0.00    +0.046 A 
ATOM     32  C   UNL     1      -0.953   6.679   3.683  0.00  0.00    +0.120 A 
ATOM     33  C   UNL     1      -1.516   6.141   2.535  0.00  0.00    +0.046 A 
ATOM     34  C   UNL     1      -1.118   4.895   2.091  0.00  0.00    +0.007 A 
BRANCH  32  35
ATOM     35  O   UNL     1      -1.339   7.907   4.120  0.00  0.00    -0.495 OA
ATOM     36  C   UNL     1      -2.329   8.588   3.347  0.00  0.00    +0.277 C 
ENDBRANCH  32  35
ENDBRANCH  28  29
ENDBRANCH  27  28
ENDBRANCH  26  27
ENDBRANCH  21  26
ENDBRANCH   1  22
TORSDOF 7
