REMARK  Name = ZINC19520600
REMARK  6 active torsions:
REMARK  status: ('A' for Active; 'I' for Inactive)
REMARK    1  A    between atoms: C_1  and  C_2
REMARK    2  A    between atoms: C_2  and  C_3
REMARK    3  A    between atoms: C_6  and  C_30
REMARK    4  A    between atoms: C_11  and  C_13
REMARK    5  A    between atoms: N_15  and  C_16
REMARK    6  A    between atoms: C_25  and  C_28
REMARK                            x       y       z     vdW  Elec       q    Type
REMARK                         _______ _______ _______ _____ _____    ______ ____
ROOT
ATOM      1  C   UNL     1      -3.620   3.130  -0.050  0.00  0.00    +0.268 C 
ATOM      2  O   UNL     1      -3.604   1.914  -0.056  0.00  0.00    -0.268 OA
ATOM      3  N   UNL     1      -2.466   3.819   0.045  0.00  0.00    -0.280 N 
ATOM      4  H   UNL     1      -2.485   4.916   0.128  0.00  0.00    +0.155 HD
ENDROOT
BRANCH   3   5
ATOM      5  C   UNL     1      -1.242   3.139   0.038  0.00  0.00    +0.036 A 
ATOM      6  C   UNL     1      -0.132   3.714  -0.566  0.00  0.00    +0.027 A 
ATOM      7  C   UNL     1       1.077   3.044  -0.580  0.00  0.00    +0.049 A 
ATOM      8  C   UNL     1       1.186   1.802   0.021  0.00  0.00    +0.143 A 
ATOM      9  C   UNL     1       0.075   1.224   0.633  0.00  0.00    +0.077 A 
ATOM     10  C   UNL     1      -1.137   1.893   0.642  0.00  0.00    +0.050 A 
ATOM     11  N   UNL     1       0.201  -0.036   1.235  0.00  0.00    -0.279 N 
ATOM     12  C   UNL     1       1.437  -0.518   1.491  0.00  0.00    +0.258 C 
ATOM     13  O   UNL     1       1.571  -1.618   1.984  0.00  0.00    -0.271 OA
ATOM     14  C   UNL     1       2.648   0.316   1.161  0.00  0.00    +0.256 C 
ATOM     15  O   UNL     1       2.372   1.134   0.021  0.00  0.00    -0.478 OA
ATOM     16  C   UNL     1       3.832  -0.603   0.853  0.00  0.00    +0.062 C 
ATOM     17  H   UNL     1      -0.698  -0.615   1.492  0.00  0.00    +0.155 HD
ENDBRANCH   3   5
BRANCH   1  24
ATOM     18  C   UNL     1      -9.218   5.438  -0.174  0.00  0.00    +0.074 C 
ATOM     19  C   UNL     1      -8.485   6.577  -0.892  0.00  0.00    +0.058 C 
ATOM     20  C   UNL     1      -7.082   6.750  -0.299  0.00  0.00    +0.214 C 
ATOM     21  N   UNL     1      -6.422   5.443  -0.253  0.00  0.00    -0.238 N 
ATOM     22  C   UNL     1      -7.091   4.253  -0.312  0.00  0.00    +0.119 A 
ATOM     23  C   UNL     1      -6.184   3.258  -0.249  0.00  0.00    +0.078 A 
ATOM     24  C   UNL     1      -4.906   3.852  -0.145  0.00  0.00    +0.149 A 
ATOM     25  N   UNL     1      -5.060   5.164  -0.143  0.00  0.00    -0.164 NA
ATOM     26  N   UNL     1      -8.483   4.181  -0.416  0.00  0.00    -0.326 N 
ATOM     27  H   UNL     1      -9.033   3.260  -0.662  0.00  0.00    +0.148 HD
BRANCH  20  28
ATOM     28  C   UNL     1      -6.270   7.704  -1.177  0.00  0.00    +0.412 C 
ATOM     29  F   UNL     1      -6.179   7.183  -2.472  0.00  0.00    -0.168 F 
ATOM     30  F   UNL     1      -6.902   8.952  -1.220  0.00  0.00    -0.168 F 
ATOM     31  F   UNL     1      -4.985   7.851  -0.642  0.00  0.00    -0.168 F 
ENDBRANCH  20  28
BRANCH  18  33
ATOM     32  C   UNL     1     -11.408   4.263   0.079  0.00  0.00    +0.006 C 
ATOM     33  C   UNL     1     -10.641   5.315  -0.723  0.00  0.00    +0.019 C 
ENDBRANCH  18  33
ENDBRANCH   1  24
TORSDOF 4
