REMARK  Name = ZINC33278261
REMARK  10 active torsions:
REMARK  status: ('A' for Active; 'I' for Inactive)
REMARK    1  A    between atoms: C_1  and  C_2
REMARK    2  A    between atoms: C_2  and  C_3
REMARK    3  A    between atoms: C_3  and  C_5
REMARK    4  A    between atoms: C_3  and  N_6
REMARK    5  A    between atoms: C_7  and  C_9
REMARK    6  A    between atoms: C_11  and  N_21
REMARK    7  A    between atoms: N_21  and  S_22
REMARK    8  A    between atoms: S_22  and  C_25
REMARK    9  A    between atoms: C_28  and  C_32
REMARK   10  A    between atoms: C_30  and  C_31
REMARK                            x       y       z     vdW  Elec       q    Type
REMARK                         _______ _______ _______ _____ _____    ______ ____
ROOT
ATOM      1  C   UNL     1      -3.640  -1.142  -0.082  0.00  0.00    +0.057 A 
ATOM      2  C   UNL     1      -2.677  -2.162  -0.011  0.00  0.00    +0.042 A 
ATOM      3  C   UNL     1      -1.341  -1.806  -0.054  0.00  0.00    +0.089 A 
ATOM      4  C   UNL     1      -0.999  -0.453  -0.166  0.00  0.00    +0.144 A 
ATOM      5  N   UNL     1      -1.936   0.481  -0.225  0.00  0.00    -0.238 NA
ATOM      6  C   UNL     1      -3.218   0.182  -0.192  0.00  0.00    +0.126 A 
ATOM      7  N   UNL     1       0.338  -0.086  -0.210  0.00  0.00    -0.317 N 
ATOM      8  C   UNL     1       0.480   1.372  -0.327  0.00  0.00    +0.087 C 
ATOM      9  C   UNL     1       1.965   1.742  -0.292  0.00  0.00    -0.063 C 
ATOM     10  N   UNL     1       2.663   1.058  -1.389  0.00  0.00    +0.381 N 
ATOM     11  C   UNL     1       2.521  -0.401  -1.272  0.00  0.00    -0.063 C 
ATOM     12  C   UNL     1       1.036  -0.770  -1.307  0.00  0.00    +0.087 C 
ATOM     13  H   UNL     1       2.237   1.378  -2.352  0.00  0.00    -0.086 HD
ATOM     14  H   UNL     1       3.733   1.312  -1.359  0.00  0.00    -0.086 HD
ENDROOT
BRANCH   1  16
ATOM     15  N   UNL     1      -5.995  -0.482  -0.109  0.00  0.00    -0.309 N 
ATOM     16  C   UNL     1      -5.079  -1.468  -0.041  0.00  0.00    +0.246 C 
ATOM     17  O   UNL     1      -5.437  -2.626   0.055  0.00  0.00    -0.270 OA
ATOM     18  H   UNL     1      -5.670   0.565  -0.196  0.00  0.00    +0.149 HD
BRANCH  15  19
ATOM     19  C   UNL     1      -7.423  -0.806  -0.068  0.00  0.00    +0.070 C 
ATOM     20  C   UNL     1      -7.877  -0.927   1.388  0.00  0.00    +0.028 C 
BRANCH  19  22
ATOM     21  C   UNL     1      -7.854   0.343  -2.245  0.00  0.00    +0.005 C 
ATOM     22  C   UNL     1      -8.218   0.304  -0.760  0.00  0.00    +0.018 C 
ENDBRANCH  19  22
ENDBRANCH  15  19
ENDBRANCH   1  16
BRANCH   3  23
ATOM     23  N   UNL     1      -0.343  -2.787   0.012  0.00  0.00    -0.213 N 
ATOM     24  H   UNL     1       0.601  -2.576   0.536  0.00  0.00    +0.174 HD
BRANCH  23  25
ATOM     25  S   UNL     1      -0.585  -4.263  -0.697  0.00  0.00    +0.073 S 
ATOM     26  O   UNL     1       0.620  -4.997  -0.528  0.00  0.00    -0.150 OA
ATOM     27  O   UNL     1      -1.839  -4.739  -0.228  0.00  0.00    -0.150 OA
BRANCH  25  28
ATOM     28  C   UNL     1      -0.768  -3.986  -2.428  0.00  0.00    +0.111 A 
ATOM     29  C   UNL     1      -0.975  -2.705  -2.905  0.00  0.00    +0.029 A 
ATOM     30  C   UNL     1      -1.117  -2.487  -4.262  0.00  0.00    +0.005 A 
ATOM     31  C   UNL     1      -1.053  -3.551  -5.143  0.00  0.00    -0.050 A 
ATOM     32  C   UNL     1      -0.846  -4.832  -4.666  0.00  0.00    +0.008 A 
ATOM     33  C   UNL     1      -0.698  -5.049  -3.309  0.00  0.00    -0.024 A 
ATOM     34  C   UNL     1      -0.466  -6.444  -2.790  0.00  0.00    +0.046 C 
ATOM     35  C   UNL     1      -1.209  -3.314  -6.623  0.00  0.00    +0.044 C 
ENDBRANCH  25  28
ENDBRANCH  23  25
ENDBRANCH   3  23
TORSDOF 6
