REMARK  Name = ZINC05179961
REMARK  8 active torsions:
REMARK  status: ('A' for Active; 'I' for Inactive)
REMARK    1  A    between atoms: C_1  and  C_2
REMARK    2  A    between atoms: C_2  and  C_27
REMARK    3  A    between atoms: C_10  and  C_15
REMARK    4  A    between atoms: C_16  and  C_17
REMARK    5  A    between atoms: C_20  and  O_25
REMARK    6  A    between atoms: C_22  and  O_23
REMARK    7  A    between atoms: O_23  and  C_24
REMARK    8  A    between atoms: O_25  and  C_26
REMARK                            x       y       z     vdW  Elec       q    Type
REMARK                         _______ _______ _______ _____ _____    ______ ____
ROOT
ATOM      1  C   UNL     1       0.517   4.080  -0.319  0.00  0.00    +0.020 C 
ATOM      2  C   UNL     1      -0.366   3.901   0.918  0.00  0.00    +0.034 C 
ATOM      3  C   UNL     1       0.439   3.344   2.075  0.00  0.00    -0.017 A 
ATOM      4  C   UNL     1       1.324   3.944   2.946  0.00  0.00    +0.006 A 
ATOM      5  C   UNL     1       1.932   3.199   3.940  0.00  0.00    +0.000 A 
ATOM      6  C   UNL     1       1.650   1.850   4.059  0.00  0.00    +0.002 A 
ATOM      7  C   UNL     1       0.768   1.244   3.189  0.00  0.00    +0.023 A 
ATOM      8  C   UNL     1       0.153   1.989   2.183  0.00  0.00    +0.036 A 
ATOM      9  N   UNL     1      -0.748   1.585   1.194  0.00  0.00    -0.296 N 
ATOM     10  C   UNL     1      -1.428   2.805   0.677  0.00  0.00    +0.131 C 
ATOM     11  N   UNL     1      -1.598   2.599  -0.764  0.00  0.00    -0.289 N 
ATOM     12  C   UNL     1      -0.786   1.608  -1.182  0.00  0.00    +0.232 C 
ATOM     13  O   UNL     1      -0.692   1.202  -2.321  0.00  0.00    -0.274 OA
ATOM     14  C   UNL     1      -0.013   1.086   0.008  0.00  0.00    +0.203 C 
ATOM     15  C   UNL     1      -1.030   5.223   1.306  0.00  0.00    +0.020 C 
ATOM     16  H   UNL     1      -2.203   3.102  -1.332  0.00  0.00    +0.151 HD
ENDROOT
BRANCH  10  17
ATOM     17  C   UNL     1      -2.731   3.100   1.375  0.00  0.00    +0.020 C 
ATOM     18  C   UNL     1      -3.855   3.180   0.674  0.00  0.00    +0.011 C 
BRANCH  18  19
ATOM     19  C   UNL     1      -5.132   3.469   1.357  0.00  0.00    +0.017 A 
ATOM     20  C   UNL     1      -5.160   3.653   2.740  0.00  0.00    +0.015 A 
ATOM     21  C   UNL     1      -6.353   3.927   3.374  0.00  0.00    +0.046 A 
ATOM     22  C   UNL     1      -7.530   4.011   2.642  0.00  0.00    +0.124 A 
ATOM     23  C   UNL     1      -7.513   3.825   1.267  0.00  0.00    +0.091 A 
ATOM     24  C   UNL     1      -6.320   3.554   0.620  0.00  0.00    +0.131 A 
BRANCH  24  25
ATOM     25  O   UNL     1      -6.301   3.371  -0.726  0.00  0.00    -0.494 OA
ATOM     26  C   UNL     1      -7.550   3.472  -1.411  0.00  0.00    +0.277 C 
ENDBRANCH  24  25
BRANCH  22  27
ATOM     27  O   UNL     1      -8.703   4.277   3.274  0.00  0.00    -0.495 OA
ATOM     28  C   UNL     1      -8.650   4.458   4.690  0.00  0.00    +0.277 C 
ENDBRANCH  22  27
ENDBRANCH  18  19
ENDBRANCH  10  17
TORSDOF 4
