REMARK  Name = ZINC36515244
REMARK  16 active torsions:
REMARK  status: ('A' for Active; 'I' for Inactive)
REMARK    1  A    between atoms: C_1  and  C_2
REMARK    2  A    between atoms: C_2  and  C_3
REMARK    3  A    between atoms: C_3  and  C_4
REMARK    4  A    between atoms: C_4  and  C_5
REMARK    5  A    between atoms: C_5  and  C_6
REMARK    6  A    between atoms: C_6  and  N_7
REMARK    7  A    between atoms: N_7  and  C_8
REMARK    8  A    between atoms: C_8  and  C_10
REMARK    9  A    between atoms: C_8  and  C_19
REMARK   10  A    between atoms: C_13  and  N_16
REMARK   11  A    between atoms: N_21  and  C_22
REMARK   12  A    between atoms: C_28  and  C_30
REMARK   13  A    between atoms: C_30  and  C_31
REMARK   14  A    between atoms: C_31  and  C_32
REMARK   15  A    between atoms: C_35  and  O_38
REMARK   16  A    between atoms: O_38  and  C_39
REMARK                            x       y       z     vdW  Elec       q    Type
REMARK                         _______ _______ _______ _____ _____    ______ ____
ROOT
ATOM      1  C   UNL     1      -4.963  -4.983  -1.059  0.00  0.00    +0.192 C 
ENDROOT
BRANCH   1   2
ATOM      2  C   UNL     1      -6.394  -5.090  -1.521  0.00  0.00    -0.018 A 
ATOM      3  C   UNL     1      -7.096  -3.950  -1.866  0.00  0.00    +0.008 A 
ATOM      4  C   UNL     1      -8.408  -4.048  -2.289  0.00  0.00    +0.033 A 
ATOM      5  C   UNL     1      -9.018  -5.286  -2.368  0.00  0.00    +0.126 A 
ATOM      6  C   UNL     1      -8.316  -6.426  -2.023  0.00  0.00    +0.033 A 
ATOM      7  C   UNL     1      -7.003  -6.328  -1.604  0.00  0.00    +0.008 A 
BRANCH   5   8
ATOM      8  N   UNL     1     -10.424  -5.391  -2.820  0.00  0.00    +0.056 N 
ATOM      9  O   UNL     1     -11.038  -4.394  -3.121  0.00  0.00    -0.126 OA
ATOM     10  O   UNL     1     -10.958  -6.473  -2.888  0.00  0.00    -0.126 OA
ENDBRANCH   5   8
ENDBRANCH   1   2
BRANCH   1  11
ATOM     11  C   UNL     1      -4.052  -4.921  -2.258  0.00  0.00    +0.238 C 
ATOM     12  O   UNL     1      -2.866  -4.720  -2.108  0.00  0.00    -0.273 OA
ATOM     13  N   UNL     1      -4.556  -5.091  -3.497  0.00  0.00    -0.311 N 
ATOM     14  H   UNL     1      -5.505  -5.252  -3.616  0.00  0.00    +0.149 HD
BRANCH  13  15
ATOM     15  C   UNL     1      -3.670  -5.031  -4.662  0.00  0.00    +0.073 C 
ATOM     16  C   UNL     1      -3.491  -3.574  -5.093  0.00  0.00    +0.022 C 
ATOM     17  C   UNL     1      -2.566  -3.511  -6.309  0.00  0.00    +0.002 C 
ATOM     18  C   UNL     1      -3.182  -4.311  -7.460  0.00  0.00    +0.000 C 
ATOM     19  C   UNL     1      -3.360  -5.768  -7.029  0.00  0.00    +0.002 C 
ATOM     20  C   UNL     1      -4.285  -5.831  -5.812  0.00  0.00    +0.022 C 
ENDBRANCH  13  15
ENDBRANCH   1  11
BRANCH   1  21
ATOM     21  N   UNL     1      -4.798  -3.768  -0.257  0.00  0.00    -0.286 N 
ATOM     22  C   UNL     1      -5.514  -3.604   0.873  0.00  0.00    +0.217 C 
ATOM     23  O   UNL     1      -6.295  -4.462   1.226  0.00  0.00    -0.276 OA
BRANCH  21  24
ATOM     24  C   UNL     1      -3.855  -2.731  -0.684  0.00  0.00    +0.109 C 
BRANCH  24  25
ATOM     25  C   UNL     1      -4.443  -1.964  -1.870  0.00  0.00    +0.019 C 
BRANCH  25  26
ATOM     26  C   UNL     1      -3.419  -0.946  -2.377  0.00  0.00    +0.002 C 
BRANCH  26  27
ATOM     27  C   UNL     1      -4.007  -0.179  -3.563  0.00  0.00    -0.000 C 
BRANCH  27  29
ATOM     28  C   UNL     1      -3.571   1.607  -5.255  0.00  0.00    +0.004 C 
ATOM     29  C   UNL     1      -2.984   0.840  -4.069  0.00  0.00    -0.003 C 
ENDBRANCH  27  29
ENDBRANCH  26  27
ENDBRANCH  25  26
ENDBRANCH  24  25
ENDBRANCH  21  24
BRANCH  22  30
ATOM     30  C   UNL     1      -5.344  -2.354   1.697  0.00  0.00    +0.100 C 
BRANCH  30  31
ATOM     31  C   UNL     1      -6.265  -2.419   2.917  0.00  0.00    +0.044 C 
BRANCH  31  32
ATOM     32  C   UNL     1      -6.096  -1.169   3.742  0.00  0.00    -0.047 A 
ATOM     33  C   UNL     1      -5.144  -1.127   4.744  0.00  0.00    +0.007 A 
ATOM     34  C   UNL     1      -4.987   0.017   5.502  0.00  0.00    +0.046 A 
ATOM     35  C   UNL     1      -5.784   1.125   5.256  0.00  0.00    +0.120 A 
ATOM     36  C   UNL     1      -6.738   1.081   4.250  0.00  0.00    +0.046 A 
ATOM     37  C   UNL     1      -6.888  -0.064   3.491  0.00  0.00    +0.007 A 
BRANCH  35  38
ATOM     38  O   UNL     1      -5.632   2.252   6.001  0.00  0.00    -0.495 OA
ATOM     39  C   UNL     1      -6.487   3.354   5.692  0.00  0.00    +0.277 C 
ENDBRANCH  35  38
ENDBRANCH  31  32
ENDBRANCH  30  31
ENDBRANCH  22  30
ENDBRANCH   1  21
TORSDOF 14
