REMARK  Name = ZINC22529053
REMARK  6 active torsions:
REMARK  status: ('A' for Active; 'I' for Inactive)
REMARK    1  A    between atoms: C_1  and  C_2
REMARK    2  A    between atoms: C_5  and  C_9
REMARK    3  A    between atoms: N_11  and  C_12
REMARK    4  A    between atoms: C_12  and  N_14
REMARK    5  A    between atoms: N_14  and  C_15
REMARK    6  A    between atoms: N_23  and  C_26
REMARK                            x       y       z     vdW  Elec       q    Type
REMARK                         _______ _______ _______ _____ _____    ______ ____
ROOT
ATOM      1  C   UNL     1      -0.019   1.388   0.001  0.00  0.00    +0.046 A 
ATOM      2  C   UNL     1       0.026   0.057  -0.417  0.00  0.00    +0.024 A 
ATOM      3  C   UNL     1       1.223  -0.626  -0.442  0.00  0.00    +0.003 A 
ATOM      4  C   UNL     1       2.401  -0.001  -0.053  0.00  0.00    +0.014 A 
ATOM      5  C   UNL     1       2.378   1.318   0.365  0.00  0.00    +0.052 A 
ATOM      6  C   UNL     1       1.156   2.025   0.394  0.00  0.00    +0.071 A 
ATOM      7  C   UNL     1       1.483   3.377   0.878  0.00  0.00    +0.260 C 
ATOM      8  O   UNL     1       0.689   4.283   1.039  0.00  0.00    -0.269 OA
ATOM      9  N   UNL     1       2.806   3.442   1.112  0.00  0.00    -0.202 N 
ATOM     10  C   UNL     1       3.405   2.270   0.835  0.00  0.00    +0.258 C 
ATOM     11  O   UNL     1       4.591   2.035   0.951  0.00  0.00    -0.269 OA
ENDROOT
BRANCH   9  12
ATOM     12  C   UNL     1       3.472   4.582   1.584  0.00  0.00    +0.045 A 
ATOM     13  C   UNL     1       2.763   5.748   1.837  0.00  0.00    +0.024 A 
ATOM     14  C   UNL     1       3.421   6.867   2.308  0.00  0.00    +0.002 A 
ATOM     15  C   UNL     1       4.787   6.830   2.516  0.00  0.00    +0.000 A 
ATOM     16  C   UNL     1       5.498   5.672   2.260  0.00  0.00    +0.002 A 
ATOM     17  C   UNL     1       4.844   4.548   1.795  0.00  0.00    +0.024 A 
ENDBRANCH   9  12
BRANCH   1  18
ATOM     18  N   UNL     1      -1.228   2.076   0.019  0.00  0.00    -0.296 N 
ATOM     19  H   UNL     1      -1.282   3.103  -0.371  0.00  0.00    +0.154 HD
BRANCH  18  20
ATOM     20  C   UNL     1      -2.332   1.484   0.514  0.00  0.00    +0.141 C 
ATOM     21  S   UNL     1      -2.220  -0.059   1.248  0.00  0.00    -0.018 S 
BRANCH  20  24
ATOM     22  C   UNL     1      -4.630   1.514   0.927  0.00  0.00    +0.251 C 
ATOM     23  O   UNL     1      -4.550   0.418   1.448  0.00  0.00    -0.270 OA
ATOM     24  N   UNL     1      -3.525   2.106   0.432  0.00  0.00    -0.264 N 
ATOM     25  H   UNL     1      -3.597   3.097  -0.039  0.00  0.00    +0.157 HD
BRANCH  22  30
ATOM     26  C   UNL     1      -9.721   4.172   0.576  0.00  0.00    +0.044 C 
ATOM     27  C   UNL     1      -8.388   3.475   0.668  0.00  0.00    -0.049 A 
ATOM     28  C   UNL     1      -7.255   4.086   0.159  0.00  0.00    +0.004 A 
ATOM     29  C   UNL     1      -6.032   3.454   0.240  0.00  0.00    +0.015 A 
ATOM     30  C   UNL     1      -5.936   2.196   0.837  0.00  0.00    +0.055 A 
ATOM     31  C   UNL     1      -7.085   1.582   1.345  0.00  0.00    +0.053 A 
ATOM     32  C   UNL     1      -8.303   2.229   1.261  0.00  0.00    +0.024 A 
ATOM     33 CL   UNL     1      -6.981   0.015   2.083  0.00  0.00    -0.083 Cl
ENDBRANCH  22  30
ENDBRANCH  20  24
ENDBRANCH  18  20
ENDBRANCH   1  18
TORSDOF 5
