REMARK  Name = ZINC62477799
REMARK  5 active torsions:
REMARK  status: ('A' for Active; 'I' for Inactive)
REMARK    1  A    between atoms: C_1  and  C_2
REMARK    2  A    between atoms: N_4  and  C_9
REMARK    3  A    between atoms: C_6  and  C_8
REMARK    4  A    between atoms: C_9  and  C_10
REMARK    5  A    between atoms: C_10  and  N_11
REMARK                            x       y       z     vdW  Elec       q    Type
REMARK                         _______ _______ _______ _____ _____    ______ ____
ROOT
ATOM      1  N   UNL     1      -4.051  -4.628  -0.161  0.00  0.00    -0.298 N 
ATOM      2  C   UNL     1      -4.235  -5.954  -0.318  0.00  0.00    +0.302 C 
ATOM      3  O   UNL     1      -3.281  -6.681  -0.518  0.00  0.00    -0.253 OA
ATOM      4  N   UNL     1      -5.477  -6.474  -0.253  0.00  0.00    -0.282 N 
ATOM      5  C   UNL     1      -6.589  -5.574  -0.138  0.00  0.00    +0.113 C 
ATOM      6  C   UNL     1      -7.815  -6.065  -0.845  0.00  0.00    +0.007 C 
ATOM      7  C   UNL     1      -7.523  -6.588  -2.242  0.00  0.00    +0.008 C 
ATOM      8  C   UNL     1      -7.141  -8.054  -2.291  0.00  0.00    -0.009 C 
ATOM      9  C   UNL     1      -8.142  -8.910  -1.509  0.00  0.00    +0.007 C 
ATOM     10  C   UNL     1      -8.134  -8.408  -0.063  0.00  0.00    -0.009 C 
ATOM     11  C   UNL     1      -8.694  -6.985  -0.046  0.00  0.00    +0.008 C 
ATOM     12  C   UNL     1      -6.748  -8.459   0.537  0.00  0.00    +0.026 C 
ATOM     13  C   UNL     1      -5.625  -7.918  -0.309  0.00  0.00    +0.078 C 
ATOM     14  C   UNL     1      -5.740  -8.339  -1.769  0.00  0.00    +0.026 C 
ATOM     15  H   UNL     1      -4.816  -4.039  -0.072  0.00  0.00    +0.150 HD
ENDROOT
BRANCH   1  16
ATOM     16  C   UNL     1      -2.694  -4.076  -0.123  0.00  0.00    +0.121 C 
BRANCH  16  17
ATOM     17  C   UNL     1      -2.765  -2.559   0.063  0.00  0.00    +0.103 C 
BRANCH  17  21
ATOM     18  C   UNL     1      -0.016   1.523   0.039  0.00  0.00    +0.039 C 
ATOM     19  C   UNL     1       0.004  -0.007   0.021  0.00  0.00    +0.130 C 
ATOM     20  C   UNL     1      -1.432  -0.537   0.040  0.00  0.00    +0.115 C 
ATOM     21  N   UNL     1      -1.405  -2.006   0.101  0.00  0.00    -0.296 NA
ATOM     22  C   UNL     1      -0.683  -2.465   1.296  0.00  0.00    +0.115 C 
ATOM     23  C   UNL     1       0.746  -1.915   1.265  0.00  0.00    +0.130 C 
ATOM     24  O   UNL     1       0.700  -0.488   1.174  0.00  0.00    -0.371 OA
ATOM     25  C   UNL     1       1.478  -2.322   2.546  0.00  0.00    +0.039 C 
ENDBRANCH  17  21
ENDBRANCH  16  17
ENDBRANCH   1  16
TORSDOF 3
