REMARK  Name = ZINC13692258
REMARK  9 active torsions:
REMARK  status: ('A' for Active; 'I' for Inactive)
REMARK    1  A    between atoms: C_1  and  C_2
REMARK    2  A    between atoms: C_2  and  C_4
REMARK    3  A    between atoms: C_2  and  N_15
REMARK    4  A    between atoms: C_4  and  C_5
REMARK    5  A    between atoms: C_16  and  C_18
REMARK    6  A    between atoms: C_21  and  C_24
REMARK    7  A    between atoms: C_24  and  N_25
REMARK    8  A    between atoms: N_25  and  S_26
REMARK    9  A    between atoms: S_26  and  C_29
REMARK                            x       y       z     vdW  Elec       q    Type
REMARK                         _______ _______ _______ _____ _____    ______ ____
ROOT
ATOM      1  C   UNL     1      -0.729   1.579   1.267  0.00  0.00    +0.075 C 
ATOM      2  C   UNL     1      -0.013   1.086   0.008  0.00  0.00    +0.013 C 
ATOM      3  C   UNL     1      -0.753   1.593  -1.232  0.00  0.00    +0.005 C 
ATOM      4  C   UNL     1      -0.773   3.123  -1.223  0.00  0.00    +0.005 C 
ATOM      5  C   UNL     1      -1.490   3.616   0.036  0.00  0.00    +0.005 C 
ATOM      6  C   UNL     1      -0.750   3.109   1.275  0.00  0.00    +0.013 C 
ENDROOT
BRANCH   1   8
ATOM      7  N   UNL     1      -0.453   1.393   3.718  0.00  0.00    -0.312 N 
ATOM      8  C   UNL     1       0.000   1.080   2.488  0.00  0.00    +0.216 C 
ATOM      9  O   UNL     1       0.994   0.397   2.363  0.00  0.00    -0.276 OA
ATOM     10  H   UNL     1      -1.355   2.012   3.831  0.00  0.00    +0.149 HD
BRANCH   7  12
ATOM     11  C   UNL     1       1.400   1.865   5.243  0.00  0.00    +0.028 C 
ATOM     12  C   UNL     1       0.256   0.907   4.905  0.00  0.00    +0.074 C 
BRANCH  12  13
ATOM     13  C   UNL     1      -0.716   0.836   6.085  0.00  0.00    +0.059 C 
BRANCH  13  14
ATOM     14  C   UNL     1      -1.775  -0.198   5.802  0.00  0.00    -0.021 A 
ATOM     15  C   UNL     1      -2.989   0.026   5.276  0.00  0.00    +0.087 A 
ATOM     16  N   UNL     1      -3.675  -1.153   5.166  0.00  0.00    -0.360 N 
ATOM     17  H   UNL     1      -4.694  -1.160   4.752  0.00  0.00    +0.165 HD
ATOM     18  C   UNL     1      -2.898  -2.191   5.630  0.00  0.00    +0.047 A 
ATOM     19  C   UNL     1      -1.672  -1.639   6.044  0.00  0.00    +0.003 A 
ATOM     20  C   UNL     1      -0.679  -2.466   6.572  0.00  0.00    +0.010 A 
ATOM     21  C   UNL     1      -0.899  -3.811   6.674  0.00  0.00    +0.001 A 
ATOM     22  C   UNL     1      -2.105  -4.361   6.262  0.00  0.00    +0.002 A 
ATOM     23  C   UNL     1      -3.101  -3.562   5.743  0.00  0.00    +0.026 A 
ENDBRANCH  13  14
ENDBRANCH  12  13
ENDBRANCH   7  12
ENDBRANCH   1   8
BRANCH   4  24
ATOM     24  C   UNL     1      -1.513   3.629  -2.463  0.00  0.00    +0.109 C 
BRANCH  24  25
ATOM     25  N   UNL     1      -1.431   5.091  -2.517  0.00  0.00    -0.190 NA
ATOM     26  H   UNL     1      -1.279   5.668  -1.593  0.00  0.00    +0.148 HD
BRANCH  25  27
ATOM     27  S   UNL     1      -1.809   5.890  -3.918  0.00  0.00    +0.058 S 
ATOM     28  O   UNL     1      -1.659   7.277  -3.647  0.00  0.00    -0.153 OA
ATOM     29  O   UNL     1      -1.100   5.237  -4.962  0.00  0.00    -0.153 OA
BRANCH  27  30
ATOM     30  C   UNL     1      -3.522   5.619  -4.225  0.00  0.00    +0.105 A 
ATOM     31  C   UNL     1      -3.926   4.536  -4.983  0.00  0.00    +0.028 A 
ATOM     32  C   UNL     1      -5.271   4.320  -5.220  0.00  0.00    +0.002 A 
ATOM     33  C   UNL     1      -6.211   5.195  -4.709  0.00  0.00    +0.000 A 
ATOM     34  C   UNL     1      -5.807   6.282  -3.956  0.00  0.00    +0.002 A 
ATOM     35  C   UNL     1      -4.463   6.494  -3.714  0.00  0.00    +0.028 A 
ENDBRANCH  27  30
ENDBRANCH  25  27
ENDBRANCH  24  25
ENDBRANCH   4  24
TORSDOF 8
