REMARK  Name = ZINC09631012
REMARK  9 active torsions:
REMARK  status: ('A' for Active; 'I' for Inactive)
REMARK    1  A    between atoms: C_1  and  C_2
REMARK    2  A    between atoms: C_7  and  N_12
REMARK    3  A    between atoms: C_9  and  C_11
REMARK    4  A    between atoms: C_13  and  C_15
REMARK    5  A    between atoms: C_15  and  O_16
REMARK    6  A    between atoms: O_16  and  C_17
REMARK    7  A    between atoms: C_17  and  C_19
REMARK    8  A    between atoms: C_23  and  N_25
REMARK    9  A    between atoms: C_26  and  C_28
REMARK                            x       y       z     vdW  Elec       q    Type
REMARK                         _______ _______ _______ _____ _____    ______ ____
ROOT
ATOM      1  C   UNL     1      -2.085  -3.026  -0.019  0.00  0.00    +0.340 C 
ATOM      2  O   UNL     1      -3.216  -2.582  -0.002  0.00  0.00    -0.245 OA
ENDROOT
BRANCH   1   3
ATOM      3  C   UNL     1      -1.865  -4.487  -0.025  0.00  0.00    +0.061 A 
ATOM      4  C   UNL     1      -0.566  -5.000  -0.045  0.00  0.00    +0.016 A 
ATOM      5  C   UNL     1      -0.363  -6.364  -0.050  0.00  0.00    +0.022 A 
ATOM      6  C   UNL     1      -1.444  -7.229  -0.036  0.00  0.00    +0.062 A 
ATOM      7  C   UNL     1      -2.741  -6.728  -0.016  0.00  0.00    +0.053 A 
ATOM      8  C   UNL     1      -2.955  -5.359  -0.005  0.00  0.00    +0.039 A 
ATOM      9 CL   UNL     1      -1.179  -8.945  -0.043  0.00  0.00    -0.082 Cl
BRANCH   7  10
ATOM     10  N   UNL     1      -3.831  -7.606  -0.001  0.00  0.00    -0.280 N 
ATOM     11  C   UNL     1      -4.945  -7.286   0.685  0.00  0.00    +0.255 C 
ATOM     12  O   UNL     1      -5.037  -6.198   1.224  0.00  0.00    -0.269 OA
ATOM     13  H   UNL     1      -3.783  -8.445  -0.485  0.00  0.00    +0.155 HD
BRANCH  11  14
ATOM     14  C   UNL     1      -6.047  -8.247   0.783  0.00  0.00    +0.074 A 
ATOM     15  C   UNL     1      -7.265  -8.117   1.433  0.00  0.00    +0.021 A 
ATOM     16  C   UNL     1      -8.126  -9.184   1.365  0.00  0.00    +0.008 A 
ATOM     17  C   UNL     1      -7.753 -10.295   0.678  0.00  0.00    +0.046 A 
ATOM     18  S   UNL     1      -6.175  -9.886   0.090  0.00  0.00    -0.092 S 
ENDBRANCH  11  14
ENDBRANCH   7  10
ENDBRANCH   1   3
BRANCH   1  19
ATOM     19  O   UNL     1      -1.032  -2.187  -0.033  0.00  0.00    -0.452 OA
BRANCH  19  20
ATOM     20  C   UNL     1      -1.323  -0.764  -0.026  0.00  0.00    +0.328 C 
BRANCH  20  22
ATOM     21  N   UNL     1      -0.055   1.360  -0.041  0.00  0.00    -0.309 N 
ATOM     22  C   UNL     1      -0.031   0.013  -0.044  0.00  0.00    +0.251 C 
ATOM     23  O   UNL     1       1.030  -0.575  -0.060  0.00  0.00    -0.272 OA
ATOM     24  H   UNL     1      -0.904   1.830  -0.032  0.00  0.00    +0.149 HD
BRANCH  21  30
ATOM     25  C   UNL     1       3.299   3.540  -1.523  0.00  0.00    +0.008 C 
ATOM     26  C   UNL     1       2.265   4.288  -0.679  0.00  0.00    -0.009 C 
ATOM     27  C   UNL     1       2.788   4.441   0.751  0.00  0.00    +0.003 C 
ATOM     28  C   UNL     1       3.034   3.056   1.354  0.00  0.00    +0.002 C 
ATOM     29  C   UNL     1       1.722   2.268   1.372  0.00  0.00    +0.022 C 
ATOM     30  C   UNL     1       1.200   2.115  -0.058  0.00  0.00    +0.076 C 
ATOM     31  C   UNL     1       0.954   3.499  -0.662  0.00  0.00    +0.009 C 
ATOM     32  C   UNL     1       0.432   3.347  -2.091  0.00  0.00    +0.009 C 
ENDBRANCH  21  30
ENDBRANCH  20  22
ENDBRANCH  19  20
ENDBRANCH   1  19
TORSDOF 7
