REMARK  Name = ZINC09684720
REMARK  7 active torsions:
REMARK  status: ('A' for Active; 'I' for Inactive)
REMARK    1  A    between atoms: C_4  and  C_7
REMARK    2  A    between atoms: C_7  and  S_8
REMARK    3  A    between atoms: S_8  and  N_11
REMARK    4  A    between atoms: C_16  and  C_18
REMARK    5  A    between atoms: C_16  and  C_24
REMARK    6  A    between atoms: C_16  and  N_57
REMARK    7  A    between atoms: C_25  and  N_34
REMARK                            x       y       z     vdW  Elec       q    Type
REMARK                         _______ _______ _______ _____ _____    ______ ____
ROOT
ATOM      1  C   UNL     1      -2.535   3.732   0.133  0.00  0.00    +0.002 C 
ENDROOT
BRANCH   1   2
ATOM      2  C   UNL     1      -1.226   2.989   0.071  0.00  0.00    +0.045 A 
ATOM      3  C   UNL     1      -1.204   1.643  -0.168  0.00  0.00    +0.104 A 
ATOM      4  N   UNL     1       0.002   0.986  -0.215  0.00  0.00    -0.296 N 
ATOM      5  H   UNL     1       0.025   0.000  -0.381  0.00  0.00    +0.172 HD
ATOM      6  C   UNL     1       1.152   1.661  -0.039  0.00  0.00    +0.328 A 
ATOM      7  O   UNL     1       2.211   1.065  -0.088  0.00  0.00    -0.247 OA
ATOM      8  N   UNL     1       1.149   2.987   0.192  0.00  0.00    -0.275 N 
ATOM      9  H   UNL     1       2.015   3.470   0.320  0.00  0.00    +0.173 HD
ATOM     10  C   UNL     1      -0.012   3.669   0.251  0.00  0.00    +0.258 A 
ATOM     11  O   UNL     1      -0.007   4.870   0.460  0.00  0.00    -0.267 OA
BRANCH   3  12
ATOM     12  N   UNL     1      -2.375   0.953  -0.352  0.00  0.00    -0.344 N 
ATOM     13  H   UNL     1      -2.364  -0.015  -0.414  0.00  0.00    +0.144 HD
ATOM     14  H   UNL     1      -3.215   1.434  -0.421  0.00  0.00    +0.144 HD
ENDBRANCH   3  12
ENDBRANCH   1   2
BRANCH   1  20
ATOM     15  N   UNL     1      -3.432   5.454   3.854  0.00  0.00    -0.184 NA
ATOM     16  C   UNL     1      -3.791   6.228   2.656  0.00  0.00    +0.090 C 
ATOM     17  C   UNL     1      -3.851   5.272   1.459  0.00  0.00    -0.060 C 
ATOM     18  C   UNL     1      -2.371   3.690   2.549  0.00  0.00    -0.060 C 
ATOM     19  C   UNL     1      -2.251   4.581   3.790  0.00  0.00    +0.090 C 
ATOM     20  N   UNL     1      -2.563   4.552   1.362  0.00  0.00    +0.389 N 
ATOM     21  H   UNL     1      -1.800   5.238   1.322  0.00  0.00    -0.080 HD
BRANCH  15  22
ATOM     22  S   UNL     1      -4.333   5.564   5.239  0.00  0.00    +0.036 S 
ATOM     23  O   UNL     1      -3.430   5.238   6.286  0.00  0.00    -0.158 OA
ATOM     24  O   UNL     1      -4.938   6.849   5.177  0.00  0.00    -0.158 OA
BRANCH  22  25
ATOM     25  C   UNL     1      -5.596   4.271   5.077  0.00  0.00    +0.220 C 
BRANCH  25  29
ATOM     26  C   UNL     1      -8.110   4.295   8.530  0.00  0.00    +0.000 A 
ATOM     27  C   UNL     1      -8.434   5.073   7.433  0.00  0.00    +0.000 A 
ATOM     28  C   UNL     1      -7.620   5.065   6.316  0.00  0.00    +0.005 A 
ATOM     29  C   UNL     1      -6.483   4.280   6.295  0.00  0.00    -0.025 A 
ATOM     30  C   UNL     1      -6.162   3.499   7.389  0.00  0.00    +0.005 A 
ATOM     31  C   UNL     1      -6.973   3.510   8.508  0.00  0.00    +0.000 A 
ENDBRANCH  25  29
ENDBRANCH  22  25
ENDBRANCH  15  22
ENDBRANCH   1  20
BRANCH   1  32
ATOM     32  C   UNL     1      -2.654   4.642  -1.062  0.00  0.00    -0.056 A 
ATOM     33  C   UNL     1      -2.006   5.864  -1.068  0.00  0.00    +0.002 A 
ATOM     34  C   UNL     1      -2.111   6.696  -2.167  0.00  0.00    +0.000 A 
ATOM     35  C   UNL     1      -2.872   6.312  -3.255  0.00  0.00    +0.000 A 
ATOM     36  C   UNL     1      -3.523   5.093  -3.247  0.00  0.00    +0.000 A 
ATOM     37  C   UNL     1      -3.415   4.258  -2.151  0.00  0.00    +0.002 A 
ENDBRANCH   1  32
TORSDOF 7
