REMARK  Name = ZINC37435612
REMARK  14 active torsions:
REMARK  status: ('A' for Active; 'I' for Inactive)
REMARK    1  A    between atoms: C_1  and  C_2
REMARK    2  A    between atoms: N_4  and  C_20
REMARK    3  A    between atoms: N_6  and  C_7
REMARK    4  A    between atoms: C_7  and  C_9
REMARK    5  A    between atoms: C_12  and  O_17
REMARK    6  A    between atoms: C_13  and  O_15
REMARK    7  A    between atoms: O_15  and  C_16
REMARK    8  A    between atoms: O_17  and  C_18
REMARK    9  A    between atoms: C_20  and  C_21
REMARK   10  A    between atoms: C_24  and  C_27
REMARK   11  A    between atoms: N_29  and  C_30
REMARK   12  A    between atoms: C_30  and  C_31
REMARK   13  A    between atoms: C_31  and  O_32
REMARK   14  A    between atoms: O_32  and  C_33
REMARK                            x       y       z     vdW  Elec       q    Type
REMARK                         _______ _______ _______ _____ _____    ______ ____
ROOT
ATOM      1  C   UNL     1      -0.018   1.503   0.010  0.00  0.00    +0.053 C 
ATOM      2  C   UNL     1       0.002  -0.004   0.002  0.00  0.00    +0.006 A 
ATOM      3  C   UNL     1      -1.026  -0.860   0.002  0.00  0.00    +0.098 A 
ATOM      4  N   UNL     1      -0.732  -2.188  -0.007  0.00  0.00    -0.324 N 
ATOM      5  C   UNL     1       0.574  -2.571  -0.014  0.00  0.00    +0.166 A 
ATOM      6  N   UNL     1       1.075  -3.805  -0.023  0.00  0.00    -0.152 NA
ATOM      7  S   UNL     1       1.403  -1.107  -0.018  0.00  0.00    -0.057 S 
ENDROOT
BRANCH   6   8
ATOM      8  C   UNL     1       2.398  -3.989  -0.030  0.00  0.00    +0.270 C 
ATOM      9  O   UNL     1       3.147  -3.027  -0.028  0.00  0.00    -0.268 OA
BRANCH   8  10
ATOM     10  C   UNL     1       2.954  -5.360  -0.040  0.00  0.00    +0.042 A 
ATOM     11  C   UNL     1       2.097  -6.462  -0.048  0.00  0.00    +0.017 A 
ATOM     12  C   UNL     1       2.616  -7.739  -0.057  0.00  0.00    +0.050 A 
ATOM     13  C   UNL     1       3.991  -7.932  -0.058  0.00  0.00    +0.162 A 
ATOM     14  C   UNL     1       4.851  -6.836  -0.049  0.00  0.00    +0.162 A 
ATOM     15  C   UNL     1       4.336  -5.553  -0.047  0.00  0.00    +0.062 A 
BRANCH  14  16
ATOM     16  O   UNL     1       6.198  -7.028  -0.049  0.00  0.00    -0.491 OA
ATOM     17  C   UNL     1       7.020  -5.859  -0.041  0.00  0.00    +0.277 C 
ENDBRANCH  14  16
BRANCH  13  18
ATOM     18  O   UNL     1       4.498  -9.192  -0.066  0.00  0.00    -0.491 OA
ATOM     19  C   UNL     1       3.559 -10.270  -0.074  0.00  0.00    +0.277 C 
ENDBRANCH  13  18
ENDBRANCH   8  10
ENDBRANCH   6   8
BRANCH   4  20
ATOM     20  C   UNL     1      -1.802  -3.188  -0.007  0.00  0.00    +0.158 C 
BRANCH  20  21
ATOM     21  C   UNL     1      -2.175  -3.524  -1.428  0.00  0.00    -0.028 A 
ATOM     22  C   UNL     1      -3.161  -2.798  -2.071  0.00  0.00    +0.006 A 
ATOM     23  C   UNL     1      -3.508  -3.100  -3.372  0.00  0.00    +0.013 A 
ATOM     24  C   UNL     1      -2.861  -4.142  -4.039  0.00  0.00    +0.037 A 
ATOM     25  C   UNL     1      -1.867  -4.871  -3.384  0.00  0.00    +0.013 A 
ATOM     26  C   UNL     1      -1.526  -4.554  -2.085  0.00  0.00    +0.006 A 
BRANCH  24  27
ATOM     27  C   UNL     1      -3.227  -4.471  -5.433  0.00  0.00    +0.244 C 
ATOM     28  O   UNL     1      -4.094  -3.835  -6.000  0.00  0.00    -0.270 OA
ATOM     29  N   UNL     1      -2.601  -5.478  -6.074  0.00  0.00    -0.309 N 
ATOM     30  H   UNL     1      -1.910  -5.986  -5.621  0.00  0.00    +0.149 HD
BRANCH  29  31
ATOM     31  C   UNL     1      -2.964  -5.805  -7.455  0.00  0.00    +0.132 C 
BRANCH  31  32
ATOM     32  C   UNL     1      -2.110  -6.976  -7.944  0.00  0.00    +0.178 C 
BRANCH  32  33
ATOM     33  O   UNL     1      -2.425  -8.145  -7.183  0.00  0.00    -0.381 OA
ATOM     34  C   UNL     1      -1.678  -9.303  -7.561  0.00  0.00    +0.194 C 
ENDBRANCH  32  33
ENDBRANCH  31  32
ENDBRANCH  29  31
ENDBRANCH  24  27
ENDBRANCH  20  21
ENDBRANCH   4  20
TORSDOF 10
