REMARK  Name = ZINC12986280
REMARK  9 active torsions:
REMARK  status: ('A' for Active; 'I' for Inactive)
REMARK    1  A    between atoms: C_1  and  C_2
REMARK    2  A    between atoms: C_2  and  C_3
REMARK    3  A    between atoms: C_2  and  C_4
REMARK    4  A    between atoms: C_2  and  C_5
REMARK    5  A    between atoms: C_12  and  C_14
REMARK    6  A    between atoms: N_16  and  N_17
REMARK    7  A    between atoms: C_18  and  C_20
REMARK    8  A    between atoms: C_25  and  S_26
REMARK    9  A    between atoms: S_26  and  C_29
REMARK                            x       y       z     vdW  Elec       q    Type
REMARK                         _______ _______ _______ _____ _____    ______ ____
ROOT
ATOM      1  C   UNL     1      -1.123  -0.944   0.007  0.00  0.00    +0.267 C 
ATOM      2  O   UNL     1      -0.914  -2.143  -0.002  0.00  0.00    -0.268 OA
ATOM      3  N   UNL     1      -2.388  -0.480   0.021  0.00  0.00    -0.230 N 
ATOM      4  H   UNL     1      -2.555   0.475   0.028  0.00  0.00    +0.173 HD
ENDROOT
BRANCH   1  11
ATOM      5  C   UNL     1       4.399   1.939   0.435  0.00  0.00    -0.001 C 
ATOM      6  C   UNL     1       3.865   3.110  -0.394  0.00  0.00    +0.009 C 
ATOM      7  C   UNL     1       2.402   3.364  -0.004  0.00  0.00    +0.043 C 
ATOM      8  C   UNL     1       1.679   2.053  -0.003  0.00  0.00    -0.006 A 
ATOM      9  C   UNL     1       2.235   0.805  -0.014  0.00  0.00    -0.036 A 
ATOM     10  C   UNL     1       1.359  -0.268  -0.012  0.00  0.00    +0.024 A 
ATOM     11  C   UNL     1       0.002  -0.004   0.002  0.00  0.00    +0.076 A 
ATOM     12  S   UNL     1      -0.022   1.781   0.012  0.00  0.00    -0.088 S 
ATOM     13  C   UNL     1       3.752   0.633  -0.028  0.00  0.00    +0.040 C 
BRANCH   5  15
ATOM     14  C   UNL     1       6.567   3.144   0.734  0.00  0.00    +0.011 C 
ATOM     15  C   UNL     1       5.916   1.843   0.261  0.00  0.00    -0.035 C 
ATOM     16  C   UNL     1       6.452   0.673   1.089  0.00  0.00    +0.011 C 
ATOM     17  C   UNL     1       6.246   1.615  -1.216  0.00  0.00    +0.011 C 
ENDBRANCH   5  15
ENDBRANCH   1  11
BRANCH   3  18
ATOM     18  N   UNL     1      -3.463  -1.379   0.025  0.00  0.00    -0.230 N 
ATOM     19  C   UNL     1      -4.729  -0.915   0.039  0.00  0.00    +0.262 C 
ATOM     20  O   UNL     1      -4.937   0.282   0.048  0.00  0.00    -0.269 OA
ATOM     21  H   UNL     1      -3.297  -2.334   0.018  0.00  0.00    +0.173 HD
BRANCH  19  22
ATOM     22  C   UNL     1      -5.863  -1.863   0.044  0.00  0.00    +0.063 A 
ATOM     23  C   UNL     1      -5.627  -3.239   0.034  0.00  0.00    +0.015 A 
ATOM     24  C   UNL     1      -6.690  -4.118   0.038  0.00  0.00    +0.001 A 
ATOM     25  C   UNL     1      -7.988  -3.639   0.053  0.00  0.00    +0.002 A 
ATOM     26  C   UNL     1      -8.229  -2.276   0.063  0.00  0.00    +0.028 A 
ATOM     27  C   UNL     1      -7.175  -1.386   0.064  0.00  0.00    +0.100 A 
BRANCH  27  28
ATOM     28  S   UNL     1      -7.484   0.348   0.085  0.00  0.00    -0.005 S 
ATOM     29  O   UNL     1      -6.709   0.867  -0.988  0.00  0.00    -0.170 OA
ATOM     30  O   UNL     1      -8.900   0.465   0.078  0.00  0.00    -0.170 OA
ATOM     31  C   UNL     1      -6.817   0.922   1.671  0.00  0.00    +0.200 C 
ENDBRANCH  27  28
ENDBRANCH  19  22
ENDBRANCH   3  18
TORSDOF 5
