REMARK  Name = ZINC31057666
REMARK  10 active torsions:
REMARK  status: ('A' for Active; 'I' for Inactive)
REMARK    1  A    between atoms: C_1  and  C_2
REMARK    2  A    between atoms: C_2  and  C_3
REMARK    3  A    between atoms: C_3  and  C_5
REMARK    4  A    between atoms: C_3  and  C_12
REMARK    5  A    between atoms: C_5  and  C_6
REMARK    6  A    between atoms: C_12  and  N_13
REMARK    7  A    between atoms: C_14  and  C_16
REMARK    8  A    between atoms: N_21  and  C_23
REMARK    9  A    between atoms: C_23  and  C_24
REMARK   10  A    between atoms: C_26  and  C_29
REMARK                            x       y       z     vdW  Elec       q    Type
REMARK                         _______ _______ _______ _____ _____    ______ ____
ROOT
ATOM      1  C   UNL     1      -0.370   7.829   3.687  0.00  0.00    +0.058 C 
ATOM      2  C   UNL     1       0.748   7.761   4.731  0.00  0.00    +0.009 C 
ATOM      3  C   UNL     1       0.269   8.424   6.025  0.00  0.00    -0.018 C 
ATOM      4  C   UNL     1      -0.140   9.869   5.730  0.00  0.00    -0.078 C 
ATOM      5  N   UNL     1      -1.213   9.880   4.727  0.00  0.00    +0.386 N 
ATOM      6  C   UNL     1      -0.761   9.291   3.460  0.00  0.00    -0.065 C 
ATOM      7  H   UNL     1      -2.037   9.260   5.110  0.00  0.00    -0.081 HD
ENDROOT
BRANCH   1   9
ATOM      8  N   UNL     1       0.518   5.945   2.352  0.00  0.00    -0.315 N 
ATOM      9  C   UNL     1       0.114   7.231   2.391  0.00  0.00    +0.214 C 
ATOM     10  O   UNL     1       0.140   7.906   1.384  0.00  0.00    -0.276 OA
ATOM     11  H   UNL     1       0.494   5.333   3.265  0.00  0.00    +0.149 HD
BRANCH   8  12
ATOM     12  C   UNL     1       0.988   5.364   1.092  0.00  0.00    +0.108 C 
BRANCH  12  13
ATOM     13  C   UNL     1       1.376   3.901   1.319  0.00  0.00    +0.010 C 
BRANCH  13  15
ATOM     14  C   UNL     1       3.707   4.679   1.772  0.00  0.00    +0.004 C 
ATOM     15  C   UNL     1       2.548   3.831   2.300  0.00  0.00    +0.002 C 
ENDBRANCH  13  15
BRANCH  13  16
ATOM     16  C   UNL     1       1.788   3.270  -0.013  0.00  0.00    +0.040 C 
BRANCH  16  17
ATOM     17  C   UNL     1       2.052   1.800   0.188  0.00  0.00    -0.047 A 
ATOM     18  C   UNL     1       1.025   0.887   0.039  0.00  0.00    +0.003 A 
ATOM     19  C   UNL     1       1.268  -0.462   0.223  0.00  0.00    +0.000 A 
ATOM     20  C   UNL     1       2.537  -0.896   0.556  0.00  0.00    +0.000 A 
ATOM     21  C   UNL     1       3.564   0.017   0.705  0.00  0.00    +0.000 A 
ATOM     22  C   UNL     1       3.322   1.365   0.520  0.00  0.00    +0.003 A 
ENDBRANCH  16  17
ENDBRANCH  13  16
ENDBRANCH  12  13
ENDBRANCH   8  12
ENDBRANCH   1   9
BRANCH   5  23
ATOM     23  C   UNL     1      -1.727  11.241   4.521  0.00  0.00    +0.022 C 
BRANCH  23  24
ATOM     24  C   UNL     1      -2.407  11.717   5.779  0.00  0.00    +0.211 A 
ATOM     25  N   UNL     1      -1.843  12.354   6.773  0.00  0.00    -0.192 NA
ATOM     26  C   UNL     1      -2.833  12.578   7.670  0.00  0.00    +0.209 A 
ATOM     27  N   UNL     1      -3.928  12.057   7.172  0.00  0.00    -0.056 NA
ATOM     28  O   UNL     1      -3.698  11.561   6.090  0.00  0.00    -0.340 OA
BRANCH  26  29
ATOM     29  C   UNL     1      -2.702  13.271   8.967  0.00  0.00    +0.060 A 
ATOM     30  C   UNL     1      -3.662  13.526   9.911  0.00  0.00    +0.019 A 
ATOM     31  C   UNL     1      -3.301  14.194  11.059  0.00  0.00    +0.008 A 
ATOM     32  C   UNL     1      -2.011  14.589  11.217  0.00  0.00    +0.046 A 
ATOM     33  S   UNL     1      -1.253  14.004   9.710  0.00  0.00    -0.093 S 
ENDBRANCH  26  29
ENDBRANCH  23  24
ENDBRANCH   5  23
TORSDOF 9
