REMARK  Name = ZINC01412225
REMARK  4 active torsions:
REMARK  status: ('A' for Active; 'I' for Inactive)
REMARK    1  A    between atoms: C_6  and  C_7
REMARK    2  A    between atoms: N_12  and  C_13
REMARK    3  A    between atoms: C_13  and  C_18
REMARK    4  A    between atoms: N_20  and  C_21
REMARK                            x       y       z     vdW  Elec       q    Type
REMARK                         _______ _______ _______ _____ _____    ______ ____
ROOT
ATOM      1  C   UNL     1      -2.300   0.219   2.397  0.00  0.00    +0.114 C 
ATOM      2  C   UNL     1      -2.066  -1.126   3.107  0.00  0.00    +0.035 C 
ATOM      3  C   UNL     1      -3.282  -1.356   4.028  0.00  0.00    +0.003 C 
ATOM      4  C   UNL     1      -4.408  -0.504   3.390  0.00  0.00    +0.003 C 
ATOM      5  C   UNL     1      -3.651   0.759   2.911  0.00  0.00    +0.035 C 
ENDROOT
BRANCH   1  10
ATOM      6  C   UNL     1      -2.509   0.902  -0.209  0.00  0.00    +0.116 C 
ATOM      7  C   UNL     1      -2.443  -0.298  -1.154  0.00  0.00    +0.123 C 
ATOM      8  C   UNL     1      -2.299  -1.056   0.138  0.00  0.00    +0.219 C 
ATOM      9  O   UNL     1      -2.172  -2.240   0.372  0.00  0.00    -0.275 OA
ATOM     10  N   UNL     1      -2.360   0.017   0.947  0.00  0.00    -0.280 N 
BRANCH   6  16
ATOM     11  C   UNL     1      -5.004   0.896  -0.034  0.00  0.00    +0.009 A 
ATOM     12  C   UNL     1      -6.227   1.541  -0.065  0.00  0.00    +0.050 A 
ATOM     13  C   UNL     1      -6.287   2.903  -0.306  0.00  0.00    +0.166 A 
ATOM     14  C   UNL     1      -5.112   3.622  -0.517  0.00  0.00    +0.167 A 
ATOM     15  C   UNL     1      -3.891   2.970  -0.485  0.00  0.00    +0.055 A 
ATOM     16  C   UNL     1      -3.839   1.609  -0.244  0.00  0.00    -0.023 A 
ATOM     17  O   UNL     1      -5.434   4.931  -0.730  0.00  0.00    -0.453 OA
ATOM     18  C   UNL     1      -6.837   4.935  -1.052  0.00  0.00    +0.466 C 
ATOM     19  O   UNL     1      -7.344   3.763  -0.386  0.00  0.00    -0.453 OA
ENDBRANCH   6  16
ENDBRANCH   1  10
BRANCH   1  20
ATOM     20  C   UNL     1      -1.194   1.184   2.739  0.00  0.00    +0.237 C 
ATOM     21  O   UNL     1      -1.334   1.966   3.656  0.00  0.00    -0.273 OA
ATOM     22  N   UNL     1      -0.051   1.178   2.026  0.00  0.00    -0.311 N 
ATOM     23  H   UNL     1       0.090   0.506   1.341  0.00  0.00    +0.149 HD
BRANCH  22  24
ATOM     24  C   UNL     1       0.980   2.186   2.287  0.00  0.00    +0.073 C 
ATOM     25  C   UNL     1       0.614   3.487   1.569  0.00  0.00    +0.022 C 
ATOM     26  C   UNL     1       1.691   4.539   1.841  0.00  0.00    +0.002 C 
ATOM     27  C   UNL     1       3.040   4.034   1.326  0.00  0.00    +0.000 C 
ATOM     28  C   UNL     1       3.406   2.733   2.043  0.00  0.00    +0.002 C 
ATOM     29  C   UNL     1       2.329   1.681   1.771  0.00  0.00    +0.022 C 
ENDBRANCH  22  24
ENDBRANCH   1  20
TORSDOF 4
