REMARK  Name = ZINC06979101
REMARK  9 active torsions:
REMARK  status: ('A' for Active; 'I' for Inactive)
REMARK    1  A    between atoms: C_1  and  C_2
REMARK    2  A    between atoms: C_2  and  C_3
REMARK    3  A    between atoms: C_3  and  N_4
REMARK    4  A    between atoms: C_8  and  S_25
REMARK    5  A    between atoms: C_12  and  S_13
REMARK    6  A    between atoms: S_13  and  C_14
REMARK    7  A    between atoms: C_14  and  C_15
REMARK    8  A    between atoms: C_21  and  C_24
REMARK    9  A    between atoms: S_25  and  N_28
REMARK                            x       y       z     vdW  Elec       q    Type
REMARK                         _______ _______ _______ _____ _____    ______ ____
ROOT
ATOM      1  N   UNL     1       2.296  -1.251  -8.120  0.00  0.00    -0.319 N 
ATOM      2  C   UNL     1       1.643  -1.236  -9.341  0.00  0.00    +0.070 A 
ATOM      3  C   UNL     1       2.071  -1.204 -10.660  0.00  0.00    +0.030 A 
ATOM      4  C   UNL     1       1.146  -1.197 -11.683  0.00  0.00    +0.030 A 
ATOM      5  C   UNL     1      -0.212  -1.220 -11.401  0.00  0.00    +0.107 A 
ATOM      6  C   UNL     1      -0.655  -1.251 -10.098  0.00  0.00    +0.058 A 
ATOM      7  C   UNL     1       0.269  -1.260  -9.051  0.00  0.00    +0.092 A 
ATOM      8  N   UNL     1       0.147  -1.293  -7.698  0.00  0.00    -0.222 NA
ATOM      9  C   UNL     1       1.336  -1.283  -7.148  0.00  0.00    +0.170 A 
ENDROOT
BRANCH   5  10
ATOM     10  S   UNL     1      -1.379  -1.210 -12.722  0.00  0.00    +0.056 S 
ATOM     11  O   UNL     1      -2.588  -0.685 -12.191  0.00  0.00    -0.153 OA
ATOM     12  O   UNL     1      -0.722  -0.629 -13.840  0.00  0.00    -0.153 OA
BRANCH  10  13
ATOM     13  N   UNL     1      -1.683  -2.789 -13.119  0.00  0.00    -0.204 NA
ATOM     14  H   UNL     1      -1.237  -3.504 -12.638  0.00  0.00    +0.144 HD
ATOM     15  H   UNL     1      -2.306  -2.998 -13.832  0.00  0.00    +0.144 HD
ENDBRANCH  10  13
ENDBRANCH   5  10
BRANCH   1  16
ATOM     16  C   UNL     1       3.746  -1.237  -7.909  0.00  0.00    +0.124 C 
BRANCH  16  18
ATOM     17  C   UNL     1       5.783  -2.659  -7.644  0.00  0.00    +0.005 C 
ATOM     18  C   UNL     1       4.269  -2.674  -7.864  0.00  0.00    +0.018 C 
ENDBRANCH  16  18
ENDBRANCH   1  16
BRANCH   9  19
ATOM     19  S   UNL     1       1.651  -1.313  -5.414  0.00  0.00    -0.081 S 
BRANCH  19  20
ATOM     20  C   UNL     1      -0.047  -1.347  -4.788  0.00  0.00    +0.134 C 
BRANCH  20  21
ATOM     21  C   UNL     1      -0.026  -1.377  -3.281  0.00  0.00    +0.070 A 
ATOM     22  C   UNL     1       0.011  -2.489  -2.515  0.00  0.00    +0.116 A 
ATOM     23  N   UNL     1       0.018  -2.080  -1.209  0.00  0.00    -0.306 N 
ATOM     24  C   UNL     1       0.038  -2.763  -0.028  0.00  0.00    +0.093 A 
ATOM     25  C   UNL     1       0.041  -2.102   1.149  0.00  0.00    +0.018 A 
ATOM     26  C   UNL     1       0.023  -0.697   1.172  0.00  0.00    +0.008 A 
ATOM     27  C   UNL     1       0.002  -0.004   0.002  0.00  0.00    -0.008 A 
ATOM     28  C   UNL     1      -0.006  -0.709  -1.218  0.00  0.00    +0.141 A 
ATOM     29  N   UNL     1      -0.029  -0.308  -2.481  0.00  0.00    -0.232 NA
ATOM     30  C   UNL     1      -0.018   1.503   0.010  0.00  0.00    +0.047 C 
ENDBRANCH  20  21
ENDBRANCH  19  20
ENDBRANCH   9  19
TORSDOF 7
