REMARK  Name = ZINC24147813
REMARK  15 active torsions:
REMARK  status: ('A' for Active; 'I' for Inactive)
REMARK    1  A    between atoms: C_1  and  C_2
REMARK    2  A    between atoms: C_2  and  C_3
REMARK    3  A    between atoms: C_3  and  S_4
REMARK    4  A    between atoms: S_4  and  C_5
REMARK    5  A    between atoms: C_8  and  C_11
REMARK    6  A    between atoms: C_12  and  C_22
REMARK    7  A    between atoms: N_14  and  C_16
REMARK    8  A    between atoms: C_23  and  C_34
REMARK    9  A    between atoms: C_24  and  C_33
REMARK   10  A    between atoms: C_26  and  C_32
REMARK   11  A    between atoms: C_27  and  C_28
REMARK   12  A    between atoms: C_28  and  O_30
REMARK   13  A    between atoms: O_30  and  C_31
REMARK   14  A    between atoms: C_34  and  O_36
REMARK   15  A    between atoms: O_36  and  C_37
REMARK                            x       y       z     vdW  Elec       q    Type
REMARK                         _______ _______ _______ _____ _____    ______ ____
ROOT
ATOM      1  C   UNL     1       0.373   4.803  -1.272  0.00  0.00    +0.097 A 
ATOM      2  C   UNL     1      -0.655   3.843  -1.200  0.00  0.00    +0.011 A 
ATOM      3  C   UNL     1      -1.288   3.822  -2.393  0.00  0.00    +0.119 A 
ATOM      4  N   UNL     1      -0.693   4.742  -3.196  0.00  0.00    -0.239 N 
ATOM      5  N   UNL     1       0.346   5.341  -2.474  0.00  0.00    -0.166 NA
ENDROOT
BRANCH   2   6
ATOM      6  C   UNL     1      -0.986   2.986  -0.005  0.00  0.00    +0.099 C 
ATOM      7  C   UNL     1      -2.429   3.184   0.361  0.00  0.00    +0.065 C 
ATOM      8  C   UNL     1      -3.360   2.260   0.067  0.00  0.00    +0.016 C 
ATOM      9  N   UNL     1      -3.018   1.099  -0.573  0.00  0.00    -0.321 N 
ATOM     10  C   UNL     1      -1.714   0.689  -0.610  0.00  0.00    +0.016 C 
ATOM     11  C   UNL     1      -0.714   1.546  -0.339  0.00  0.00    +0.065 C 
ATOM     12  C   UNL     1      -1.393  -0.743  -0.955  0.00  0.00    +0.061 C 
ATOM     13  C   UNL     1      -4.798   2.505   0.446  0.00  0.00    +0.061 C 
ATOM     14  H   UNL     1      -3.794   0.490  -1.060  0.00  0.00    +0.152 HD
BRANCH  11  15
ATOM     15  C   UNL     1       0.622   1.085  -0.374  0.00  0.00    +0.337 C 
ATOM     16  O   UNL     1       1.189   0.785   0.660  0.00  0.00    -0.245 OA
BRANCH  15  17
ATOM     17  O   UNL     1       1.266   0.971  -1.555  0.00  0.00    -0.465 OA
ATOM     18  C   UNL     1       2.612   0.492  -1.516  0.00  0.00    +0.280 C 
ENDBRANCH  15  17
ENDBRANCH  11  15
BRANCH   7  19
ATOM     19  C   UNL     1      -2.817   4.368   1.030  0.00  0.00    +0.337 C 
ATOM     20  O   UNL     1      -2.615   4.486   2.224  0.00  0.00    -0.245 OA
BRANCH  19  21
ATOM     21  O   UNL     1      -3.411   5.367   0.343  0.00  0.00    -0.465 OA
ATOM     22  C   UNL     1      -3.777   6.534   1.083  0.00  0.00    +0.280 C 
ENDBRANCH  19  21
ENDBRANCH   7  19
ENDBRANCH   2   6
BRANCH   1  26
ATOM     23  C   UNL     1       3.092   5.792   1.847  0.00  0.00    +0.008 A 
ATOM     24  C   UNL     1       3.553   5.652   0.543  0.00  0.00    +0.015 A 
ATOM     25  C   UNL     1       2.674   5.332  -0.469  0.00  0.00    +0.011 A 
ATOM     26  C   UNL     1       1.321   5.148  -0.184  0.00  0.00    +0.002 A 
ATOM     27  C   UNL     1       0.860   5.295   1.123  0.00  0.00    +0.011 A 
ATOM     28  C   UNL     1       1.743   5.610   2.134  0.00  0.00    +0.015 A 
BRANCH  23  29
ATOM     29  S   UNL     1       4.218   6.203   3.139  0.00  0.00    -0.125 S 
BRANCH  29  30
ATOM     30  C   UNL     1       3.176   6.274   4.623  0.00  0.00    +0.074 C 
BRANCH  30  32
ATOM     31  C   UNL     1       3.161   6.687   7.087  0.00  0.00    +0.004 C 
ATOM     32  C   UNL     1       4.040   6.627   5.836  0.00  0.00    +0.008 C 
ENDBRANCH  30  32
ENDBRANCH  29  30
ENDBRANCH  23  29
ENDBRANCH   1  26
BRANCH   4  33
ATOM     33  C   UNL     1      -1.053   5.036  -4.518  0.00  0.00    +0.065 A 
ATOM     34  C   UNL     1      -2.106   4.359  -5.120  0.00  0.00    +0.028 A 
ATOM     35  C   UNL     1      -2.461   4.656  -6.421  0.00  0.00    +0.002 A 
ATOM     36  C   UNL     1      -1.762   5.616  -7.129  0.00  0.00    +0.000 A 
ATOM     37  C   UNL     1      -0.710   6.288  -6.534  0.00  0.00    +0.002 A 
ATOM     38  C   UNL     1      -0.353   6.001  -5.231  0.00  0.00    +0.028 A 
ENDBRANCH   4  33
TORSDOF 10
