REMARK  Name = ZINC12942570
REMARK  8 active torsions:
REMARK  status: ('A' for Active; 'I' for Inactive)
REMARK    1  A    between atoms: C_1  and  C_2
REMARK    2  A    between atoms: C_3  and  C_13
REMARK    3  A    between atoms: C_4  and  C_12
REMARK    4  A    between atoms: C_13  and  C_14
REMARK    5  A    between atoms: C_14  and  C_15
REMARK    6  A    between atoms: N_17  and  C_18
REMARK    7  A    between atoms: C_18  and  C_20
REMARK    8  A    between atoms: C_18  and  C_21
REMARK                            x       y       z     vdW  Elec       q    Type
REMARK                         _______ _______ _______ _____ _____    ______ ____
ROOT
ATOM      1  C   UNL     1       2.127  -2.485   0.261  0.00  0.00    +0.048 C 
ENDROOT
BRANCH   1   4
ATOM      2  C   UNL     1      -0.104  -0.637   0.555  0.00  0.00    +0.066 C 
ATOM      3  C   UNL     1       1.309  -0.113   0.518  0.00  0.00    +0.047 A 
ATOM      4  C   UNL     1       2.379  -1.004   0.377  0.00  0.00    -0.005 A 
ATOM      5  C   UNL     1       3.647  -0.518   0.345  0.00  0.00    +0.048 A 
ATOM      6  N   UNL     1       3.843   0.822   0.452  0.00  0.00    -0.199 N 
ATOM      7  C   UNL     1       2.776   1.665   0.589  0.00  0.00    +0.255 A 
ATOM      8  N   UNL     1       1.531   1.178   0.619  0.00  0.00    -0.216 NA
ATOM      9  N   UNL     1       3.257   2.902   0.670  0.00  0.00    -0.176 NA
ATOM     10  C   UNL     1       4.585   2.874   0.589  0.00  0.00    +0.234 A 
ATOM     11  N   UNL     1       4.990   1.627   0.456  0.00  0.00    -0.128 NA
ATOM     12  N   UNL     1       5.417   3.989   0.639  0.00  0.00    -0.326 N 
ATOM     13  C   UNL     1       4.820  -1.452   0.194  0.00  0.00    +0.066 C 
ATOM     14  H   UNL     1       6.378   3.880   0.573  0.00  0.00    +0.145 HD
ATOM     15  H   UNL     1       5.035   4.875   0.740  0.00  0.00    +0.145 HD
ENDBRANCH   1   4
BRANCH   1  16
ATOM     16  C   UNL     1       1.958  -2.861  -1.212  0.00  0.00    +0.100 C 
BRANCH  16  17
ATOM     17  C   UNL     1       1.706  -4.342  -1.328  0.00  0.00    +0.214 C 
ATOM     18  O   UNL     1       1.666  -5.030  -0.330  0.00  0.00    -0.276 OA
ATOM     19  N   UNL     1       1.525  -4.902  -2.540  0.00  0.00    -0.309 N 
ATOM     20  H   UNL     1       1.557  -4.352  -3.338  0.00  0.00    +0.149 HD
BRANCH  19  21
ATOM     21  C   UNL     1       1.281  -6.342  -2.652  0.00  0.00    +0.101 C 
ATOM     22  C   UNL     1      -0.218  -6.617  -2.516  0.00  0.00    +0.033 C 
BRANCH  21  23
ATOM     23  C   UNL     1       1.761  -6.830  -3.994  0.00  0.00    -0.014 A 
ATOM     24  C   UNL     1       1.801  -5.964  -5.071  0.00  0.00    +0.006 A 
ATOM     25  C   UNL     1       2.246  -6.411  -6.301  0.00  0.00    +0.000 A 
ATOM     26  C   UNL     1       2.642  -7.726  -6.458  0.00  0.00    +0.001 A 
ATOM     27  C   UNL     1       2.598  -8.594  -5.383  0.00  0.00    +0.015 A 
ATOM     28  C   UNL     1       2.157  -8.146  -4.151  0.00  0.00    +0.023 A 
ATOM     29 BR   UNL     1       2.095  -9.334  -2.680  0.00  0.00    -0.050 Br
ENDBRANCH  21  23
ENDBRANCH  19  21
ENDBRANCH  16  17
ENDBRANCH   1  16
TORSDOF 5
