REMARK  Name = ZINC35807384
REMARK  4 active torsions:
REMARK  status: ('A' for Active; 'I' for Inactive)
REMARK    1  A    between atoms: C_1  and  C_2
REMARK    2  A    between atoms: C_2  and  C_3
REMARK    3  A    between atoms: C_23  and  C_31
REMARK    4  A    between atoms: C_31  and  C_33
REMARK                            x       y       z     vdW  Elec       q    Type
REMARK                         _______ _______ _______ _____ _____    ______ ____
ROOT
ATOM      1  C   UNL     1       0.751   0.413   1.425  0.00  0.00    -0.026 A 
ATOM      2  C   UNL     1       2.085   0.089   1.292  0.00  0.00    +0.005 A 
ATOM      3  C   UNL     1       2.750  -0.566   2.312  0.00  0.00    +0.001 A 
ATOM      4  C   UNL     1       2.073  -0.901   3.472  0.00  0.00    +0.004 A 
ATOM      5  C   UNL     1       0.741  -0.580   3.608  0.00  0.00    -0.026 A 
ATOM      6  C   UNL     1       0.064   0.087   2.592  0.00  0.00    +0.039 A 
ATOM      7  N   UNL     1      -1.263   0.312   2.963  0.00  0.00    -0.286 N 
ATOM      8  C   UNL     1      -1.536  -0.166   4.192  0.00  0.00    +0.212 C 
ATOM      9  O   UNL     1      -2.600  -0.110   4.769  0.00  0.00    -0.277 OA
ATOM     10  C   UNL     1      -0.266  -0.795   4.707  0.00  0.00    +0.060 C 
ATOM     11  C   UNL     1       0.177  -0.137   6.008  0.00  0.00    +0.085 C 
ATOM     12  C   UNL     1       1.100   1.024   5.771  0.00  0.00    -0.011 A 
ATOM     13  C   UNL     1       2.316   1.154   5.137  0.00  0.00    +0.006 A 
ATOM     14  C   UNL     1       2.939   2.388   5.082  0.00  0.00    +0.000 A 
ATOM     15  C   UNL     1       2.338   3.489   5.664  0.00  0.00    +0.002 A 
ATOM     16  C   UNL     1       1.121   3.363   6.301  0.00  0.00    +0.023 A 
ATOM     17  C   UNL     1       0.486   2.125   6.361  0.00  0.00    +0.038 A 
ATOM     18  N   UNL     1      -0.728   1.748   6.939  0.00  0.00    -0.285 N 
ATOM     19  C   UNL     1      -0.984   0.436   6.775  0.00  0.00    +0.228 C 
ATOM     20  O   UNL     1      -1.959  -0.167   7.169  0.00  0.00    -0.275 OA
ATOM     21  C   UNL     1       0.871  -1.256   6.795  0.00  0.00    +0.066 C 
ATOM     22  C   UNL     1       0.252  -2.554   6.247  0.00  0.00    -0.055 C 
ATOM     23  N   UNL     1      -0.448  -2.225   4.988  0.00  0.00    +0.395 N 
ATOM     24  C   UNL     1      -1.888  -2.512   5.165  0.00  0.00    -0.076 C 
ATOM     25  C   UNL     1      -1.951  -3.556   6.306  0.00  0.00    -0.020 C 
ATOM     26  C   UNL     1      -0.800  -3.078   7.246  0.00  0.00    -0.016 C 
ATOM     27  H   UNL     1      -1.914   0.760   2.401  0.00  0.00    +0.155 HD
ATOM     28  H   UNL     1      -1.319   2.361   7.404  0.00  0.00    +0.155 HD
ATOM     29  H   UNL     1      -0.078  -2.779   4.230  0.00  0.00    -0.079 HD
ENDROOT
BRANCH   1  31
ATOM     30  C   UNL     1       0.058   2.635   0.570  0.00  0.00    +0.009 C 
ATOM     31  C   UNL     1       0.036   1.128   0.308  0.00  0.00    +0.033 C 
ENDBRANCH   1  31
BRANCH  21  32
ATOM     32  C   UNL     1       2.357  -1.232   6.543  0.00  0.00    +0.166 C 
ATOM     33  O   UNL     1       2.862  -2.061   5.817  0.00  0.00    -0.292 OA
BRANCH  32  34
ATOM     34  C   UNL     1       3.195  -0.203   7.179  0.00  0.00    +0.018 A 
ATOM     35  C   UNL     1       2.616   0.751   8.022  0.00  0.00    +0.011 A 
ATOM     36  C   UNL     1       3.408   1.712   8.615  0.00  0.00    +0.001 A 
ATOM     37  C   UNL     1       4.771   1.734   8.377  0.00  0.00    +0.000 A 
ATOM     38  C   UNL     1       5.351   0.793   7.543  0.00  0.00    +0.001 A 
ATOM     39  C   UNL     1       4.574  -0.178   6.948  0.00  0.00    +0.011 A 
ENDBRANCH  32  34
ENDBRANCH  21  32
TORSDOF 3
