REMARK  Name = ZINC39227579
REMARK  11 active torsions:
REMARK  status: ('A' for Active; 'I' for Inactive)
REMARK    1  A    between atoms: C_1  and  C_2
REMARK    2  A    between atoms: C_2  and  C_3
REMARK    3  A    between atoms: C_2  and  C_4
REMARK    4  A    between atoms: C_2  and  C_31
REMARK    5  A    between atoms: C_4  and  N_5
REMARK    6  A    between atoms: C_6  and  C_8
REMARK    7  A    between atoms: C_12  and  C_14
REMARK    8  A    between atoms: N_27  and  C_30
REMARK    9  A    between atoms: C_31  and  N_32
REMARK   10  A    between atoms: N_32  and  C_33
REMARK   11  A    between atoms: N_32  and  C_34
REMARK                            x       y       z     vdW  Elec       q    Type
REMARK                         _______ _______ _______ _____ _____    ______ ____
ROOT
ATOM      1  C   UNL     1      -4.131   2.025   1.761  0.00  0.00    +0.037 A 
ATOM      2  C   UNL     1      -3.332   3.020   2.328  0.00  0.00    +0.013 A 
ATOM      3  C   UNL     1      -3.890   3.956   3.175  0.00  0.00    +0.001 A 
ATOM      4  C   UNL     1      -5.240   3.914   3.467  0.00  0.00    +0.008 A 
ATOM      5  C   UNL     1      -6.048   2.925   2.907  0.00  0.00    -0.017 A 
ATOM      6  C   UNL     1      -5.494   1.982   2.048  0.00  0.00    +0.021 A 
ENDROOT
BRANCH   5   7
ATOM      7  C   UNL     1      -7.497   2.883   3.223  0.00  0.00    -0.017 A 
ATOM      8  C   UNL     1      -8.305   1.888   2.667  0.00  0.00    +0.012 A 
ATOM      9  C   UNL     1      -9.652   1.839   2.951  0.00  0.00    +0.047 A 
ATOM     10  C   UNL     1     -10.224   2.781   3.797  0.00  0.00    +0.132 A 
ATOM     11  C   UNL     1      -9.415   3.781   4.362  0.00  0.00    +0.060 A 
ATOM     12  C   UNL     1      -8.051   3.828   4.077  0.00  0.00    +0.023 A 
ATOM     13  C   UNL     1     -10.027   4.770   5.268  0.00  0.00    +0.170 C 
ATOM     14  O   UNL     1      -9.354   5.518   5.945  0.00  0.00    -0.292 OA
ATOM     15  C   UNL     1     -11.545   4.803   5.310  0.00  0.00    +0.127 C 
ATOM     16  C   UNL     1     -12.029   3.347   5.260  0.00  0.00    +0.114 C 
ATOM     17  O   UNL     1     -11.549   2.728   4.068  0.00  0.00    -0.485 OA
ATOM     18  C   UNL     1     -11.496   2.595   6.481  0.00  0.00    +0.030 C 
ATOM     19  C   UNL     1     -12.052   1.169   6.478  0.00  0.00    -0.075 C 
ATOM     20  N   UNL     1     -13.518   1.212   6.526  0.00  0.00    +0.378 N 
ATOM     21  C   UNL     1     -14.038   1.867   5.320  0.00  0.00    -0.075 C 
ATOM     22  C   UNL     1     -13.559   3.320   5.277  0.00  0.00    +0.030 C 
ATOM     23  C   UNL     1     -14.044  -0.158   6.603  0.00  0.00    -0.096 C 
ATOM     24  H   UNL     1     -13.812   1.729   7.342  0.00  0.00    -0.082 HD
ENDBRANCH   5   7
BRANCH   1  26
ATOM     25  N   UNL     1      -2.214   1.064   0.578  0.00  0.00    -0.311 N 
ATOM     26  C   UNL     1      -3.532   1.022   0.854  0.00  0.00    +0.244 C 
ATOM     27  O   UNL     1      -4.229   0.159   0.358  0.00  0.00    -0.270 OA
ATOM     28  H   UNL     1      -1.657   1.753   0.975  0.00  0.00    +0.149 HD
BRANCH  25  29
ATOM     29  C   UNL     1      -1.621   0.071  -0.320  0.00  0.00    +0.109 C 
BRANCH  29  31
ATOM     30  C   UNL     1       0.089   1.743  -1.041  0.00  0.00    +0.010 C 
ATOM     31  C   UNL     1      -0.122   0.343  -0.464  0.00  0.00    -0.034 C 
ATOM     32  C   UNL     1       0.546   0.251   0.910  0.00  0.00    +0.010 C 
BRANCH  31  33
ATOM     33  C   UNL     1       0.497  -0.695  -1.402  0.00  0.00    -0.072 C 
BRANCH  33  34
ATOM     34  N   UNL     1       1.927  -0.406  -1.577  0.00  0.00    +0.376 N 
ATOM     35  C   UNL     1       2.689  -1.025  -0.485  0.00  0.00    -0.097 C 
ATOM     36  C   UNL     1       2.382  -0.950  -2.863  0.00  0.00    -0.097 C 
ATOM     37  H   UNL     1       2.072   0.593  -1.564  0.00  0.00    -0.083 HD
ENDBRANCH  33  34
ENDBRANCH  31  33
ENDBRANCH  29  31
ENDBRANCH  25  29
ENDBRANCH   1  26
TORSDOF 6
