REMARK  Name = ZINC08793116
REMARK  8 active torsions:
REMARK  status: ('A' for Active; 'I' for Inactive)
REMARK    1  A    between atoms: C_1  and  C_2
REMARK    2  A    between atoms: C_2  and  C_3
REMARK    3  A    between atoms: C_2  and  N_44
REMARK    4  A    between atoms: C_9  and  N_15
REMARK    5  A    between atoms: C_10  and  C_11
REMARK    6  A    between atoms: C_11  and  O_13
REMARK    7  A    between atoms: O_13  and  C_14
REMARK    8  A    between atoms: C_16  and  C_18
REMARK                            x       y       z     vdW  Elec       q    Type
REMARK                         _______ _______ _______ _____ _____    ______ ____
ROOT
ATOM      1  C   UNL     1       0.427  -1.181  -3.641  0.00  0.00    -0.073 C 
ATOM      2  C   UNL     1      -0.017  -0.121  -2.630  0.00  0.00    +0.018 C 
ATOM      3  C   UNL     1      -0.005  -0.751  -1.242  0.00  0.00    -0.025 A 
ATOM      4  C   UNL     1       0.019  -2.096  -1.108  0.00  0.00    -0.021 A 
ATOM      5  S   UNL     1       0.040  -2.377   0.638  0.00  0.00    -0.079 S 
ATOM      6  C   UNL     1       0.023  -0.733   1.186  0.00  0.00    +0.086 A 
ATOM      7  C   UNL     1       0.002  -0.004   0.002  0.00  0.00    +0.091 A 
ATOM      8  C   UNL     1       0.020  -3.100  -2.219  0.00  0.00    -0.035 C 
ATOM      9  N   UNL     1      -0.387  -2.401  -3.462  0.00  0.00    +0.384 N 
ATOM     10  H   UNL     1      -1.376  -2.135  -3.387  0.00  0.00    -0.081 HD
ENDROOT
BRANCH   6  11
ATOM     11  N   UNL     1       0.028  -0.259   2.487  0.00  0.00    -0.275 N 
ATOM     12  C   UNL     1       0.049  -1.126   3.519  0.00  0.00    +0.251 C 
ATOM     13  O   UNL     1       0.064  -2.324   3.308  0.00  0.00    -0.270 OA
ATOM     14  H   UNL     1       0.017   0.696   2.656  0.00  0.00    +0.156 HD
BRANCH  12  15
ATOM     15  C   UNL     1       0.055  -0.624   4.901  0.00  0.00    +0.064 A 
ATOM     16  C   UNL     1       0.044   0.790   5.189  0.00  0.00    +0.042 A 
ATOM     17  C   UNL     1       0.044   1.151   6.488  0.00  0.00    +0.080 A 
ATOM     18  S   UNL     1       0.074  -0.412   7.342  0.00  0.00    -0.064 S 
ATOM     19  C   UNL     1       0.077  -1.483   5.982  0.00  0.00    +0.091 A 
ATOM     20 CL   UNL     1       0.100  -3.219   5.978  0.00  0.00    -0.075 Cl
ATOM     21 CL   UNL     1       0.029   2.750   7.164  0.00  0.00    -0.076 Cl
ENDBRANCH  12  15
ENDBRANCH   6  11
BRANCH   9  23
ATOM     22  C   UNL     1       1.244  -3.732  -4.758  0.00  0.00    -0.014 C 
ATOM     23  C   UNL     1      -0.218  -3.298  -4.625  0.00  0.00    -0.074 C 
ATOM     24  C   UNL     1      -1.101  -4.533  -4.434  0.00  0.00    -0.014 C 
ENDBRANCH   9  23
BRANCH   7  25
ATOM     25  C   UNL     1      -0.018   1.460   0.010  0.00  0.00    +0.342 C 
ATOM     26  O   UNL     1       1.027   2.082   0.003  0.00  0.00    -0.245 OA
BRANCH  25  27
ATOM     27  O   UNL     1      -1.195   2.118   0.019  0.00  0.00    -0.464 OA
ATOM     28  C   UNL     1      -1.139   3.569   0.027  0.00  0.00    +0.280 C 
ENDBRANCH  25  27
ENDBRANCH   7  25
TORSDOF 5
