REMARK  Name = ZINC36647981
REMARK  11 active torsions:
REMARK  status: ('A' for Active; 'I' for Inactive)
REMARK    1  A    between atoms: C_1  and  C_2
REMARK    2  A    between atoms: C_4  and  C_35
REMARK    3  A    between atoms: N_11  and  C_12
REMARK    4  A    between atoms: C_12  and  C_13
REMARK    5  A    between atoms: C_13  and  C_14
REMARK    6  A    between atoms: C_14  and  N_15
REMARK    7  A    between atoms: N_15  and  C_16
REMARK    8  A    between atoms: N_15  and  C_17
REMARK    9  A    between atoms: C_18  and  C_20
REMARK   10  A    between atoms: N_25  and  S_27
REMARK   11  A    between atoms: S_27  and  C_30
REMARK                            x       y       z     vdW  Elec       q    Type
REMARK                         _______ _______ _______ _____ _____    ______ ____
ROOT
ATOM      1  C   UNL     1      -0.451   1.467  -0.269  0.00  0.00    +0.044 C 
ATOM      2  C   UNL     1      -0.317  -0.033  -0.221  0.00  0.00    -0.049 A 
ATOM      3  C   UNL     1       0.125  -0.733  -1.335  0.00  0.00    +0.009 A 
ATOM      4  C   UNL     1       0.256  -2.097  -1.319  0.00  0.00    -0.024 A 
ATOM      5  C   UNL     1      -0.057  -2.839  -0.156  0.00  0.00    +0.083 A 
ATOM      6  C   UNL     1      -0.504  -2.093   0.958  0.00  0.00    +0.041 A 
ATOM      7  C   UNL     1      -0.627  -0.726   0.934  0.00  0.00    +0.020 A 
ATOM      8  S   UNL     1      -0.782  -3.359   2.174  0.00  0.00    -0.052 S 
ATOM      9  C   UNL     1      -0.304  -4.752   1.160  0.00  0.00    +0.168 A 
ATOM     10  N   UNL     1       0.016  -4.175   0.025  0.00  0.00    -0.224 NA
ATOM     11  N   UNL     1      -0.279  -6.097   1.489  0.00  0.00    -0.250 N 
ATOM     12  C   UNL     1       0.117  -7.006   0.576  0.00  0.00    +0.226 C 
ATOM     13  O   UNL     1       0.532  -6.641  -0.503  0.00  0.00    -0.275 OA
ATOM     14  C   UNL     1       0.740  -2.814  -2.553  0.00  0.00    +0.046 C 
ENDROOT
BRANCH  12  15
ATOM     15  C   UNL     1       0.044  -8.477   0.897  0.00  0.00    +0.091 C 
ATOM     16  C   UNL     1       1.157  -8.841   1.882  0.00  0.00    +0.015 C 
ATOM     17  C   UNL     1       1.063 -10.327   2.234  0.00  0.00    +0.018 C 
ATOM     18  C   UNL     1       1.252 -11.162   0.963  0.00  0.00    +0.109 C 
ATOM     19  N   UNL     1       0.277 -10.717  -0.043  0.00  0.00    -0.175 NA
ATOM     20  C   UNL     1       0.220  -9.290  -0.389  0.00  0.00    +0.122 C 
BRANCH  19  21
ATOM     21  S   UNL     1      -0.738 -11.803  -0.772  0.00  0.00    +0.067 S 
ATOM     22  O   UNL     1      -1.122 -11.230  -2.014  0.00  0.00    -0.152 OA
ATOM     23  O   UNL     1      -0.106 -13.073  -0.683  0.00  0.00    -0.152 OA
BRANCH  21  24
ATOM     24  C   UNL     1      -2.196 -11.896   0.212  0.00  0.00    +0.143 A 
ATOM     25  C   UNL     1      -3.334 -11.165   0.122  0.00  0.00    +0.036 A 
ATOM     26  C   UNL     1      -4.363 -11.415   1.012  0.00  0.00    +0.010 A 
ATOM     27  C   UNL     1      -4.203 -12.383   1.947  0.00  0.00    +0.047 A 
ATOM     28  S   UNL     1      -2.561 -12.982   1.581  0.00  0.00    -0.077 S 
ENDBRANCH  21  24
ENDBRANCH  19  21
ENDBRANCH  12  15
BRANCH  11  29
ATOM     29  C   UNL     1      -0.684  -6.532   2.828  0.00  0.00    +0.114 C 
BRANCH  29  30
ATOM     30  C   UNL     1      -2.206  -6.679   2.879  0.00  0.00    +0.001 C 
BRANCH  30  31
ATOM     31  C   UNL     1      -2.628  -7.133   4.277  0.00  0.00    -0.078 C 
BRANCH  31  32
ATOM     32  N   UNL     1      -4.089  -7.275   4.326  0.00  0.00    +0.376 N 
ATOM     33  C   UNL     1      -4.485  -7.825   5.630  0.00  0.00    -0.097 C 
ATOM     34  C   UNL     1      -4.715  -5.959   4.139  0.00  0.00    -0.097 C 
ATOM     35  H   UNL     1      -4.391  -7.899   3.592  0.00  0.00    -0.083 HD
ENDBRANCH  31  32
ENDBRANCH  30  31
ENDBRANCH  29  30
ENDBRANCH  11  29
TORSDOF 7
