REMARK  Name = ZINC11854457
REMARK  10 active torsions:
REMARK  status: ('A' for Active; 'I' for Inactive)
REMARK    1  A    between atoms: C_1  and  C_2
REMARK    2  A    between atoms: C_2  and  N_3
REMARK    3  A    between atoms: N_3  and  C_4
REMARK    4  A    between atoms: N_3  and  S_6
REMARK    5  A    between atoms: C_4  and  C_5
REMARK    6  A    between atoms: S_6  and  C_9
REMARK    7  A    between atoms: C_12  and  C_15
REMARK    8  A    between atoms: N_17  and  C_18
REMARK    9  A    between atoms: C_20  and  C_32
REMARK   10  A    between atoms: C_29  and  C_31
REMARK                            x       y       z     vdW  Elec       q    Type
REMARK                         _______ _______ _______ _____ _____    ______ ____
ROOT
ATOM      1  C   UNL     1       2.297   6.891   0.017  0.00  0.00    +0.132 A 
ATOM      2  C   UNL     1       2.267   5.534   0.010  0.00  0.00    +0.074 A 
ATOM      3  C   UNL     1       0.915   5.132   0.020  0.00  0.00    +0.102 A 
ATOM      4  N   UNL     1       0.164   6.215   0.027  0.00  0.00    -0.162 NA
ATOM      5  N   UNL     1       1.005   7.335   0.031  0.00  0.00    -0.185 N 
ATOM      6  C   UNL     1       0.599   8.655   0.041  0.00  0.00    +0.234 A 
ATOM      7  N   UNL     1      -0.729   8.945   0.049  0.00  0.00    -0.291 N 
ATOM      8  H   UNL     1      -1.383   8.229   0.048  0.00  0.00    +0.172 HD
ATOM      9  C   UNL     1      -1.134  10.233   0.065  0.00  0.00    +0.253 A 
ATOM     10  O   UNL     1      -2.321  10.512   0.077  0.00  0.00    -0.268 OA
ATOM     11  C   UNL     1      -0.158  11.248   0.060  0.00  0.00    +0.093 A 
ATOM     12  C   UNL     1       1.159  10.895   0.046  0.00  0.00    +0.047 A 
ATOM     13  N   UNL     1       1.505   9.609   0.037  0.00  0.00    -0.217 NA
ATOM     14  C   UNL     1       2.224  11.961   0.041  0.00  0.00    +0.066 C 
ENDROOT
BRANCH   3  15
ATOM     15  C   UNL     1       0.425   3.737   0.017  0.00  0.00    +0.039 A 
ATOM     16  C   UNL     1      -0.864   3.276   0.026  0.00  0.00    +0.018 A 
ATOM     17  C   UNL     1      -1.080   1.915   0.017  0.00  0.00    +0.008 A 
ATOM     18  C   UNL     1      -0.013   1.076   0.008  0.00  0.00    +0.046 A 
ATOM     19  S   UNL     1       1.360   2.217   0.001  0.00  0.00    -0.095 S 
ENDBRANCH   3  15
BRANCH   1  22
ATOM     20  C   UNL     1       4.659   7.116  -0.004  0.00  0.00    +0.249 C 
ATOM     21  O   UNL     1       4.763   5.905  -0.012  0.00  0.00    -0.270 OA
ATOM     22  N   UNL     1       3.439   7.688   0.011  0.00  0.00    -0.266 N 
ATOM     23  H   UNL     1       3.356   8.654   0.017  0.00  0.00    +0.157 HD
BRANCH  20  27
ATOM     24  C   UNL     1       8.143   9.546  -0.022  0.00  0.00    +0.106 A 
ATOM     25  C   UNL     1       8.264   8.168  -0.031  0.00  0.00    +0.029 A 
ATOM     26  C   UNL     1       7.137   7.372  -0.025  0.00  0.00    +0.015 A 
ATOM     27  C   UNL     1       5.872   7.962  -0.010  0.00  0.00    +0.037 A 
ATOM     28  C   UNL     1       5.756   9.353  -0.007  0.00  0.00    +0.015 A 
ATOM     29  C   UNL     1       6.891  10.136  -0.007  0.00  0.00    +0.029 A 
BRANCH  24  30
ATOM     30  S   UNL     1       9.588  10.554  -0.028  0.00  0.00    +0.061 S 
ATOM     31  O   UNL     1       9.213  11.804   0.534  0.00  0.00    -0.153 OA
ATOM     32  O   UNL     1      10.638   9.761   0.509  0.00  0.00    -0.153 OA
BRANCH  30  33
ATOM     33  N   UNL     1       9.976  10.844  -1.612  0.00  0.00    -0.177 NA
BRANCH  33  35
ATOM     34  C   UNL     1      10.419  13.170  -2.224  0.00  0.00    +0.022 C 
ATOM     35  C   UNL     1       9.421  12.012  -2.300  0.00  0.00    +0.106 C 
ENDBRANCH  33  35
BRANCH  33  36
ATOM     36  C   UNL     1      10.873   9.931  -2.325  0.00  0.00    +0.106 C 
ATOM     37  C   UNL     1      10.045   8.902  -3.096  0.00  0.00    +0.022 C 
ENDBRANCH  33  36
ENDBRANCH  30  33
ENDBRANCH  24  30
ENDBRANCH  20  27
ENDBRANCH   1  22
TORSDOF 7
