REMARK  Name = ZINC00825995
REMARK  5 active torsions:
REMARK  status: ('A' for Active; 'I' for Inactive)
REMARK    1  A    between atoms: C_1  and  C_2
REMARK    2  A    between atoms: C_5  and  N_22
REMARK    3  A    between atoms: C_14  and  C_16
REMARK    4  A    between atoms: N_22  and  C_23
REMARK    5  A    between atoms: C_29  and  C_31
REMARK                            x       y       z     vdW  Elec       q    Type
REMARK                         _______ _______ _______ _____ _____    ______ ____
ROOT
ATOM      1  C   UNL     1       0.002  -1.183   0.831  0.00  0.00    +0.028 C 
ATOM      2  C   UNL     1       0.812  -1.876  -0.266  0.00  0.00    +0.081 C 
ATOM      3  C   UNL     1      -0.116  -2.737  -1.133  0.00  0.00    +0.050 C 
ATOM      4  C   UNL     1       0.702  -3.363  -2.262  0.00  0.00    +0.115 C 
ATOM      5  C   UNL     1       1.921  -4.053  -1.709  0.00  0.00    -0.005 A 
ATOM      6  C   UNL     1       2.545  -5.025  -2.474  0.00  0.00    +0.007 A 
ATOM      7  C   UNL     1       3.667  -5.674  -1.996  0.00  0.00    +0.000 A 
ATOM      8  C   UNL     1       4.175  -5.357  -0.750  0.00  0.00    +0.002 A 
ATOM      9  C   UNL     1       3.558  -4.391   0.019  0.00  0.00    +0.024 A 
ATOM     10  C   UNL     1       2.428  -3.737  -0.459  0.00  0.00    +0.042 A 
ATOM     11  N   UNL     1       1.813  -2.764   0.341  0.00  0.00    -0.264 N 
ATOM     12  C   UNL     1       2.134  -2.646   1.644  0.00  0.00    +0.251 C 
ATOM     13  O   UNL     1       1.707  -1.710   2.293  0.00  0.00    -0.270 OA
ENDROOT
BRANCH  12  14
ATOM     14  C   UNL     1       3.004  -3.654   2.286  0.00  0.00    +0.037 A 
ATOM     15  C   UNL     1       2.810  -5.013   2.030  0.00  0.00    +0.013 A 
ATOM     16  C   UNL     1       3.625  -5.948   2.631  0.00  0.00    +0.001 A 
ATOM     17  C   UNL     1       4.634  -5.543   3.487  0.00  0.00    +0.000 A 
ATOM     18  C   UNL     1       4.831  -4.198   3.747  0.00  0.00    +0.001 A 
ATOM     19  C   UNL     1       4.026  -3.252   3.147  0.00  0.00    +0.013 A 
ENDBRANCH  12  14
BRANCH   4  20
ATOM     20  N   UNL     1       1.122  -2.314  -3.194  0.00  0.00    -0.264 N 
ATOM     21  C   UNL     1       2.291  -1.671  -3.003  0.00  0.00    +0.217 C 
ATOM     22  O   UNL     1       2.542  -0.667  -3.635  0.00  0.00    -0.276 OA
ATOM     23  C   UNL     1       3.288  -2.201  -2.004  0.00  0.00    +0.109 C 
BRANCH  20  24
ATOM     24  C   UNL     1       0.309  -1.978  -4.282  0.00  0.00    +0.037 A 
ATOM     25  C   UNL     1      -0.963  -2.523  -4.394  0.00  0.00    +0.023 A 
ATOM     26  C   UNL     1      -1.764  -2.190  -5.470  0.00  0.00    +0.002 A 
ATOM     27  C   UNL     1      -1.299  -1.315  -6.434  0.00  0.00    +0.000 A 
ATOM     28  C   UNL     1      -0.033  -0.770  -6.325  0.00  0.00    +0.002 A 
ATOM     29  C   UNL     1       0.771  -1.095  -5.250  0.00  0.00    +0.023 A 
ENDBRANCH  20  24
ENDBRANCH   4  20
TORSDOF 3
