REMARK  Name = ZINC35560626
REMARK  5 active torsions:
REMARK  status: ('A' for Active; 'I' for Inactive)
REMARK    1  A    between atoms: C_1  and  C_2
REMARK    2  A    between atoms: C_2  and  N_3
REMARK    3  A    between atoms: N_3  and  C_4
REMARK    4  A    between atoms: C_4  and  C_6
REMARK    5  A    between atoms: C_4  and  C_15
REMARK                            x       y       z     vdW  Elec       q    Type
REMARK                         _______ _______ _______ _____ _____    ______ ____
ROOT
ATOM      1  C   UNL     1       0.733  -1.960   1.184  0.00  0.00    -0.008 C 
ENDROOT
BRANCH   1   2
ATOM      2  C   UNL     1       1.543  -2.445   0.010  0.00  0.00    -0.053 A 
ATOM      3  C   UNL     1       2.713  -1.795  -0.336  0.00  0.00    +0.006 A 
ATOM      4  C   UNL     1       3.461  -2.236  -1.412  0.00  0.00    +0.050 A 
ATOM      5  C   UNL     1       3.037  -3.331  -2.147  0.00  0.00    +0.166 A 
ATOM      6  C   UNL     1       1.859  -3.986  -1.799  0.00  0.00    +0.166 A 
ATOM      7  C   UNL     1       1.118  -3.542  -0.716  0.00  0.00    +0.052 A 
ATOM      8  O   UNL     1       1.662  -5.021  -2.667  0.00  0.00    -0.453 OA
ATOM      9  C   UNL     1       2.513  -4.745  -3.795  0.00  0.00    +0.466 C 
ATOM     10  O   UNL     1       3.579  -3.957  -3.233  0.00  0.00    -0.453 OA
ENDBRANCH   1   2
BRANCH   1  11
ATOM     11  C   UNL     1       1.352  -2.461   2.463  0.00  0.00    -0.035 A 
ATOM     12  C   UNL     1       2.151  -1.631   3.229  0.00  0.00    +0.026 A 
ATOM     13  C   UNL     1       2.692  -2.113   4.374  0.00  0.00    +0.056 A 
ATOM     14  S   UNL     1       2.074  -3.788   4.399  0.00  0.00    -0.074 S 
ATOM     15  C   UNL     1       1.130  -3.730   2.884  0.00  0.00    +0.058 A 
ATOM     16 BR   UNL     1       0.093  -5.089   2.075  0.00  0.00    -0.042 Br
ATOM     17 BR   UNL     1       3.813  -1.240   5.622  0.00  0.00    -0.043 Br
ENDBRANCH   1  11
BRANCH   1  18
ATOM     18  N   UNL     1       0.713  -0.491   1.192  0.00  0.00    +0.386 N 
ATOM     19  H   UNL     1       1.659  -0.141   1.185  0.00  0.00    -0.085 HD
ATOM     20  H   UNL     1       0.240  -0.165   2.022  0.00  0.00    -0.085 HD
BRANCH  18  22
ATOM     21  C   UNL     1      -0.019   1.526   0.010  0.00  0.00    -0.017 C 
ATOM     22  C   UNL     1       0.002  -0.004   0.002  0.00  0.00    -0.085 C 
ENDBRANCH  18  22
ENDBRANCH   1  18
TORSDOF 4
