REMARK  Name = ZINC08985775
REMARK  5 active torsions:
REMARK  status: ('A' for Active; 'I' for Inactive)
REMARK    1  A    between atoms: N_9  and  C_27
REMARK    2  A    between atoms: C_10  and  S_12
REMARK    3  A    between atoms: S_12  and  C_13
REMARK    4  A    between atoms: C_13  and  C_14
REMARK    5  A    between atoms: N_19  and  C_20
REMARK                            x       y       z     vdW  Elec       q    Type
REMARK                         _______ _______ _______ _____ _____    ______ ____
ROOT
ATOM      1  S   UNL     1      -2.657  -2.900   0.055  0.00  0.00    -0.078 S 
ENDROOT
BRANCH   1  11
ATOM      2  C   UNL     1       2.382   1.416   0.080  0.00  0.00    +0.001 A 
ATOM      3  C   UNL     1       1.163   2.081   0.086  0.00  0.00    +0.002 A 
ATOM      4  C   UNL     1      -0.016   1.390   0.083  0.00  0.00    +0.028 A 
ATOM      5  C   UNL     1       0.003  -0.008   0.073  0.00  0.00    +0.079 A 
ATOM      6  C   UNL     1       1.246  -0.682   0.067  0.00  0.00    +0.065 A 
ATOM      7  C   UNL     1       2.433   0.050   0.071  0.00  0.00    +0.015 A 
ATOM      8  C   UNL     1       1.239  -2.151   0.057  0.00  0.00    +0.263 A 
ATOM      9  O   UNL     1       2.276  -2.787   0.052  0.00  0.00    -0.267 OA
ATOM     10  N   UNL     1       0.035  -2.770   0.054  0.00  0.00    -0.284 N 
ATOM     11  C   UNL     1      -1.119  -2.040   0.060  0.00  0.00    +0.173 A 
ATOM     12  N   UNL     1      -1.136  -0.730   0.070  0.00  0.00    -0.223 NA
BRANCH  10  13
ATOM     13  C   UNL     1      -0.030  -4.234   0.044  0.00  0.00    +0.093 C 
ATOM     14  C   UNL     1       0.718  -4.804   1.267  0.00  0.00    +0.025 C 
ATOM     15  C   UNL     1       1.400  -6.087   0.729  0.00  0.00    +0.002 C 
ATOM     16  C   UNL     1       1.839  -5.670  -0.697  0.00  0.00    +0.002 C 
ATOM     17  C   UNL     1       0.683  -4.784  -1.204  0.00  0.00    +0.025 C 
ENDBRANCH  10  13
ENDBRANCH   1  11
BRANCH   1  18
ATOM     18  C   UNL     1      -3.801  -1.498   0.066  0.00  0.00    +0.173 C 
BRANCH  18  19
ATOM     19  C   UNL     1      -5.220  -2.007   0.063  0.00  0.00    +0.231 C 
ATOM     20  O   UNL     1      -5.435  -3.200   0.055  0.00  0.00    -0.274 OA
ATOM     21  N   UNL     1      -6.248  -1.136   0.070  0.00  0.00    -0.239 N 
ATOM     22  C   UNL     1      -7.517  -1.591   0.068  0.00  0.00    +0.310 C 
ATOM     23  O   UNL     1      -7.733  -2.788   0.059  0.00  0.00    -0.252 OA
ATOM     24  N   UNL     1      -8.545  -0.721   0.075  0.00  0.00    -0.267 N 
ATOM     25  H   UNL     1      -6.075  -0.182   0.077  0.00  0.00    +0.159 HD
ATOM     26  H   UNL     1      -8.374   0.231   0.147  0.00  0.00    +0.156 HD
BRANCH  24  27
ATOM     27  C   UNL     1      -9.861  -1.190  -0.022  0.00  0.00    +0.070 A 
ATOM     28  C   UNL     1     -10.214  -2.398   0.565  0.00  0.00    +0.026 A 
ATOM     29  C   UNL     1     -11.514  -2.856   0.473  0.00  0.00    +0.002 A 
ATOM     30  C   UNL     1     -12.462  -2.119  -0.213  0.00  0.00    +0.003 A 
ATOM     31  C   UNL     1     -12.114  -0.919  -0.804  0.00  0.00    +0.040 A 
ATOM     32  C   UNL     1     -10.816  -0.451  -0.711  0.00  0.00    +0.145 A 
ATOM     33  F   UNL     1     -10.476   0.721  -1.289  0.00  0.00    -0.204 F 
ENDBRANCH  24  27
ENDBRANCH  18  19
ENDBRANCH   1  18
TORSDOF 5
