REMARK  Name = ZINC09700124
REMARK  7 active torsions:
REMARK  status: ('A' for Active; 'I' for Inactive)
REMARK    1  A    between atoms: C_1  and  N_2
REMARK    2  A    between atoms: C_6  and  C_8
REMARK    3  A    between atoms: C_8  and  C_10
REMARK    4  A    between atoms: C_8  and  O_16
REMARK    5  A    between atoms: O_16  and  C_17
REMARK    6  A    between atoms: C_17  and  C_19
REMARK    7  A    between atoms: N_27  and  C_30
REMARK                            x       y       z     vdW  Elec       q    Type
REMARK                         _______ _______ _______ _____ _____    ______ ____
ROOT
ATOM      1  C   UNL     1      -1.658   0.762   1.707  0.00  0.00    +0.340 C 
ATOM      2  O   UNL     1      -1.925  -0.291   1.164  0.00  0.00    -0.245 OA
ENDROOT
BRANCH   1   3
ATOM      3  C   UNL     1      -2.393   1.175   2.922  0.00  0.00    +0.060 A 
ATOM      4  C   UNL     1      -2.085   2.384   3.545  0.00  0.00    +0.016 A 
ATOM      5  C   UNL     1      -2.768   2.778   4.683  0.00  0.00    +0.014 A 
ATOM      6  C   UNL     1      -3.763   1.968   5.207  0.00  0.00    +0.050 A 
ATOM      7  C   UNL     1      -4.079   0.744   4.582  0.00  0.00    +0.051 A 
ATOM      8  C   UNL     1      -3.399   0.354   3.441  0.00  0.00    +0.028 A 
ATOM      9  C   UNL     1      -5.165   0.146   5.388  0.00  0.00    +0.258 C 
ATOM     10  O   UNL     1      -5.709  -0.917   5.168  0.00  0.00    -0.269 OA
ATOM     11  N   UNL     1      -5.449   0.976   6.408  0.00  0.00    -0.202 N 
ATOM     12  C   UNL     1      -4.668   2.071   6.374  0.00  0.00    +0.258 C 
ATOM     13  O   UNL     1      -4.701   2.990   7.166  0.00  0.00    -0.269 OA
BRANCH  11  14
ATOM     14  C   UNL     1      -6.430   0.732   7.380  0.00  0.00    +0.045 A 
ATOM     15  C   UNL     1      -7.189  -0.429   7.324  0.00  0.00    +0.027 A 
ATOM     16  C   UNL     1      -8.151  -0.671   8.285  0.00  0.00    +0.040 A 
ATOM     17  C   UNL     1      -8.367   0.250   9.297  0.00  0.00    +0.124 A 
ATOM     18  C   UNL     1      -7.614   1.411   9.351  0.00  0.00    +0.040 A 
ATOM     19  C   UNL     1      -6.647   1.653   8.395  0.00  0.00    +0.027 A 
ATOM     20  F   UNL     1      -9.312   0.014  10.234  0.00  0.00    -0.205 F 
ENDBRANCH  11  14
ENDBRANCH   1   3
BRANCH   1  21
ATOM     21  O   UNL     1      -0.692   1.554   1.203  0.00  0.00    -0.444 OA
BRANCH  21  22
ATOM     22  C   UNL     1      -0.013   1.086   0.008  0.00  0.00    +0.292 C 
BRANCH  22  28
ATOM     23  C   UNL     1       5.689   1.963  -2.063  0.00  0.00    +0.129 C 
ATOM     24  N   UNL     1       4.315   1.456  -2.053  0.00  0.00    -0.302 N 
ATOM     25  C   UNL     1       3.490   1.765  -1.033  0.00  0.00    +0.306 C 
ATOM     26  O   UNL     1       3.887   2.464  -0.121  0.00  0.00    -0.252 OA
ATOM     27  N   UNL     1       2.226   1.299  -1.023  0.00  0.00    -0.237 N 
ATOM     28  C   UNL     1       1.401   1.607  -0.003  0.00  0.00    +0.266 C 
ATOM     29  O   UNL     1       1.797   2.305   0.907  0.00  0.00    -0.271 OA
ATOM     30  H   UNL     1       3.998   0.898  -2.781  0.00  0.00    +0.150 HD
ATOM     31  H   UNL     1       1.909   0.741  -1.751  0.00  0.00    +0.159 HD
ENDBRANCH  22  28
BRANCH  22  32
ATOM     32  C   UNL     1      -0.742   1.585  -1.213  0.00  0.00    +0.002 A 
ATOM     33  C   UNL     1      -1.257   2.868  -1.234  0.00  0.00    +0.008 A 
ATOM     34  C   UNL     1      -1.922   3.327  -2.355  0.00  0.00    +0.000 A 
ATOM     35  C   UNL     1      -2.079   2.501  -3.452  0.00  0.00    +0.000 A 
ATOM     36  C   UNL     1      -1.568   1.216  -3.430  0.00  0.00    +0.000 A 
ATOM     37  C   UNL     1      -0.899   0.759  -2.310  0.00  0.00    +0.008 A 
ENDBRANCH  22  32
ENDBRANCH  21  22
ENDBRANCH   1  21
TORSDOF 6
