REMARK  Name = ZINC10022068
REMARK  15 active torsions:
REMARK  status: ('A' for Active; 'I' for Inactive)
REMARK    1  A    between atoms: C_1  and  C_2
REMARK    2  A    between atoms: C_2  and  O_3
REMARK    3  A    between atoms: O_3  and  C_4
REMARK    4  A    between atoms: C_4  and  C_6
REMARK    5  A    between atoms: C_7  and  C_35
REMARK    6  A    between atoms: C_8  and  C_30
REMARK    7  A    between atoms: C_10  and  N_11
REMARK    8  A    between atoms: C_12  and  C_14
REMARK    9  A    between atoms: C_14  and  O_15
REMARK   10  A    between atoms: O_15  and  C_16
REMARK   11  A    between atoms: C_16  and  C_18
REMARK   12  A    between atoms: C_24  and  C_29
REMARK   13  A    between atoms: C_25  and  C_28
REMARK   14  A    between atoms: N_32  and  C_33
REMARK   15  A    between atoms: N_32  and  C_34
REMARK                            x       y       z     vdW  Elec       q    Type
REMARK                         _______ _______ _______ _____ _____    ______ ____
ROOT
ATOM      1  N   UNL     1       1.282   2.004  -0.551  0.00  0.00    -0.277 N 
ATOM      2  C   UNL     1       0.293   1.636   0.288  0.00  0.00    +0.255 C 
ATOM      3  O   UNL     1       0.404   0.626   0.950  0.00  0.00    -0.272 OA
ATOM      4  H   UNL     1       1.193   2.811  -1.081  0.00  0.00    +0.155 HD
ENDROOT
BRANCH   1   9
ATOM      5  C   UNL     1       3.547   1.442  -1.460  0.00  0.00    +0.091 A 
ATOM      6  C   UNL     1       4.574   0.513  -1.388  0.00  0.00    -0.015 A 
ATOM      7  C   UNL     1       4.417  -0.544  -0.534  0.00  0.00    +0.079 A 
ATOM      8  S   UNL     1       2.814  -0.235   0.182  0.00  0.00    -0.068 S 
ATOM      9  C   UNL     1       2.422   1.231  -0.656  0.00  0.00    +0.087 A 
ATOM     10  C   UNL     1       5.822   0.664  -2.220  0.00  0.00    +0.046 C 
BRANCH   7  11
ATOM     11  C   UNL     1       5.338  -1.652  -0.270  0.00  0.00    +0.253 C 
ATOM     12  O   UNL     1       6.540  -1.472  -0.335  0.00  0.00    -0.269 OA
ATOM     13  N   UNL     1       4.855  -2.870   0.045  0.00  0.00    -0.303 N 
ATOM     14  C   UNL     1       5.776  -3.960   0.376  0.00  0.00    +0.132 C 
ATOM     15  C   UNL     1       3.409  -3.103   0.057  0.00  0.00    +0.132 C 
ENDBRANCH   7  11
BRANCH   5  16
ATOM     16  C   UNL     1       3.636   2.604  -2.350  0.00  0.00    +0.342 C 
ATOM     17  O   UNL     1       4.121   3.643  -1.947  0.00  0.00    -0.245 OA
BRANCH  16  18
ATOM     18  O   UNL     1       3.179   2.521  -3.617  0.00  0.00    -0.461 OA
BRANCH  18  20
ATOM     19  C   UNL     1       2.733   3.425  -5.833  0.00  0.00    +0.048 C 
ATOM     20  C   UNL     1       3.300   3.710  -4.441  0.00  0.00    +0.229 C 
ENDBRANCH  18  20
ENDBRANCH  16  18
ENDBRANCH   5  16
ENDBRANCH   1   9
BRANCH   2  21
ATOM     21  C   UNL     1      -0.954   2.476   0.398  0.00  0.00    +0.328 C 
BRANCH  21  22
ATOM     22  O   UNL     1      -1.863   1.870   1.354  0.00  0.00    -0.452 OA
BRANCH  22  23
ATOM     23  C   UNL     1      -3.033   2.501   1.570  0.00  0.00    +0.340 C 
ATOM     24  O   UNL     1      -3.287   3.530   0.976  0.00  0.00    -0.245 OA
BRANCH  23  25
ATOM     25  C   UNL     1      -4.006   1.943   2.529  0.00  0.00    +0.060 A 
ATOM     26  C   UNL     1      -3.715   0.752   3.210  0.00  0.00    +0.017 A 
ATOM     27  C   UNL     1      -4.602   0.227   4.102  0.00  0.00    +0.027 A 
ATOM     28  C   UNL     1      -5.818   0.865   4.340  0.00  0.00    +0.047 A 
ATOM     29  C   UNL     1      -6.125   2.059   3.659  0.00  0.00    +0.004 A 
ATOM     30  C   UNL     1      -5.215   2.596   2.752  0.00  0.00    +0.025 A 
ATOM     31  C   UNL     1      -7.453   2.463   4.128  0.00  0.00    -0.022 A 
ATOM     32  C   UNL     1      -7.850   1.541   5.018  0.00  0.00    +0.017 A 
ATOM     33  N   UNL     1      -6.886   0.580   5.157  0.00  0.00    -0.358 N 
ATOM     34  H   UNL     1      -6.947  -0.190   5.744  0.00  0.00    +0.166 HD
ATOM     35  C   UNL     1      -9.164   1.560   5.756  0.00  0.00    +0.063 C 
ATOM     36  C   UNL     1      -8.225   3.683   3.695  0.00  0.00    +0.046 C 
ENDBRANCH  23  25
ENDBRANCH  22  23
ENDBRANCH  21  22
ENDBRANCH   2  21
TORSDOF 9
