REMARK  Name = ZINC10276772
REMARK  12 active torsions:
REMARK  status: ('A' for Active; 'I' for Inactive)
REMARK    1  A    between atoms: C_1  and  C_2
REMARK    2  A    between atoms: C_6  and  C_27
REMARK    3  A    between atoms: C_7  and  N_8
REMARK    4  A    between atoms: C_9  and  C_11
REMARK    5  A    between atoms: C_11  and  S_12
REMARK    6  A    between atoms: S_12  and  C_13
REMARK    7  A    between atoms: C_18  and  C_23
REMARK    8  A    between atoms: C_23  and  C_24
REMARK    9  A    between atoms: C_23  and  C_25
REMARK   10  A    between atoms: C_23  and  C_26
REMARK   11  A    between atoms: C_27  and  C_28
REMARK   12  A    between atoms: C_27  and  C_29
REMARK                            x       y       z     vdW  Elec       q    Type
REMARK                         _______ _______ _______ _____ _____    ______ ____
ROOT
ATOM      1  C   UNL     1      -1.095  -1.062   5.517  0.00  0.00    +0.172 C 
ENDROOT
BRANCH   1   3
ATOM      2  N   UNL     1      -1.622  -0.125   3.289  0.00  0.00    -0.284 N 
ATOM      3  C   UNL     1      -2.050  -0.782   4.386  0.00  0.00    +0.227 C 
ATOM      4  O   UNL     1      -3.204  -1.147   4.462  0.00  0.00    -0.275 OA
ATOM      5  H   UNL     1      -0.684   0.103   3.196  0.00  0.00    +0.155 HD
BRANCH   2  12
ATOM      6  C   UNL     1      -3.389   2.050   3.783  0.00  0.00    +0.045 C 
ATOM      7  C   UNL     1      -3.411   1.284   2.485  0.00  0.00    -0.029 A 
ATOM      8  C   UNL     1      -4.311   1.627   1.495  0.00  0.00    +0.005 A 
ATOM      9  C   UNL     1      -4.333   0.924   0.305  0.00  0.00    +0.001 A 
ATOM     10  C   UNL     1      -3.454  -0.125   0.101  0.00  0.00    +0.006 A 
ATOM     11  C   UNL     1      -2.551  -0.472   1.087  0.00  0.00    -0.023 A 
ATOM     12  C   UNL     1      -2.531   0.229   2.286  0.00  0.00    +0.040 A 
BRANCH  11  13
ATOM     13  C   UNL     1      -1.594  -1.615   0.865  0.00  0.00    +0.015 C 
ATOM     14  C   UNL     1      -2.385  -2.901   0.618  0.00  0.00    +0.012 C 
ATOM     15  C   UNL     1      -0.715  -1.315  -0.351  0.00  0.00    +0.012 C 
ENDBRANCH  11  13
ENDBRANCH   2  12
ENDBRANCH   1   3
BRANCH   1  16
ATOM     16  S   UNL     1      -1.962  -1.951   6.833  0.00  0.00    -0.088 S 
BRANCH  16  17
ATOM     17  C   UNL     1      -0.648  -2.142   7.992  0.00  0.00    +0.159 A 
ATOM     18  N   UNL     1       0.595  -1.742   7.899  0.00  0.00    -0.148 NA
ATOM     19  N   UNL     1       1.507  -1.981   8.920  0.00  0.00    -0.167 N 
ATOM     20  C   UNL     1       2.826  -1.628   8.969  0.00  0.00    +0.297 A 
ATOM     21  O   UNL     1       3.341  -1.026   8.038  0.00  0.00    -0.264 OA
ATOM     22  C   UNL     1       3.579  -1.964  10.099  0.00  0.00    +0.135 A 
ATOM     23  N   UNL     1       3.025  -2.611  11.102  0.00  0.00    -0.146 NA
ATOM     24  N   UNL     1       1.780  -2.943  11.053  0.00  0.00    -0.121 NA
ATOM     25  C   UNL     1       1.035  -2.649  10.016  0.00  0.00    +0.220 A 
ATOM     26  S   UNL     1      -0.671  -2.923   9.598  0.00  0.00    -0.020 S 
BRANCH  22  27
ATOM     27  C   UNL     1       5.035  -1.582  10.167  0.00  0.00    +0.012 C 
ATOM     28  C   UNL     1       5.626  -2.061  11.495  0.00  0.00    +0.017 C 
ATOM     29  C   UNL     1       5.790  -2.237   9.008  0.00  0.00    +0.017 C 
ATOM     30  C   UNL     1       5.170  -0.061  10.069  0.00  0.00    +0.017 C 
ENDBRANCH  22  27
ENDBRANCH  16  17
ENDBRANCH   1  16
TORSDOF 6
