REMARK  Name = ZINC63362702
REMARK  8 active torsions:
REMARK  status: ('A' for Active; 'I' for Inactive)
REMARK    1  A    between atoms: C_1  and  C_2
REMARK    2  A    between atoms: C_8  and  N_10
REMARK    3  A    between atoms: C_11  and  C_13
REMARK    4  A    between atoms: C_13  and  C_15
REMARK    5  A    between atoms: C_13  and  N_16
REMARK    6  A    between atoms: C_19  and  C_37
REMARK    7  A    between atoms: C_25  and  O_30
REMARK    8  A    between atoms: O_30  and  C_31
REMARK                            x       y       z     vdW  Elec       q    Type
REMARK                         _______ _______ _______ _____ _____    ______ ____
ROOT
ATOM      1  N   UNL     1       0.984   0.635   5.955  0.00  0.00    -0.212 N 
ATOM      2  C   UNL     1       0.855  -0.069   7.098  0.00  0.00    +0.249 C 
ATOM      3  O   UNL     1      -0.051  -0.817   7.398  0.00  0.00    -0.273 OA
ATOM      4  C   UNL     1       2.074   0.268   7.928  0.00  0.00    +0.136 C 
ATOM      5  C   UNL     1       1.650   0.946   9.236  0.00  0.00    +0.139 C 
ATOM      6  C   UNL     1       2.866   1.720   9.734  0.00  0.00    -0.034 C 
ATOM      7  C   UNL     1       3.127   1.261  10.953  0.00  0.00    +0.003 A 
ATOM      8  C   UNL     1       4.132   1.653  11.954  0.00  0.00    +0.055 A 
ATOM      9  C   UNL     1       4.135   0.955  13.122  0.00  0.00    +0.121 A 
ATOM     10  C   UNL     1       3.248  -0.093  13.412  0.00  0.00    +0.047 A 
ATOM     11  C   UNL     1       2.281  -0.531  12.566  0.00  0.00    +0.029 A 
ATOM     12  C   UNL     1       2.177   0.150  11.268  0.00  0.00    +0.043 A 
ATOM     13  N   UNL     1       1.344  -0.042  10.274  0.00  0.00    -0.375 N 
ATOM     14  C   UNL     1       3.598   2.739   8.895  0.00  0.00    +0.052 C 
ATOM     15  C   UNL     1       3.933   2.065   7.549  0.00  0.00    +0.115 C 
ATOM     16  N   UNL     1       2.762   1.296   7.115  0.00  0.00    -0.269 N 
ATOM     17  C   UNL     1       2.092   1.388   5.960  0.00  0.00    +0.313 C 
ATOM     18  O   UNL     1       2.447   2.076   5.023  0.00  0.00    -0.252 OA
ATOM     19  C   UNL     1       2.957  -0.958   8.170  0.00  0.00    +0.044 C 
ATOM     20  H   UNL     1       0.648  -0.717  10.227  0.00  0.00    +0.160 HD
ENDROOT
BRANCH   1  21
ATOM     21  C   UNL     1       0.033   0.579   4.842  0.00  0.00    +0.168 C 
ATOM     22  C   UNL     1      -0.539   1.976   4.589  0.00  0.00    +0.038 C 
BRANCH  21  24
ATOM     23  N   UNL     1       0.056  -0.038   2.447  0.00  0.00    -0.311 N 
ATOM     24  C   UNL     1       0.738   0.093   3.602  0.00  0.00    +0.234 C 
ATOM     25  O   UNL     1       1.919  -0.179   3.644  0.00  0.00    -0.274 OA
ATOM     26  H   UNL     1      -0.888   0.180   2.413  0.00  0.00    +0.149 HD
BRANCH  23  33
ATOM     27  C   UNL     1      -0.019   1.526   0.010  0.00  0.00    +0.009 C 
ATOM     28  C   UNL     1       0.002  -0.004   0.002  0.00  0.00    +0.006 C 
ATOM     29  C   UNL     1       0.718  -0.497  -1.257  0.00  0.00    +0.005 C 
ATOM     30  C   UNL     1       0.739  -2.027  -1.265  0.00  0.00    +0.000 C 
ATOM     31  C   UNL     1       1.479  -2.534  -0.026  0.00  0.00    +0.002 C 
ATOM     32  C   UNL     1       0.763  -2.041   1.233  0.00  0.00    +0.022 C 
ATOM     33  C   UNL     1       0.742  -0.511   1.242  0.00  0.00    +0.076 C 
ENDBRANCH  23  33
ENDBRANCH  21  24
ENDBRANCH   1  21
BRANCH   9  34
ATOM     34  O   UNL     1       5.053   1.294  14.066  0.00  0.00    -0.495 OA
ATOM     35  C   UNL     1       5.037   0.546  15.284  0.00  0.00    +0.277 C 
ENDBRANCH   9  34
TORSDOF 4
