REMARK  Name = ZINC10013832
REMARK  14 active torsions:
REMARK  status: ('A' for Active; 'I' for Inactive)
REMARK    1  A    between atoms: C_1  and  C_2
REMARK    2  A    between atoms: C_5  and  C_8
REMARK    3  A    between atoms: C_14  and  C_22
REMARK    4  A    between atoms: C_16  and  C_20
REMARK    5  A    between atoms: C_17  and  N_19
REMARK    6  A    between atoms: C_24  and  C_33
REMARK    7  A    between atoms: C_25  and  O_32
REMARK    8  A    between atoms: C_26  and  C_28
REMARK    9  A    between atoms: C_28  and  C_29
REMARK   10  A    between atoms: C_28  and  C_30
REMARK   11  A    between atoms: C_28  and  C_31
REMARK   12  A    between atoms: C_33  and  C_34
REMARK   13  A    between atoms: C_33  and  C_35
REMARK   14  A    between atoms: C_33  and  C_36
REMARK                            x       y       z     vdW  Elec       q    Type
REMARK                         _______ _______ _______ _____ _____    ______ ____
ROOT
ATOM      1  C   UNL     1      -0.169  -4.103  -0.320  0.00  0.00    +0.084 C 
ATOM      2  N   UNL     1      -0.258  -4.802  -1.419  0.00  0.00    -0.150 NA
ATOM      3  N   UNL     1       0.034  -6.151  -1.212  0.00  0.00    -0.115 NA
ATOM      4  C   UNL     1       0.381  -6.388   0.003  0.00  0.00    +0.227 C 
ATOM      5  C   UNL     1       0.197  -5.082   0.771  0.00  0.00    +0.140 C 
ATOM      6  C   UNL     1       1.569  -4.750   1.369  0.00  0.00    +0.082 C 
ATOM      7  C   UNL     1       2.191  -6.012   1.904  0.00  0.00    +0.095 C 
ATOM      8  C   UNL     1       1.837  -7.256   1.521  0.00  0.00    +0.200 C 
ATOM      9  O   UNL     1       0.852  -7.496   0.613  0.00  0.00    -0.425 OA
ENDROOT
BRANCH   1  14
ATOM     10  C   UNL     1      -0.979   1.561   0.247  0.00  0.00    +0.044 C 
ATOM     11  C   UNL     1      -0.766   0.076   0.099  0.00  0.00    -0.050 A 
ATOM     12  C   UNL     1      -0.362  -0.443  -1.119  0.00  0.00    +0.004 A 
ATOM     13  C   UNL     1      -0.166  -1.800  -1.263  0.00  0.00    +0.010 A 
ATOM     14  C   UNL     1      -0.375  -2.652  -0.174  0.00  0.00    -0.001 A 
ATOM     15  C   UNL     1      -0.783  -2.120   1.053  0.00  0.00    +0.010 A 
ATOM     16  C   UNL     1      -0.971  -0.760   1.182  0.00  0.00    +0.004 A 
ENDBRANCH   1  14
BRANCH   6  17
ATOM     17  C   UNL     1       1.404  -3.753   2.487  0.00  0.00    -0.037 A 
ATOM     18  C   UNL     1       0.533  -4.021   3.527  0.00  0.00    +0.012 A 
ATOM     19  C   UNL     1       0.380  -3.109   4.553  0.00  0.00    -0.000 A 
ATOM     20  C   UNL     1       1.101  -1.923   4.540  0.00  0.00    +0.124 A 
ATOM     21  C   UNL     1       1.974  -1.657   3.495  0.00  0.00    -0.000 A 
ATOM     22  C   UNL     1       2.128  -2.575   2.474  0.00  0.00    +0.012 A 
BRANCH  21  23
ATOM     23  C   UNL     1       2.759  -0.371   3.477  0.00  0.00    -0.009 C 
ATOM     24  C   UNL     1       3.612  -0.311   2.208  0.00  0.00    +0.015 C 
ATOM     25  C   UNL     1       1.793   0.816   3.498  0.00  0.00    +0.015 C 
ATOM     26  C   UNL     1       3.668  -0.311   4.706  0.00  0.00    +0.015 C 
ENDBRANCH  21  23
BRANCH  19  27
ATOM     27  C   UNL     1      -0.570  -3.401   5.686  0.00  0.00    -0.009 C 
ATOM     28  C   UNL     1      -1.232  -4.761   5.459  0.00  0.00    +0.015 C 
ATOM     29  C   UNL     1       0.203  -3.424   7.006  0.00  0.00    +0.015 C 
ATOM     30  C   UNL     1      -1.645  -2.314   5.744  0.00  0.00    +0.015 C 
ENDBRANCH  19  27
BRANCH  20  31
ATOM     31  O   UNL     1       0.952  -1.024   5.548  0.00  0.00    -0.506 OA
ATOM     32  H   UNL     1       1.562  -1.156   6.286  0.00  0.00    +0.292 HD
ENDBRANCH  20  31
ENDBRANCH   6  17
BRANCH   8  33
ATOM     33  N   UNL     1       2.496  -8.326   2.074  0.00  0.00    -0.328 N 
ATOM     34  H   UNL     1       3.199  -8.178   2.725  0.00  0.00    +0.145 HD
ATOM     35  H   UNL     1       2.259  -9.229   1.813  0.00  0.00    +0.145 HD
ENDBRANCH   8  33
BRANCH   7  36
ATOM     36  C   UNL     1       3.226  -5.883   2.885  0.00  0.00    +0.100 C 
ATOM     37  N   UNL     1       4.047  -5.781   3.663  0.00  0.00    -0.191 NA
ENDBRANCH   7  36
TORSDOF 7
