REMARK  Name = ZINC36689376
REMARK  7 active torsions:
REMARK  status: ('A' for Active; 'I' for Inactive)
REMARK    1  A    between atoms: C_1  and  C_2
REMARK    2  A    between atoms: C_2  and  C_3
REMARK    3  A    between atoms: C_6  and  C_9
REMARK    4  A    between atoms: C_9  and  C_11
REMARK    5  A    between atoms: C_9  and  N_12
REMARK    6  A    between atoms: C_13  and  C_15
REMARK    7  A    between atoms: C_15  and  N_16
REMARK                            x       y       z     vdW  Elec       q    Type
REMARK                         _______ _______ _______ _____ _____    ______ ____
ROOT
ATOM      1  N   UNL     1       3.483  -0.456   9.263  0.00  0.00    -0.215 N 
ATOM      2  C   UNL     1       3.637  -1.437  10.176  0.00  0.00    +0.252 C 
ATOM      3  O   UNL     1       2.985  -2.454  10.278  0.00  0.00    -0.272 OA
ATOM      4  C   UNL     1       4.794  -1.001  11.045  0.00  0.00    +0.144 C 
ATOM      5  C   UNL     1       5.937  -2.008  10.954  0.00  0.00    +0.081 C 
ATOM      6  C   UNL     1       5.554  -3.246  11.776  0.00  0.00    +0.232 C 
ATOM      7  O   UNL     1       5.431  -2.860  13.146  0.00  0.00    -0.492 OA
ATOM      8  C   UNL     1       4.680  -1.767  13.439  0.00  0.00    +0.126 A 
ATOM      9  C   UNL     1       4.345  -0.835  12.470  0.00  0.00    +0.027 A 
ATOM     10  C   UNL     1       3.585   0.270  12.813  0.00  0.00    +0.010 A 
ATOM     11  C   UNL     1       3.155   0.445  14.114  0.00  0.00    +0.001 A 
ATOM     12  C   UNL     1       3.483  -0.487  15.081  0.00  0.00    +0.004 A 
ATOM     13  C   UNL     1       4.242  -1.590  14.746  0.00  0.00    +0.046 A 
ATOM     14  N   UNL     1       5.200   0.291  10.479  0.00  0.00    -0.281 N 
ATOM     15  C   UNL     1       4.379   0.524   9.437  0.00  0.00    +0.310 C 
ATOM     16  O   UNL     1       4.442   1.514   8.735  0.00  0.00    -0.252 OA
ATOM     17  H   UNL     1       5.919   0.862  10.791  0.00  0.00    +0.152 HD
ENDROOT
BRANCH   1  18
ATOM     18  C   UNL     1       2.466  -0.464   8.209  0.00  0.00    +0.213 C 
BRANCH  18  20
ATOM     19  N   UNL     1       2.257  -1.263   5.877  0.00  0.00    -0.307 N 
ATOM     20  C   UNL     1       3.021  -1.139   6.981  0.00  0.00    +0.231 C 
ATOM     21  O   UNL     1       4.154  -1.570   6.986  0.00  0.00    -0.274 OA
ATOM     22  H   UNL     1       1.351  -0.918   5.873  0.00  0.00    +0.149 HD
BRANCH  19  23
ATOM     23  C   UNL     1       2.797  -1.919   4.683  0.00  0.00    +0.100 C 
ATOM     24  C   UNL     1       2.610  -3.433   4.805  0.00  0.00    +0.033 C 
BRANCH  23  28
ATOM     25  C   UNL     1       0.731  -0.503   1.223  0.00  0.00    -0.048 A 
ATOM     26  C   UNL     1       2.097  -0.710   1.176  0.00  0.00    +0.004 A 
ATOM     27  C   UNL     1       2.766  -1.167   2.296  0.00  0.00    +0.006 A 
ATOM     28  C   UNL     1       2.068  -1.419   3.463  0.00  0.00    -0.027 A 
ATOM     29  C   UNL     1       0.702  -1.212   3.510  0.00  0.00    +0.006 A 
ATOM     30  C   UNL     1       0.034  -0.750   2.391  0.00  0.00    +0.004 A 
BRANCH  25  32
ATOM     31  C   UNL     1      -0.019   1.526   0.010  0.00  0.00    +0.009 C 
ATOM     32  C   UNL     1       0.002  -0.004   0.002  0.00  0.00    +0.032 C 
ENDBRANCH  25  32
ENDBRANCH  23  28
ENDBRANCH  19  23
ENDBRANCH  18  20
ENDBRANCH   1  18
TORSDOF 5
