REMARK  Name = ZINC33937390
REMARK  13 active torsions:
REMARK  status: ('A' for Active; 'I' for Inactive)
REMARK    1  A    between atoms: C_1  and  C_2
REMARK    2  A    between atoms: C_2  and  C_3
REMARK    3  A    between atoms: C_3  and  C_5
REMARK    4  A    between atoms: C_3  and  N_17
REMARK    5  A    between atoms: N_9  and  C_10
REMARK    6  A    between atoms: C_10  and  C_11
REMARK    7  A    between atoms: N_17  and  C_18
REMARK    8  A    between atoms: N_17  and  C_27
REMARK    9  A    between atoms: C_18  and  C_19
REMARK   10  A    between atoms: C_19  and  C_20
REMARK   11  A    between atoms: C_20  and  N_21
REMARK   12  A    between atoms: C_27  and  C_28
REMARK   13  A    between atoms: C_32  and  C_40
REMARK                            x       y       z     vdW  Elec       q    Type
REMARK                         _______ _______ _______ _____ _____    ______ ____
ROOT
ATOM      1  N   UNL     1      -1.970  -1.295  -1.345  0.00  0.00    +0.389 N 
ATOM      2  H   UNL     1      -1.410  -1.915  -1.912  0.00  0.00    -0.080 HD
ENDROOT
BRANCH   1   3
ATOM      3  C   UNL     1      -1.589  -1.445   0.066  0.00  0.00    +0.003 C 
BRANCH   3   4
ATOM      4  C   UNL     1      -0.202  -2.027   0.152  0.00  0.00    +0.138 A 
ATOM      5  N   UNL     1       0.919  -1.430  -0.170  0.00  0.00    -0.115 NA
ATOM      6  N   UNL     1       1.886  -2.255   0.045  0.00  0.00    -0.023 NA
ATOM      7  N   UNL     1       1.409  -3.363   0.496  0.00  0.00    -0.044 NA
ATOM      8  N   UNL     1       0.126  -3.260   0.582  0.00  0.00    -0.228 N 
BRANCH   8   9
ATOM      9  C   UNL     1      -0.800  -4.293   1.053  0.00  0.00    +0.178 C 
BRANCH   9  10
ATOM     10  C   UNL     1      -1.248  -5.154  -0.129  0.00  0.00    +0.140 C 
ATOM     11  C   UNL     1      -2.158  -6.309   0.361  0.00  0.00    +0.035 C 
ATOM     12  C   UNL     1      -2.974  -6.608  -0.925  0.00  0.00    +0.031 C 
ATOM     13  C   UNL     1      -3.112  -5.207  -1.559  0.00  0.00    +0.160 C 
ATOM     14  O   UNL     1      -2.066  -4.385  -1.025  0.00  0.00    -0.375 OA
ENDBRANCH   9  10
ENDBRANCH   8   9
ENDBRANCH   3   4
BRANCH   3  16
ATOM     15  C   UNL     1      -3.051   0.432   0.827  0.00  0.00    +0.002 C 
ATOM     16  C   UNL     1      -1.610  -0.075   0.747  0.00  0.00    -0.011 C 
ENDBRANCH   3  16
ENDBRANCH   1   3
BRANCH   1  17
ATOM     17  C   UNL     1      -1.745   0.093  -1.769  0.00  0.00    -0.076 C 
BRANCH  17  18
ATOM     18  C   UNL     1      -0.242   0.353  -1.888  0.00  0.00    -0.003 C 
BRANCH  18  19
ATOM     19  C   UNL     1      -0.010   1.741  -2.489  0.00  0.00    +0.083 C 
BRANCH  19  20
ATOM     20  N   UNL     1       1.426   1.940  -2.723  0.00  0.00    -0.298 NA
ATOM     21  C   UNL     1       2.172   1.934  -1.456  0.00  0.00    +0.112 C 
ATOM     22  C   UNL     1       3.667   2.084  -1.749  0.00  0.00    +0.175 C 
ATOM     23  O   UNL     1       3.883   3.283  -2.498  0.00  0.00    -0.377 OA
ATOM     24  C   UNL     1       3.172   3.323  -3.738  0.00  0.00    +0.175 C 
ATOM     25  C   UNL     1       1.672   3.185  -3.465  0.00  0.00    +0.112 C 
ENDBRANCH  19  20
ENDBRANCH  18  19
ENDBRANCH  17  18
ENDBRANCH   1  17
BRANCH   1  26
ATOM     26  C   UNL     1      -3.390  -1.633  -1.508  0.00  0.00    -0.037 C 
BRANCH  26  27
ATOM     27  C   UNL     1      -3.756  -1.577  -2.968  0.00  0.00    +0.001 A 
ATOM     28  C   UNL     1      -3.740  -2.710  -3.713  0.00  0.00    +0.017 A 
ATOM     29  C   UNL     1      -4.101  -2.621  -5.129  0.00  0.00    -0.001 A 
ATOM     30  C   UNL     1      -4.104  -3.756  -5.947  0.00  0.00    +0.013 A 
ATOM     31  C   UNL     1      -4.446  -3.640  -7.265  0.00  0.00    -0.050 A 
ATOM     32  C   UNL     1      -4.792  -2.406  -7.799  0.00  0.00    +0.005 A 
ATOM     33  C   UNL     1      -4.796  -1.275  -7.011  0.00  0.00    +0.026 A 
ATOM     34  C   UNL     1      -4.452  -1.369  -5.667  0.00  0.00    +0.049 A 
ATOM     35  N   UNL     1      -4.448  -0.254  -4.856  0.00  0.00    -0.322 N 
ATOM     36  H   UNL     1      -4.690   0.609  -5.228  0.00  0.00    +0.169 HD
ATOM     37  C   UNL     1      -4.120  -0.346  -3.555  0.00  0.00    +0.251 A 
ATOM     38  O   UNL     1      -4.133   0.660  -2.867  0.00  0.00    -0.268 OA
ATOM     39  C   UNL     1      -4.449  -4.862  -8.146  0.00  0.00    +0.044 C 
ENDBRANCH  26  27
ENDBRANCH   1  26
TORSDOF 11
