REMARK  Name = ZINC41585929
REMARK  7 active torsions:
REMARK  status: ('A' for Active; 'I' for Inactive)
REMARK    1  A    between atoms: C_1  and  O_2
REMARK    2  A    between atoms: O_2  and  C_3
REMARK    3  A    between atoms: C_8  and  C_9
REMARK    4  A    between atoms: C_9  and  C_10
REMARK    5  A    between atoms: C_14  and  O_32
REMARK    6  A    between atoms: C_15  and  C_19
REMARK    7  A    between atoms: C_19  and  N_20
REMARK                            x       y       z     vdW  Elec       q    Type
REMARK                         _______ _______ _______ _____ _____    ______ ____
ROOT
ATOM      1  C   UNL     1      -1.408  -3.024  -0.329  0.00  0.00    +0.096 A 
ATOM      2  C   UNL     1      -2.481  -2.134   0.121  0.00  0.00    +0.045 A 
ATOM      3  C   UNL     1      -2.505  -0.949   0.861  0.00  0.00    +0.017 A 
ATOM      4  C   UNL     1      -3.696  -0.337   1.127  0.00  0.00    +0.046 A 
ATOM      5  C   UNL     1      -4.890  -0.886   0.665  0.00  0.00    +0.125 A 
ATOM      6  C   UNL     1      -4.886  -2.059  -0.069  0.00  0.00    +0.053 A 
ATOM      7  C   UNL     1      -3.682  -2.693  -0.348  0.00  0.00    +0.175 A 
ATOM      8  O   UNL     1      -3.361  -3.817  -1.020  0.00  0.00    -0.354 OA
ATOM      9  N   UNL     1      -1.959  -3.992  -0.996  0.00  0.00    -0.082 NA
ENDROOT
BRANCH   5  10
ATOM     10  O   UNL     1      -6.068  -0.266   0.937  0.00  0.00    -0.506 OA
ATOM     11  H   UNL     1      -6.335   0.381   0.270  0.00  0.00    +0.292 HD
ENDBRANCH   5  10
BRANCH   1  12
ATOM     12  C   UNL     1       0.066  -2.844  -0.072  0.00  0.00    +0.098 C 
BRANCH  12  18
ATOM     13  C   UNL     1       0.632  -0.642  -1.130  0.00  0.00    +0.124 A 
ATOM     14  C   UNL     1       1.198   0.107  -2.152  0.00  0.00    +0.046 A 
ATOM     15  C   UNL     1       1.796  -0.529  -3.222  0.00  0.00    +0.004 A 
ATOM     16  C   UNL     1       1.833  -1.910  -3.275  0.00  0.00    +0.001 A 
ATOM     17  C   UNL     1       1.270  -2.659  -2.259  0.00  0.00    +0.007 A 
ATOM     18  C   UNL     1       0.674  -2.028  -1.183  0.00  0.00    +0.000 A 
BRANCH  13  20
ATOM     19  C   UNL     1       0.035   1.410  -0.088  0.00  0.00    +0.277 C 
ATOM     20  O   UNL     1       0.042  -0.019  -0.076  0.00  0.00    -0.495 OA
ENDBRANCH  13  20
ENDBRANCH  12  18
ENDBRANCH   1  12
BRANCH   6  21
ATOM     21  C   UNL     1      -6.182  -2.647  -0.564  0.00  0.00    +0.127 C 
BRANCH  21  22
ATOM     22  N   UNL     1      -6.489  -2.106  -1.895  0.00  0.00    -0.295 NA
ATOM     23  C   UNL     1      -6.754  -0.662  -1.827  0.00  0.00    +0.103 C 
ATOM     24  C   UNL     1      -6.890  -0.104  -3.248  0.00  0.00    +0.122 C 
ATOM     25  N   UNL     1      -7.906  -0.891  -3.964  0.00  0.00    -0.314 N 
ATOM     26  C   UNL     1      -7.782  -2.357  -3.959  0.00  0.00    +0.122 C 
ATOM     27  C   UNL     1      -7.612  -2.826  -2.510  0.00  0.00    +0.103 C 
ATOM     28  C   UNL     1      -8.955  -0.266  -4.628  0.00  0.00    +0.099 A 
ATOM     29  C   UNL     1      -9.117   1.112  -4.518  0.00  0.00    +0.042 A 
ATOM     30  C   UNL     1     -10.165   1.721  -5.184  0.00  0.00    +0.005 A 
ATOM     31  C   UNL     1     -11.019   0.929  -5.940  0.00  0.00    +0.018 A 
ATOM     32  C   UNL     1     -10.799  -0.432  -6.006  0.00  0.00    +0.084 A 
ATOM     33  N   UNL     1      -9.787  -0.985  -5.364  0.00  0.00    -0.350 N 
ATOM     34  H   UNL     1      -9.653  -1.944  -5.430  0.00  0.00    +0.166 HD
ENDBRANCH  21  22
ENDBRANCH   6  21
TORSDOF 6
