REMARK  Name = ZINC35311664
REMARK  2 active torsions:
REMARK  status: ('A' for Active; 'I' for Inactive)
REMARK    1  A    between atoms: C_4  and  C_7
REMARK    2  A    between atoms: C_12  and  N_13
REMARK                            x       y       z     vdW  Elec       q    Type
REMARK                         _______ _______ _______ _____ _____    ______ ____
ROOT
ATOM      1  N   UNL     1       2.973  -2.056   1.829  0.00  0.00    -0.269 N 
ATOM      2  C   UNL     1       3.166  -3.118   2.636  0.00  0.00    +0.306 C 
ATOM      3  O   UNL     1       4.225  -3.716   2.612  0.00  0.00    -0.252 OA
ATOM      4  N   UNL     1       2.186  -3.517   3.471  0.00  0.00    -0.284 N 
ATOM      5  C   UNL     1       2.421  -4.587   4.447  0.00  0.00    +0.114 C 
ATOM      6  C   UNL     1       1.322  -5.636   4.355  0.00  0.00    +0.027 C 
ATOM      7  C   UNL     1      -0.062  -4.986   4.398  0.00  0.00    +0.018 C 
ATOM      8  C   UNL     1      -0.175  -4.013   3.221  0.00  0.00    +0.054 C 
ATOM      9  C   UNL     1       0.857  -2.885   3.427  0.00  0.00    +0.119 C 
ATOM     10  C   UNL     1       0.149  -4.732   1.933  0.00  0.00    +0.027 A 
ATOM     11  C   UNL     1      -0.415  -4.255   0.791  0.00  0.00    +0.022 A 
ATOM     12  C   UNL     1      -0.107  -4.829  -0.448  0.00  0.00    +0.007 A 
ATOM     13  C   UNL     1       0.787  -5.858  -0.494  0.00  0.00    +0.070 A 
ATOM     14  C   UNL     1       1.353  -6.324   0.702  0.00  0.00    +0.251 A 
ATOM     15  O   UNL     1       2.202  -7.200   0.667  0.00  0.00    -0.268 OA
ATOM     16  N   UNL     1       0.967  -5.810   1.895  0.00  0.00    -0.312 N 
ATOM     17  C   UNL     1       1.442  -6.479   3.100  0.00  0.00    +0.130 C 
ATOM     18  H   UNL     1       2.151  -1.545   1.888  0.00  0.00    +0.156 HD
ENDROOT
BRANCH   1  24
ATOM     19  C   UNL     1       3.613  -0.968  -0.240  0.00  0.00    +0.003 A 
ATOM     20  C   UNL     1       4.603  -0.604  -1.149  0.00  0.00    +0.010 A 
ATOM     21  C   UNL     1       5.916  -0.961  -0.918  0.00  0.00    +0.001 A 
ATOM     22  C   UNL     1       6.254  -1.680   0.215  0.00  0.00    +0.002 A 
ATOM     23  C   UNL     1       5.281  -2.048   1.124  0.00  0.00    +0.024 A 
ATOM     24  C   UNL     1       3.958  -1.691   0.907  0.00  0.00    +0.042 A 
BRANCH  19  28
ATOM     25  C   UNL     1      -0.436   0.124  -0.941  0.00  0.00    +0.000 A 
ATOM     26  C   UNL     1       0.561   1.079  -1.029  0.00  0.00    +0.001 A 
ATOM     27  C   UNL     1       1.877   0.730  -0.803  0.00  0.00    +0.008 A 
ATOM     28  C   UNL     1       2.201  -0.587  -0.484  0.00  0.00    -0.016 A 
ATOM     29  C   UNL     1       1.192  -1.546  -0.396  0.00  0.00    +0.008 A 
ATOM     30  C   UNL     1      -0.120  -1.186  -0.625  0.00  0.00    +0.001 A 
ENDBRANCH  19  28
ENDBRANCH   1  24
TORSDOF 2
