REMARK  Name = ZINC36207864
REMARK  16 active torsions:
REMARK  status: ('A' for Active; 'I' for Inactive)
REMARK    1  A    between atoms: C_1  and  O_2
REMARK    2  A    between atoms: O_2  and  C_3
REMARK    3  A    between atoms: C_3  and  C_4
REMARK    4  A    between atoms: C_4  and  C_5
REMARK    5  A    between atoms: C_5  and  N_6
REMARK    6  A    between atoms: N_6  and  C_7
REMARK    7  A    between atoms: N_6  and  C_27
REMARK    8  A    between atoms: C_7  and  C_8
REMARK    9  A    between atoms: C_14  and  C_19
REMARK   10  A    between atoms: C_22  and  O_25
REMARK   11  A    between atoms: O_25  and  C_26
REMARK   12  A    between atoms: C_27  and  C_28
REMARK   13  A    between atoms: C_28  and  C_30
REMARK   14  A    between atoms: C_28  and  O_33
REMARK   15  A    between atoms: C_30  and  O_31
REMARK   16  A    between atoms: O_31  and  C_32
REMARK                            x       y       z     vdW  Elec       q    Type
REMARK                         _______ _______ _______ _____ _____    ______ ____
ROOT
ATOM      1  C   UNL     1       0.059  -6.186  -1.846  0.00  0.00    +0.094 A 
ATOM      2  N   UNL     1      -1.102  -6.888  -1.799  0.00  0.00    -0.312 N 
ATOM      3  H   UNL     1      -1.936  -6.444  -2.020  0.00  0.00    +0.170 HD
ATOM      4  C   UNL     1      -1.119  -8.189  -1.452  0.00  0.00    +0.260 A 
ATOM      5  O   UNL     1      -2.170  -8.805  -1.415  0.00  0.00    -0.267 OA
ATOM      6  C   UNL     1       0.115  -8.837  -1.128  0.00  0.00    +0.080 A 
ATOM      7  C   UNL     1       0.355 -10.219  -0.729  0.00  0.00    +0.004 A 
ATOM      8  C   UNL     1       1.625 -10.611  -0.469  0.00  0.00    +0.056 A 
ATOM      9  S   UNL     1       2.579  -9.131  -0.750  0.00  0.00    -0.076 S 
ATOM     10  C   UNL     1       1.263  -8.032  -1.204  0.00  0.00    +0.116 A 
ATOM     11  N   UNL     1       1.202  -6.751  -1.561  0.00  0.00    -0.229 NA
ENDROOT
BRANCH   7  12
ATOM     12  C   UNL     1      -0.771 -11.176  -0.609  0.00  0.00    -0.016 A 
ATOM     13  C   UNL     1      -1.908 -10.830   0.120  0.00  0.00    +0.012 A 
ATOM     14  C   UNL     1      -2.953 -11.723   0.230  0.00  0.00    +0.046 A 
ATOM     15  C   UNL     1      -2.874 -12.965  -0.385  0.00  0.00    +0.120 A 
ATOM     16  C   UNL     1      -1.744 -13.313  -1.111  0.00  0.00    +0.046 A 
ATOM     17  C   UNL     1      -0.697 -12.422  -1.229  0.00  0.00    +0.012 A 
BRANCH  15  18
ATOM     18  O   UNL     1      -3.906 -13.843  -0.275  0.00  0.00    -0.495 OA
ATOM     19  C   UNL     1      -3.759 -15.103  -0.932  0.00  0.00    +0.277 C 
ENDBRANCH  15  18
ENDBRANCH   7  12
BRANCH   1  20
ATOM     20  C   UNL     1       0.030  -4.732  -2.241  0.00  0.00    -0.003 C 
BRANCH  20  21
ATOM     21  N   UNL     1       1.405  -4.234  -2.375  0.00  0.00    +0.386 N 
ATOM     22  H   UNL     1       1.921  -4.438  -1.532  0.00  0.00    -0.081 HD
BRANCH  21  23
ATOM     23  C   UNL     1       1.380  -2.781  -2.593  0.00  0.00    -0.076 C 
BRANCH  23  24
ATOM     24  C   UNL     1       0.824  -2.088  -1.348  0.00  0.00    +0.009 C 
BRANCH  24  25
ATOM     25  C   UNL     1       0.933  -0.571  -1.517  0.00  0.00    +0.157 C 
BRANCH  25  27
ATOM     26  C   UNL     1       0.469   1.503  -0.409  0.00  0.00    +0.193 C 
ATOM     27  O   UNL     1       0.413   0.076  -0.354  0.00  0.00    -0.383 OA
ENDBRANCH  25  27
ENDBRANCH  24  25
ENDBRANCH  23  24
ENDBRANCH  21  23
BRANCH  21  28
ATOM     28  C   UNL     1       2.055  -4.889  -3.518  0.00  0.00    -0.044 C 
BRANCH  28  29
ATOM     29  C   UNL     1       3.523  -4.465  -3.583  0.00  0.00    +0.124 C 
BRANCH  29  30
ATOM     30  O   UNL     1       4.211  -4.949  -2.428  0.00  0.00    -0.391 OA
ATOM     31  H   UNL     1       4.196  -5.912  -2.336  0.00  0.00    +0.210 HD
ENDBRANCH  29  30
BRANCH  29  32
ATOM     32  C   UNL     1       4.168  -5.047  -4.842  0.00  0.00    +0.188 C 
BRANCH  32  33
ATOM     33  O   UNL     1       5.504  -4.557  -4.964  0.00  0.00    -0.381 OA
ATOM     34  C   UNL     1       6.199  -5.043  -6.114  0.00  0.00    +0.194 C 
ENDBRANCH  32  33
ENDBRANCH  29  32
ENDBRANCH  28  29
ENDBRANCH  21  28
ENDBRANCH  20  21
ENDBRANCH   1  20
TORSDOF 13
