REMARK  Name = ZINC58166282
REMARK  11 active torsions:
REMARK  status: ('A' for Active; 'I' for Inactive)
REMARK    1  A    between atoms: C_1  and  C_2
REMARK    2  A    between atoms: C_2  and  C_3
REMARK    3  A    between atoms: C_2  and  C_4
REMARK    4  A    between atoms: C_4  and  C_5
REMARK    5  A    between atoms: N_7  and  C_8
REMARK    6  A    between atoms: C_8  and  C_10
REMARK    7  A    between atoms: C_8  and  C_13
REMARK    8  A    between atoms: C_10  and  C_11
REMARK    9  A    between atoms: C_10  and  C_12
REMARK   10  A    between atoms: C_19  and  C_22
REMARK   11  A    between atoms: C_22  and  N_23
REMARK                            x       y       z     vdW  Elec       q    Type
REMARK                         _______ _______ _______ _____ _____    ______ ____
ROOT
ATOM      1  C   UNL     1      -3.563  -4.546  -0.326  0.00  0.00    +0.236 C 
ATOM      2  O   UNL     1      -4.562  -3.864  -0.243  0.00  0.00    -0.274 OA
ATOM      3  N   UNL     1      -3.668  -5.887  -0.409  0.00  0.00    -0.300 N 
ATOM      4  C   UNL     1      -2.467  -6.734  -0.390  0.00  0.00    +0.108 C 
ATOM      5  C   UNL     1      -2.493  -7.653  -1.615  0.00  0.00    +0.019 C 
ATOM      6  C   UNL     1      -3.811  -8.430  -1.638  0.00  0.00    +0.008 C 
ATOM      7  C   UNL     1      -4.981  -7.450  -1.745  0.00  0.00    +0.020 C 
ATOM      8  C   UNL     1      -4.984  -6.530  -0.515  0.00  0.00    +0.112 C 
ENDROOT
BRANCH   1   9
ATOM      9  C   UNL     1      -2.204  -3.894  -0.335  0.00  0.00    +0.162 C 
BRANCH   9  12
ATOM     10  C   UNL     1      -1.212  -1.991   0.820  0.00  0.00    +0.214 C 
ATOM     11  O   UNL     1      -0.155  -2.587   0.830  0.00  0.00    -0.276 OA
ATOM     12  N   UNL     1      -2.299  -2.559   0.260  0.00  0.00    -0.304 N 
ATOM     13  H   UNL     1      -3.144  -2.083   0.251  0.00  0.00    +0.149 HD
BRANCH  10  14
ATOM     14  C   UNL     1      -1.310  -0.618   1.431  0.00  0.00    +0.098 C 
BRANCH  14  16
ATOM     15  C   UNL     1      -0.012   1.230   2.501  0.00  0.00    +0.008 C 
ATOM     16  C   UNL     1       0.055  -0.211   1.992  0.00  0.00    -0.008 C 
ATOM     17  C   UNL     1       0.430  -1.142   3.146  0.00  0.00    +0.008 C 
ENDBRANCH  14  16
ENDBRANCH  10  14
ENDBRANCH   9  12
BRANCH   9  18
ATOM     18  C   UNL     1      -1.705  -3.776  -1.776  0.00  0.00    +0.012 C 
ATOM     19  C   UNL     1      -2.603  -2.808  -2.549  0.00  0.00    +0.009 C 
ATOM     20  C   UNL     1      -0.269  -3.249  -1.777  0.00  0.00    +0.009 C 
ENDBRANCH   9  18
ENDBRANCH   1   9
BRANCH   7  21
ATOM     21  C   UNL     1      -6.296  -8.230  -1.801  0.00  0.00    +0.089 C 
BRANCH  21  22
ATOM     22  N   UNL     1      -6.342  -9.025  -3.036  0.00  0.00    -0.299 NA
ATOM     23  C   UNL     1      -6.391  -8.157  -4.220  0.00  0.00    +0.103 C 
ATOM     24  C   UNL     1      -6.254  -9.013  -5.483  0.00  0.00    +0.122 C 
ATOM     25  N   UNL     1      -7.277 -10.070  -5.444  0.00  0.00    -0.314 N 
ATOM     26  C   UNL     1      -7.379 -10.894  -4.230  0.00  0.00    +0.122 C 
ATOM     27  C   UNL     1      -7.471  -9.964  -3.016  0.00  0.00    +0.103 C 
ATOM     28  C   UNL     1      -8.123 -10.284  -6.525  0.00  0.00    +0.099 A 
ATOM     29  C   UNL     1      -8.102  -9.403  -7.602  0.00  0.00    +0.042 A 
ATOM     30  C   UNL     1      -8.950  -9.628  -8.672  0.00  0.00    +0.005 A 
ATOM     31  C   UNL     1      -9.793 -10.731  -8.629  0.00  0.00    +0.018 A 
ATOM     32  C   UNL     1      -9.761 -11.564  -7.528  0.00  0.00    +0.084 A 
ATOM     33  N   UNL     1      -8.938 -11.328  -6.524  0.00  0.00    -0.350 N 
ATOM     34  H   UNL     1      -8.933 -11.931  -5.765  0.00  0.00    +0.166 HD
ENDBRANCH  21  22
ENDBRANCH   7  21
TORSDOF 7
