REMARK  Name = ZINC22357736
REMARK  6 active torsions:
REMARK  status: ('A' for Active; 'I' for Inactive)
REMARK    1  A    between atoms: C_1  and  C_2
REMARK    2  A    between atoms: C_5  and  C_8
REMARK    3  A    between atoms: C_11  and  C_13
REMARK    4  A    between atoms: C_18  and  C_19
REMARK    5  A    between atoms: N_21  and  N_22
REMARK    6  A    between atoms: C_23  and  C_25
REMARK                            x       y       z     vdW  Elec       q    Type
REMARK                         _______ _______ _______ _____ _____    ______ ____
ROOT
ATOM      1  C   UNL     1       4.868   1.101   0.073  0.00  0.00    +0.049 A 
ATOM      2  C   UNL     1       6.029   1.845   0.285  0.00  0.00    +0.014 A 
ATOM      3  C   UNL     1       5.994   3.221   0.187  0.00  0.00    +0.001 A 
ATOM      4  C   UNL     1       4.812   3.873  -0.127  0.00  0.00    +0.001 A 
ATOM      5  C   UNL     1       3.654   3.155  -0.345  0.00  0.00    +0.014 A 
ATOM      6  C   UNL     1       3.667   1.764  -0.251  0.00  0.00    +0.050 A 
ENDROOT
BRANCH   1  10
ATOM      7  C   UNL     1       5.612  -2.411   0.420  0.00  0.00    +0.156 A 
ATOM      8  C   UNL     1       4.260  -2.428   0.252  0.00  0.00    +0.161 A 
ATOM      9  N   UNL     1       3.852  -1.163   0.115  0.00  0.00    -0.217 NA
ATOM     10  C   UNL     1       4.898  -0.369   0.183  0.00  0.00    +0.229 A 
ATOM     11  O   UNL     1       5.999  -1.118   0.376  0.00  0.00    -0.435 OA
BRANCH   7  16
ATOM     12  C   UNL     1       9.023  -6.981   1.182  0.00  0.00    +0.044 C 
ATOM     13  C   UNL     1       8.129  -5.784   0.982  0.00  0.00    -0.050 A 
ATOM     14  C   UNL     1       8.676  -4.513   0.959  0.00  0.00    +0.004 A 
ATOM     15  C   UNL     1       7.864  -3.413   0.777  0.00  0.00    +0.012 A 
ATOM     16  C   UNL     1       6.487  -3.584   0.616  0.00  0.00    +0.019 A 
ATOM     17  C   UNL     1       5.942  -4.870   0.646  0.00  0.00    +0.012 A 
ATOM     18  C   UNL     1       6.766  -5.961   0.823  0.00  0.00    +0.004 A 
ENDBRANCH   7  16
ENDBRANCH   1  10
BRANCH   6  19
ATOM     19  C   UNL     1       2.431   0.991  -0.483  0.00  0.00    +0.261 C 
ATOM     20  O   UNL     1       2.429   0.072  -1.280  0.00  0.00    -0.269 OA
ATOM     21  N   UNL     1       1.305   1.304   0.187  0.00  0.00    -0.230 N 
ATOM     22  H   UNL     1       1.306   2.135   0.907  0.00  0.00    +0.173 HD
BRANCH  21  23
ATOM     23  N   UNL     1       0.132   0.571  -0.033  0.00  0.00    -0.231 N 
ATOM     24  C   UNL     1      -0.996   0.887   0.633  0.00  0.00    +0.273 C 
ATOM     25  O   UNL     1      -0.994   1.804   1.427  0.00  0.00    -0.270 OA
ATOM     26  H   UNL     1       0.131  -0.263  -0.750  0.00  0.00    +0.173 HD
BRANCH  24  27
ATOM     27  C   UNL     1      -2.260   0.102   0.391  0.00  0.00    +0.297 C 
ATOM     28  C   UNL     1      -2.077  -1.338   0.887  0.00  0.00    +0.283 C 
ATOM     29  O   UNL     1      -3.297  -2.050   0.655  0.00  0.00    -0.484 OA
ATOM     30  C   UNL     1      -4.449  -1.424   1.020  0.00  0.00    +0.162 A 
ATOM     31  C   UNL     1      -5.612  -2.167   1.162  0.00  0.00    +0.049 A 
ATOM     32  C   UNL     1      -6.790  -1.545   1.528  0.00  0.00    +0.004 A 
ATOM     33  C   UNL     1      -6.814  -0.181   1.754  0.00  0.00    +0.004 A 
ATOM     34  C   UNL     1      -5.659   0.565   1.615  0.00  0.00    +0.049 A 
ATOM     35  C   UNL     1      -4.472  -0.053   1.248  0.00  0.00    +0.163 A 
ATOM     36  O   UNL     1      -3.342   0.693   1.119  0.00  0.00    -0.472 OA
ENDBRANCH  24  27
ENDBRANCH  21  23
ENDBRANCH   6  19
TORSDOF 5
