REMARK  Name = ZINC03228310
REMARK  6 active torsions:
REMARK  status: ('A' for Active; 'I' for Inactive)
REMARK    1  A    between atoms: C_6  and  N_7
REMARK    2  A    between atoms: C_8  and  C_10
REMARK    3  A    between atoms: C_10  and  O_11
REMARK    4  A    between atoms: O_11  and  C_12
REMARK    5  A    between atoms: C_12  and  C_14
REMARK    6  A    between atoms: C_14  and  C_15
REMARK                            x       y       z     vdW  Elec       q    Type
REMARK                         _______ _______ _______ _____ _____    ______ ____
ROOT
ATOM      1  N   UNL     1       3.891   4.372   0.528  0.00  0.00    -0.283 N 
ATOM      2  C   UNL     1       5.235   4.469   0.534  0.00  0.00    +0.255 C 
ATOM      3  O   UNL     1       5.912   3.527   0.181  0.00  0.00    -0.272 OA
ATOM      4  H   UNL     1       3.348   5.149   0.737  0.00  0.00    +0.155 HD
ENDROOT
BRANCH   1  10
ATOM      5  C   UNL     1       2.062   3.134  -0.449  0.00  0.00    +0.027 A 
ATOM      6  C   UNL     1       1.456   1.930  -0.754  0.00  0.00    +0.051 A 
ATOM      7  C   UNL     1       2.060   0.737  -0.393  0.00  0.00    +0.166 A 
ATOM      8  C   UNL     1       3.280   0.751   0.279  0.00  0.00    +0.168 A 
ATOM      9  C   UNL     1       3.886   1.957   0.584  0.00  0.00    +0.072 A 
ATOM     10  C   UNL     1       3.278   3.151   0.220  0.00  0.00    +0.037 A 
ATOM     11  O   UNL     1       3.660  -0.538   0.519  0.00  0.00    -0.453 OA
ATOM     12  C   UNL     1       2.867  -1.346  -0.370  0.00  0.00    +0.466 C 
ATOM     13  O   UNL     1       1.677  -0.562  -0.574  0.00  0.00    -0.453 OA
ENDBRANCH   1  10
BRANCH   2  14
ATOM     14  C   UNL     1       5.897   5.747   0.981  0.00  0.00    +0.328 C 
BRANCH  14  15
ATOM     15  O   UNL     1       7.339   5.601   0.897  0.00  0.00    -0.455 OA
BRANCH  15  16
ATOM     16  C   UNL     1       8.081   6.658   1.262  0.00  0.00    +0.308 C 
ATOM     17  O   UNL     1       7.543   7.673   1.639  0.00  0.00    -0.251 OA
BRANCH  16  18
ATOM     18  C   UNL     1       9.585   6.580   1.201  0.00  0.00    +0.124 C 
BRANCH  18  19
ATOM     19  C   UNL     1      10.184   7.909   1.667  0.00  0.00    +0.003 C 
ATOM     20  C   UNL     1       9.835   9.036   0.668  0.00  0.00    +0.008 C 
ATOM     21  C   UNL     1      11.215   9.540   0.146  0.00  0.00    -0.010 C 
ATOM     22  C   UNL     1      11.850  10.276   1.365  0.00  0.00    +0.004 C 
ATOM     23  C   UNL     1      12.198   9.148   2.364  0.00  0.00    +0.004 C 
ATOM     24  C   UNL     1      11.741   7.837   1.653  0.00  0.00    -0.007 C 
ATOM     25  C   UNL     1      12.035   8.202   0.155  0.00  0.00    +0.007 C 
ENDBRANCH  18  19
ENDBRANCH  16  18
ENDBRANCH  15  16
ENDBRANCH  14  15
ENDBRANCH   2  14
TORSDOF 6
