REMARK  Name = ZINC20561793
REMARK  10 active torsions:
REMARK  status: ('A' for Active; 'I' for Inactive)
REMARK    1  A    between atoms: C_1  and  C_2
REMARK    2  A    between atoms: C_7  and  C_23
REMARK    3  A    between atoms: C_9  and  C_13
REMARK    4  A    between atoms: C_10  and  C_12
REMARK    5  A    between atoms: C_13  and  O_15
REMARK    6  A    between atoms: O_15  and  C_16
REMARK    7  A    between atoms: C_27  and  O_29
REMARK    8  A    between atoms: C_32  and  C_34
REMARK    9  A    between atoms: C_34  and  O_36
REMARK   10  A    between atoms: O_36  and  C_37
REMARK                            x       y       z     vdW  Elec       q    Type
REMARK                         _______ _______ _______ _____ _____    ______ ____
ROOT
ATOM      1  C   UNL     1       2.126   1.578  -1.276  0.00  0.00    +0.009 C 
ATOM      2  C   UNL     1       1.416   2.038  -0.001  0.00  0.00    +0.013 C 
ATOM      3  C   UNL     1      -0.018   1.504   0.010  0.00  0.00    +0.055 C 
ATOM      4  C   UNL     1       0.002  -0.004   0.002  0.00  0.00    +0.016 C 
ATOM      5  C   UNL     1       1.011  -0.689   0.582  0.00  0.00    +0.025 C 
ATOM      6  C   UNL     1       1.019  -2.196   0.579  0.00  0.00    +0.092 C 
ATOM      7  C   UNL     1       0.082  -2.738  -0.460  0.00  0.00    +0.065 C 
ATOM      8  C   UNL     1      -0.882  -1.971  -0.997  0.00  0.00    +0.016 C 
ATOM      9  N   UNL     1      -1.026  -0.668  -0.611  0.00  0.00    -0.321 N 
ATOM     10  C   UNL     1      -1.810  -2.552  -2.033  0.00  0.00    +0.061 C 
ATOM     11  C   UNL     1       2.081  -0.019   1.200  0.00  0.00    +0.176 C 
ATOM     12  O   UNL     1       2.967  -0.666   1.722  0.00  0.00    -0.291 OA
ATOM     13  C   UNL     1       2.150   1.484   1.225  0.00  0.00    +0.171 C 
ATOM     14  H   UNL     1      -1.980  -0.153  -0.797  0.00  0.00    +0.152 HD
ENDROOT
BRANCH   6  15
ATOM     15  C   UNL     1       0.595  -2.695   1.937  0.00  0.00    -0.032 A 
ATOM     16  C   UNL     1      -0.663  -2.389   2.422  0.00  0.00    +0.005 A 
ATOM     17  C   UNL     1      -1.056  -2.845   3.667  0.00  0.00    +0.004 A 
ATOM     18  C   UNL     1      -0.192  -3.608   4.428  0.00  0.00    +0.045 A 
ATOM     19  C   UNL     1       1.071  -3.916   3.943  0.00  0.00    +0.117 A 
ATOM     20  C   UNL     1       1.461  -3.461   2.692  0.00  0.00    +0.050 A 
BRANCH  19  21
ATOM     21  O   UNL     1       1.922  -4.667   4.690  0.00  0.00    -0.507 OA
ATOM     22  H   UNL     1       2.923  -4.911   4.305  0.00  0.00    +0.292 HD
ENDBRANCH  19  21
ENDBRANCH   6  15
BRANCH   7  23
ATOM     23  C   UNL     1       0.216  -4.082  -0.882  0.00  0.00    +0.338 C 
ATOM     24  O   UNL     1      -0.538  -4.533  -1.724  0.00  0.00    -0.245 OA
BRANCH  23  25
ATOM     25  O   UNL     1       1.179  -4.863  -0.351  0.00  0.00    -0.458 OA
BRANCH  25  26
ATOM     26  C   UNL     1       1.257  -6.210  -0.824  0.00  0.00    +0.177 C 
ATOM     27  C   UNL     1       0.307  -7.089   0.015  0.00  0.00    +0.044 C 
ATOM     28  C   UNL     1      -0.004  -8.337  -0.766  0.00  0.00    +0.004 C 
ATOM     29  C   UNL     1       0.933  -9.506  -0.407  0.00  0.00    +0.000 C 
ATOM     30  C   UNL     1       2.401  -9.067  -0.246  0.00  0.00    +0.000 C 
ATOM     31  C   UNL     1       2.827  -8.084  -1.302  0.00  0.00    +0.004 C 
ATOM     32  C   UNL     1       2.640  -6.657  -0.748  0.00  0.00    +0.044 C 
ENDBRANCH  25  26
ENDBRANCH  23  25
ENDBRANCH   7  23
BRANCH  13  33
ATOM     33  C   UNL     1       3.591   1.923   1.194  0.00  0.00    +0.318 C 
ATOM     34  O   UNL     1       3.992   2.617   0.289  0.00  0.00    -0.250 OA
BRANCH  33  35
ATOM     35  O   UNL     1       4.429   1.545   2.172  0.00  0.00    -0.467 OA
ATOM     36  C   UNL     1       5.803   2.005   2.077  0.00  0.00    +0.280 C 
ENDBRANCH  33  35
ENDBRANCH  13  33
TORSDOF 7
