REMARK  Name = ZINC34759273
REMARK  9 active torsions:
REMARK  status: ('A' for Active; 'I' for Inactive)
REMARK    1  A    between atoms: C_1  and  C_2
REMARK    2  A    between atoms: C_2  and  N_3
REMARK    3  A    between atoms: C_11  and  C_29
REMARK    4  A    between atoms: C_12  and  C_28
REMARK    5  A    between atoms: C_16  and  S_18
REMARK    6  A    between atoms: S_18  and  C_19
REMARK    7  A    between atoms: C_19  and  C_20
REMARK    8  A    between atoms: C_22  and  C_27
REMARK    9  A    between atoms: C_25  and  C_26
REMARK                            x       y       z     vdW  Elec       q    Type
REMARK                         _______ _______ _______ _____ _____    ______ ____
ROOT
ATOM      1  N   UNL     1       0.917   0.437  -3.063  0.00  0.00    +0.382 N 
ATOM      2  C   UNL     1       1.243  -0.127  -4.379  0.00  0.00    -0.060 C 
ATOM      3  C   UNL     1       1.448  -1.639  -4.249  0.00  0.00    +0.088 C 
ATOM      4  N   UNL     1       2.463  -1.886  -3.214  0.00  0.00    -0.318 N 
ATOM      5  C   UNL     1       2.299  -1.224  -1.910  0.00  0.00    +0.088 C 
ATOM      6  C   UNL     1       2.055   0.269  -2.150  0.00  0.00    -0.060 C 
ATOM      7  C   UNL     1       3.542  -2.716  -3.459  0.00  0.00    +0.134 A 
ATOM      8  C   UNL     1       3.409  -4.126  -3.322  0.00  0.00    +0.051 A 
ATOM      9  C   UNL     1       2.251  -4.916  -2.939  0.00  0.00    -0.028 A 
ATOM     10  C   UNL     1       2.360  -6.250  -2.876  0.00  0.00    -0.008 A 
ATOM     11  S   UNL     1       4.057  -6.551  -3.333  0.00  0.00    -0.073 S 
ATOM     12  C   UNL     1       4.573  -4.876  -3.597  0.00  0.00    +0.115 A 
ATOM     13  N   UNL     1       5.700  -4.292  -3.956  0.00  0.00    -0.215 NA
ATOM     14  C   UNL     1       5.765  -2.972  -4.067  0.00  0.00    +0.191 A 
ATOM     15  N   UNL     1       4.705  -2.208  -3.829  0.00  0.00    -0.206 NA
ATOM     16  C   UNL     1       1.301  -7.257  -2.506  0.00  0.00    +0.052 C 
ATOM     17  C   UNL     1       0.942  -4.242  -2.618  0.00  0.00    +0.045 C 
ATOM     18  H   UNL     1       0.112  -0.040  -2.686  0.00  0.00    -0.082 HD
ENDROOT
BRANCH   1  20
ATOM     19  C   UNL     1      -0.647   2.039  -4.056  0.00  0.00    -0.017 C 
ATOM     20  C   UNL     1       0.614   1.867  -3.206  0.00  0.00    -0.082 C 
ENDBRANCH   1  20
BRANCH  14  21
ATOM     21  S   UNL     1       7.283  -2.218  -4.548  0.00  0.00    -0.081 S 
BRANCH  21  22
ATOM     22  C   UNL     1       8.417  -3.617  -4.769  0.00  0.00    +0.112 C 
BRANCH  22  23
ATOM     23  C   UNL     1       9.771  -3.105  -5.187  0.00  0.00    -0.034 A 
ATOM     24  C   UNL     1      10.066  -2.946  -6.528  0.00  0.00    +0.008 A 
ATOM     25  C   UNL     1      11.309  -2.476  -6.911  0.00  0.00    -0.050 A 
ATOM     26  C   UNL     1      12.256  -2.165  -5.953  0.00  0.00    +0.003 A 
ATOM     27  C   UNL     1      11.960  -2.324  -4.612  0.00  0.00    +0.004 A 
ATOM     28  C   UNL     1      10.716  -2.789  -4.229  0.00  0.00    -0.046 A 
ATOM     29  C   UNL     1      10.392  -2.957  -2.767  0.00  0.00    +0.044 C 
ATOM     30  C   UNL     1      11.631  -2.304  -8.373  0.00  0.00    +0.044 C 
ENDBRANCH  22  23
ENDBRANCH  21  22
ENDBRANCH  14  21
TORSDOF 4
