REMARK  Name = ZINC04898723
REMARK  7 active torsions:
REMARK  status: ('A' for Active; 'I' for Inactive)
REMARK    1  A    between atoms: C_1  and  C_2
REMARK    2  A    between atoms: C_2  and  C_18
REMARK    3  A    between atoms: N_3  and  N_4
REMARK    4  A    between atoms: C_5  and  C_7
REMARK    5  A    between atoms: C_7  and  S_8
REMARK    6  A    between atoms: S_8  and  C_9
REMARK    7  A    between atoms: C_23  and  O_24
REMARK                            x       y       z     vdW  Elec       q    Type
REMARK                         _______ _______ _______ _____ _____    ______ ____
ROOT
ATOM      1  N   UNL     1      -0.223  -2.030   1.139  0.00  0.00    -0.206 N 
ATOM      2  C   UNL     1      -0.383  -2.687   2.305  0.00  0.00    +0.243 C 
ATOM      3  O   UNL     1      -0.379  -2.074   3.352  0.00  0.00    -0.273 OA
ATOM      4  H   UNL     1      -0.227  -2.520   0.302  0.00  0.00    +0.177 HD
ENDROOT
BRANCH   1   7
ATOM      5  C   UNL     1       0.090   1.510   0.009  0.00  0.00    +0.068 C 
ATOM      6  C   UNL     1      -0.005   0.006   0.011  0.00  0.00    +0.067 C 
ATOM      7  N   UNL     1      -0.052  -0.639   1.136  0.00  0.00    -0.184 NA
BRANCH   6   8
ATOM      8  C   UNL     1      -0.045  -0.731  -1.264  0.00  0.00    +0.039 A 
ATOM      9  C   UNL     1      -1.191  -1.442  -1.629  0.00  0.00    +0.013 A 
ATOM     10  C   UNL     1      -1.222  -2.130  -2.824  0.00  0.00    +0.001 A 
ATOM     11  C   UNL     1      -0.121  -2.119  -3.664  0.00  0.00    +0.004 A 
ATOM     12  C   UNL     1       1.018  -1.420  -3.314  0.00  0.00    +0.046 A 
ATOM     13  C   UNL     1       1.065  -0.719  -2.120  0.00  0.00    +0.126 A 
BRANCH  13  14
ATOM     14  O   UNL     1       2.182  -0.027  -1.778  0.00  0.00    -0.506 OA
ATOM     15  H   UNL     1       2.791  -0.520  -1.211  0.00  0.00    +0.292 HD
ENDBRANCH  13  14
ENDBRANCH   6   8
ENDBRANCH   1   7
BRANCH   2  16
ATOM     16  C   UNL     1      -0.568  -4.182   2.308  0.00  0.00    +0.176 C 
BRANCH  16  17
ATOM     17  S   UNL     1      -0.755  -4.765   4.016  0.00  0.00    -0.058 S 
BRANCH  17  18
ATOM     18  C   UNL     1      -0.959  -6.507   3.852  0.00  0.00    +0.258 A 
ATOM     19  N   UNL     1      -0.956  -7.160   2.717  0.00  0.00    -0.203 NA
ATOM     20  C   UNL     1      -1.137  -8.484   2.974  0.00  0.00    +0.110 A 
ATOM     21  C   UNL     1      -1.218  -9.620   2.168  0.00  0.00    +0.031 A 
ATOM     22  C   UNL     1      -1.413 -10.855   2.745  0.00  0.00    +0.002 A 
ATOM     23  C   UNL     1      -1.528 -10.976   4.122  0.00  0.00    +0.004 A 
ATOM     24  C   UNL     1      -1.450  -9.861   4.931  0.00  0.00    +0.048 A 
ATOM     25  C   UNL     1      -1.255  -8.611   4.367  0.00  0.00    +0.156 A 
ATOM     26  O   UNL     1      -1.133  -7.363   4.875  0.00  0.00    -0.431 OA
ENDBRANCH  17  18
ENDBRANCH  16  17
ENDBRANCH   2  16
TORSDOF 6
