REMARK  Name = ZINC07043241
REMARK  4 active torsions:
REMARK  status: ('A' for Active; 'I' for Inactive)
REMARK    1  A    between atoms: C_1  and  C_2
REMARK    2  A    between atoms: C_5  and  C_8
REMARK    3  A    between atoms: C_17  and  O_20
REMARK    4  A    between atoms: N_26  and  N_29
REMARK                            x       y       z     vdW  Elec       q    Type
REMARK                         _______ _______ _______ _____ _____    ______ ____
ROOT
ATOM      1  C   UNL     1       0.059  -4.275  -0.021  0.00  0.00    +0.092 C 
ATOM      2  C   UNL     1       1.305  -4.761   0.670  0.00  0.00    +0.015 A 
ATOM      3  C   UNL     1       1.251  -5.252   1.942  0.00  0.00    +0.135 A 
ATOM      4  C   UNL     1       2.417  -5.704   2.579  0.00  0.00    +0.047 A 
ATOM      5  C   UNL     1       3.622  -5.661   1.955  0.00  0.00    +0.012 A 
ATOM      6  C   UNL     1       3.712  -5.157   0.646  0.00  0.00    -0.017 A 
ATOM      7  C   UNL     1       2.537  -4.704  -0.004  0.00  0.00    -0.007 A 
ATOM      8  C   UNL     1       2.624  -4.204  -1.315  0.00  0.00    +0.054 A 
ATOM      9  C   UNL     1       3.837  -4.159  -1.941  0.00  0.00    +0.117 A 
ATOM     10  C   UNL     1       4.995  -4.604  -1.295  0.00  0.00    +0.046 A 
ATOM     11  C   UNL     1       4.944  -5.095  -0.028  0.00  0.00    +0.012 A 
ATOM     12  O   UNL     1       0.076  -5.312   2.616  0.00  0.00    -0.437 OA
ATOM     13  C   UNL     1      -1.097  -5.279   1.949  0.00  0.00    +0.229 A 
ATOM     14  C   UNL     1      -1.163  -4.792   0.683  0.00  0.00    +0.068 A 
ATOM     15  C   UNL     1      -2.415  -4.775   0.026  0.00  0.00    +0.132 A 
ATOM     16  N   UNL     1      -2.528  -4.313  -1.202  0.00  0.00    -0.383 N 
ATOM     17  N   UNL     1      -3.517  -5.255   0.708  0.00  0.00    -0.241 N 
ATOM     18  C   UNL     1      -3.364  -5.724   1.971  0.00  0.00    +0.223 A 
ATOM     19  N   UNL     1      -2.211  -5.734   2.551  0.00  0.00    -0.201 NA
ATOM     20  H   UNL     1      -1.746  -3.979  -1.669  0.00  0.00    +0.157 HD
ATOM     21  H   UNL     1      -3.393  -4.308  -1.641  0.00  0.00    +0.157 HD
ENDROOT
BRANCH   1  26
ATOM     22  C   UNL     1      -0.018   1.503   0.010  0.00  0.00    +0.044 C 
ATOM     23  C   UNL     1       0.002  -0.004   0.002  0.00  0.00    -0.050 A 
ATOM     24  C   UNL     1       0.006  -0.689  -1.199  0.00  0.00    +0.003 A 
ATOM     25  C   UNL     1       0.025  -2.071  -1.206  0.00  0.00    +0.005 A 
ATOM     26  C   UNL     1       0.040  -2.768  -0.013  0.00  0.00    -0.035 A 
ATOM     27  C   UNL     1       0.037  -2.084   1.188  0.00  0.00    +0.005 A 
ATOM     28  C   UNL     1       0.023  -0.702   1.195  0.00  0.00    +0.003 A 
ENDBRANCH   1  26
BRANCH  17  29
ATOM     29  N   UNL     1      -4.748  -5.255   0.115  0.00  0.00    -0.296 N 
ATOM     30  H   UNL     1      -5.447  -5.634   0.736  0.00  0.00    +0.163 HD
ATOM     31  H   UNL     1      -5.001  -4.329  -0.193  0.00  0.00    +0.163 HD
ENDBRANCH  17  29
BRANCH   9  32
ATOM     32  O   UNL     1       3.919  -3.675  -3.208  0.00  0.00    -0.507 OA
ATOM     33  H   UNL     1       4.077  -2.723  -3.256  0.00  0.00    +0.292 HD
ENDBRANCH   9  32
TORSDOF 3
