REMARK  Name = ZINC12868231
REMARK  10 active torsions:
REMARK  status: ('A' for Active; 'I' for Inactive)
REMARK    1  A    between atoms: C_1  and  C_2
REMARK    2  A    between atoms: C_2  and  C_3
REMARK    3  A    between atoms: C_2  and  N_4
REMARK    4  A    between atoms: N_4  and  C_5
REMARK    5  A    between atoms: C_5  and  C_6
REMARK    6  A    between atoms: C_12  and  C_14
REMARK    7  A    between atoms: C_14  and  N_15
REMARK    8  A    between atoms: C_18  and  C_22
REMARK    9  A    between atoms: C_18  and  C_29
REMARK   10  A    between atoms: C_22  and  C_23
REMARK                            x       y       z     vdW  Elec       q    Type
REMARK                         _______ _______ _______ _____ _____    ______ ____
ROOT
ATOM      1  N   UNL     1      -3.708   0.122   2.993  0.00  0.00    -0.215 N 
ATOM      2  C   UNL     1      -4.836   0.857   2.934  0.00  0.00    +0.252 C 
ATOM      3  O   UNL     1      -5.058   1.800   2.206  0.00  0.00    -0.272 OA
ATOM      4  C   UNL     1      -5.770   0.257   3.966  0.00  0.00    +0.142 C 
ATOM      5  N   UNL     1      -4.986  -0.850   4.541  0.00  0.00    -0.281 N 
ATOM      6  C   UNL     1      -3.800  -0.851   3.907  0.00  0.00    +0.310 C 
ATOM      7  O   UNL     1      -2.910  -1.646   4.139  0.00  0.00    -0.252 OA
ATOM      8  H   UNL     1      -5.271  -1.460   5.239  0.00  0.00    +0.152 HD
ENDROOT
BRANCH   4   9
ATOM      9  C   UNL     1      -6.111   1.272   5.026  0.00  0.00    -0.015 A 
ATOM     10  C   UNL     1      -7.221   2.082   4.877  0.00  0.00    +0.006 A 
ATOM     11  C   UNL     1      -7.534   3.013   5.849  0.00  0.00    +0.000 A 
ATOM     12  C   UNL     1      -6.736   3.135   6.972  0.00  0.00    +0.000 A 
ATOM     13  C   UNL     1      -5.626   2.325   7.122  0.00  0.00    +0.000 A 
ATOM     14  C   UNL     1      -5.316   1.390   6.151  0.00  0.00    +0.006 A 
ENDBRANCH   4   9
BRANCH   1  15
ATOM     15  C   UNL     1      -2.528   0.357   2.157  0.00  0.00    +0.213 C 
BRANCH  15  17
ATOM     16  N   UNL     1      -1.735  -0.288  -0.096  0.00  0.00    -0.293 N 
ATOM     17  C   UNL     1      -2.649  -0.440   0.883  0.00  0.00    +0.234 C 
ATOM     18  O   UNL     1      -3.569  -1.217   0.739  0.00  0.00    -0.274 OA
BRANCH  16  20
ATOM     19  C   UNL     1       0.710  -0.274  -0.069  0.00  0.00    +0.028 C 
ATOM     20  C   UNL     1      -0.559   0.558   0.124  0.00  0.00    +0.070 C 
ATOM     21  C   UNL     1      -0.569   1.715  -0.876  0.00  0.00    +0.028 C 
ENDBRANCH  16  20
BRANCH  16  22
ATOM     22  C   UNL     1      -1.918  -0.969  -1.380  0.00  0.00    +0.143 C 
BRANCH  22  23
ATOM     23  C   UNL     1      -1.383  -2.374  -1.284  0.00  0.00    -0.030 A 
ATOM     24  C   UNL     1      -0.097  -2.655  -1.704  0.00  0.00    +0.005 A 
ATOM     25  C   UNL     1       0.394  -3.945  -1.616  0.00  0.00    +0.000 A 
ATOM     26  C   UNL     1      -0.403  -4.953  -1.107  0.00  0.00    +0.000 A 
ATOM     27  C   UNL     1      -1.689  -4.673  -0.686  0.00  0.00    +0.000 A 
ATOM     28  C   UNL     1      -2.178  -3.382  -0.770  0.00  0.00    +0.005 A 
ENDBRANCH  22  23
ENDBRANCH  16  22
ENDBRANCH  15  17
ENDBRANCH   1  15
BRANCH   4  29
ATOM     29  C   UNL     1      -7.041  -0.273   3.299  0.00  0.00    +0.075 C 
BRANCH  29  30
ATOM     30  C   UNL     1      -6.686  -1.408   2.373  0.00  0.00    -0.045 A 
ATOM     31  C   UNL     1      -6.370  -1.150   1.052  0.00  0.00    +0.004 A 
ATOM     32  C   UNL     1      -6.044  -2.191   0.203  0.00  0.00    +0.000 A 
ATOM     33  C   UNL     1      -6.034  -3.490   0.675  0.00  0.00    +0.000 A 
ATOM     34  C   UNL     1      -6.348  -3.748   1.996  0.00  0.00    +0.000 A 
ATOM     35  C   UNL     1      -6.670  -2.707   2.846  0.00  0.00    +0.004 A 
ENDBRANCH  29  30
ENDBRANCH   4  29
TORSDOF 8
