REMARK  Name = ZINC36694867
REMARK  5 active torsions:
REMARK  status: ('A' for Active; 'I' for Inactive)
REMARK    1  A    between atoms: C_1  and  C_2
REMARK    2  A    between atoms: C_7  and  C_9
REMARK    3  A    between atoms: C_7  and  C_10
REMARK    4  A    between atoms: N_13  and  C_17
REMARK    5  A    between atoms: C_17  and  C_18
REMARK                            x       y       z     vdW  Elec       q    Type
REMARK                         _______ _______ _______ _____ _____    ______ ____
ROOT
ATOM      1  C   UNL     1      -0.002   1.570  -0.046  0.00  0.00    +0.007 C 
ATOM      2  C   UNL     1      -0.000   0.038  -0.029  0.00  0.00    -0.011 C 
ATOM      3  C   UNL     1       0.731  -0.479  -1.270  0.00  0.00    +0.038 C 
ATOM      4  C   UNL     1       0.696  -2.002  -1.289  0.00  0.00    +0.113 C 
ATOM      5  C   UNL     1       1.227  -2.620  -0.011  0.00  0.00    +0.041 C 
ATOM      6  C   UNL     1       0.746  -1.977   1.278  0.00  0.00    -0.032 C 
ATOM      7  C   UNL     1       0.742  -0.454   1.211  0.00  0.00    +0.009 C 
ATOM      8  C   UNL     1       1.711  -2.395   2.409  0.00  0.00    +0.011 C 
ATOM      9  C   UNL     1      -0.648  -2.489   1.652  0.00  0.00    +0.011 C 
ATOM     10  C   UNL     1      -0.684  -2.504  -1.635  0.00  0.00    +0.247 C 
ATOM     11  O   UNL     1      -1.738  -2.234  -1.098  0.00  0.00    -0.273 OA
ATOM     12  N   UNL     1      -0.522  -3.317  -2.702  0.00  0.00    -0.215 N 
ATOM     13  C   UNL     1       0.737  -3.289  -3.152  0.00  0.00    +0.310 C 
ATOM     14  O   UNL     1       1.126  -3.926  -4.112  0.00  0.00    -0.252 OA
ATOM     15  N   UNL     1       1.522  -2.480  -2.421  0.00  0.00    -0.285 N 
ATOM     16  H   UNL     1       2.446  -2.246  -2.588  0.00  0.00    +0.151 HD
ENDROOT
BRANCH  12  17
ATOM     17  C   UNL     1      -1.593  -4.125  -3.290  0.00  0.00    +0.214 C 
BRANCH  17  18
ATOM     18  C   UNL     1      -2.295  -3.328  -4.359  0.00  0.00    +0.238 C 
ATOM     19  O   UNL     1      -1.996  -2.167  -4.545  0.00  0.00    -0.274 OA
ATOM     20  N   UNL     1      -3.253  -3.906  -5.110  0.00  0.00    -0.270 N 
ATOM     21  C   UNL     1      -3.685  -5.284  -4.840  0.00  0.00    +0.114 C 
ATOM     22  C   UNL     1      -3.785  -6.016  -6.184  0.00  0.00    +0.024 C 
ATOM     23  C   UNL     1      -4.865  -5.345  -7.033  0.00  0.00    +0.038 C 
ATOM     24  C   UNL     1      -4.633  -3.859  -7.103  0.00  0.00    -0.026 A 
ATOM     25  C   UNL     1      -3.860  -3.200  -6.158  0.00  0.00    +0.039 A 
ATOM     26  C   UNL     1      -3.674  -1.825  -6.245  0.00  0.00    +0.024 A 
ATOM     27  C   UNL     1      -4.261  -1.112  -7.271  0.00  0.00    +0.002 A 
ATOM     28  C   UNL     1      -5.033  -1.767  -8.212  0.00  0.00    +0.000 A 
ATOM     29  C   UNL     1      -5.212  -3.139  -8.134  0.00  0.00    +0.005 A 
ENDBRANCH  17  18
ENDBRANCH  12  17
TORSDOF 2
