REMARK  Name = ZINC09065048
REMARK  10 active torsions:
REMARK  status: ('A' for Active; 'I' for Inactive)
REMARK    1  A    between atoms: C_1  and  C_2
REMARK    2  A    between atoms: C_2  and  N_54
REMARK    3  A    between atoms: C_3  and  C_4
REMARK    4  A    between atoms: C_3  and  N_54
REMARK    5  A    between atoms: C_5  and  C_6
REMARK    6  A    between atoms: C_5  and  N_54
REMARK    7  A    between atoms: C_6  and  N_7
REMARK    8  A    between atoms: C_8  and  C_24
REMARK    9  A    between atoms: C_11  and  C_12
REMARK   10  A    between atoms: C_11  and  O_19
REMARK                            x       y       z     vdW  Elec       q    Type
REMARK                         _______ _______ _______ _____ _____    ______ ____
ROOT
ATOM      1  N   UNL     1      -2.364   5.684   0.501  0.00  0.00    -0.285 N 
ATOM      2  C   UNL     1      -3.028   4.378   0.538  0.00  0.00    +0.144 C 
ATOM      3  C   UNL     1      -1.940   3.336   0.424  0.00  0.00    +0.071 C 
ATOM      4  C   UNL     1      -2.103   1.965   0.418  0.00  0.00    +0.133 C 
ATOM      5  C   UNL     1      -0.732   4.042   0.319  0.00  0.00    +0.249 C 
ATOM      6  O   UNL     1       0.376   3.550   0.206  0.00  0.00    -0.282 OA
ATOM      7  C   UNL     1      -1.040   5.497   0.371  0.00  0.00    +0.288 C 
ATOM      8  O   UNL     1      -0.214   6.386   0.306  0.00  0.00    -0.266 OA
ENDROOT
BRANCH   4   9
ATOM      9  C   UNL     1      -0.935   1.086   0.243  0.00  0.00    +0.017 A 
ATOM     10  C   UNL     1      -0.090   1.251  -0.861  0.00  0.00    +0.014 A 
ATOM     11  C   UNL     1       0.997   0.422  -1.022  0.00  0.00    +0.039 A 
ATOM     12  C   UNL     1       1.257  -0.575  -0.094  0.00  0.00    +0.123 A 
ATOM     13  C   UNL     1       0.424  -0.745   1.003  0.00  0.00    +0.039 A 
ATOM     14  C   UNL     1      -0.667   0.078   1.176  0.00  0.00    +0.014 A 
ATOM     15  F   UNL     1       2.326  -1.385  -0.258  0.00  0.00    -0.205 F 
ENDBRANCH   4   9
BRANCH   2  16
ATOM     16  C   UNL     1      -3.765   4.215   1.842  0.00  0.00    -0.022 A 
ATOM     17  C   UNL     1      -3.205   4.683   3.016  0.00  0.00    +0.007 A 
ATOM     18  C   UNL     1      -3.883   4.538   4.212  0.00  0.00    +0.020 A 
ATOM     19  C   UNL     1      -5.118   3.914   4.235  0.00  0.00    +0.041 A 
ATOM     20  C   UNL     1      -5.676   3.441   3.060  0.00  0.00    +0.020 A 
ATOM     21  C   UNL     1      -4.999   3.591   1.865  0.00  0.00    +0.007 A 
ATOM     22 CL   UNL     1      -5.968   3.726   5.737  0.00  0.00    -0.084 Cl
ENDBRANCH   2  16
BRANCH   4  23
ATOM     23  O   UNL     1      -3.333   1.430   0.573  0.00  0.00    -0.506 OA
ATOM     24  H   UNL     1      -3.268   0.433   0.544  0.00  0.00    +0.292 HD
ENDBRANCH   4  23
BRANCH   1  25
ATOM     25  C   UNL     1      -3.035   6.984   0.586  0.00  0.00    +0.090 C 
BRANCH  25  26
ATOM     26  C   UNL     1      -3.406   7.459  -0.820  0.00  0.00    -0.060 C 
BRANCH  26  27
ATOM     27  N   UNL     1      -4.063   8.779  -0.720  0.00  0.00    +0.380 N 
ATOM     28  H   UNL     1      -3.470   9.405  -0.162  0.00  0.00    -0.082 HD
BRANCH  27  30
ATOM     29  C   UNL     1      -2.896   9.923  -2.537  0.00  0.00    -0.017 C 
ATOM     30  C   UNL     1      -4.239   9.360  -2.068  0.00  0.00    -0.082 C 
ENDBRANCH  27  30
BRANCH  27  31
ATOM     31  C   UNL     1      -5.375   8.641  -0.054  0.00  0.00    -0.082 C 
ATOM     32  C   UNL     1      -5.864  10.030   0.362  0.00  0.00    -0.017 C 
ENDBRANCH  27  31
ENDBRANCH  26  27
ENDBRANCH  25  26
ENDBRANCH   1  25
TORSDOF 8
