REMARK  Name = ZINC22179066
REMARK  15 active torsions:
REMARK  status: ('A' for Active; 'I' for Inactive)
REMARK    1  A    between atoms: C_1  and  C_2
REMARK    2  A    between atoms: C_2  and  C_3
REMARK    3  A    between atoms: C_3  and  C_4
REMARK    4  A    between atoms: C_4  and  N_5
REMARK    5  A    between atoms: N_5  and  C_6
REMARK    6  A    between atoms: C_7  and  N_18
REMARK    7  A    between atoms: N_8  and  C_15
REMARK    8  A    between atoms: C_15  and  C_16
REMARK    9  A    between atoms: C_16  and  C_17
REMARK   10  A    between atoms: C_19  and  C_21
REMARK   11  A    between atoms: C_21  and  O_22
REMARK   12  A    between atoms: O_22  and  C_23
REMARK   13  A    between atoms: C_23  and  C_25
REMARK   14  A    between atoms: C_29  and  C_32
REMARK   15  A    between atoms: C_30  and  N_31
REMARK                            x       y       z     vdW  Elec       q    Type
REMARK                         _______ _______ _______ _____ _____    ______ ____
ROOT
ATOM      1  N   UNL     1       1.408  -2.423  -2.095  0.00  0.00    -0.261 N 
ATOM      2  C   UNL     1       0.658  -2.733  -3.173  0.00  0.00    +0.258 C 
ATOM      3  O   UNL     1       1.182  -3.197  -4.164  0.00  0.00    -0.272 OA
ENDROOT
BRANCH   1   4
ATOM      4  C   UNL     1       2.814  -2.533  -2.159  0.00  0.00    +0.140 A 
ATOM      5  C   UNL     1       3.481  -3.462  -1.387  0.00  0.00    +0.127 A 
ATOM      6  N   UNL     1       4.851  -3.545  -1.471  0.00  0.00    -0.280 N 
ATOM      7  C   UNL     1       5.533  -2.729  -2.295  0.00  0.00    +0.331 A 
ATOM      8  O   UNL     1       6.745  -2.818  -2.355  0.00  0.00    -0.246 OA
ATOM      9  N   UNL     1       4.900  -1.818  -3.055  0.00  0.00    -0.273 N 
ATOM     10  H   UNL     1       5.415  -1.241  -3.641  0.00  0.00    +0.173 HD
ATOM     11  C   UNL     1       3.559  -1.700  -3.014  0.00  0.00    +0.277 A 
ATOM     12  O   UNL     1       2.994  -0.873  -3.711  0.00  0.00    -0.266 OA
BRANCH   5  13
ATOM     13  N   UNL     1       2.784  -4.295  -0.545  0.00  0.00    -0.343 N 
ATOM     14  H   UNL     1       1.827  -4.184  -0.436  0.00  0.00    +0.144 HD
ATOM     15  H   UNL     1       3.250  -4.994  -0.059  0.00  0.00    +0.144 HD
ENDBRANCH   5  13
BRANCH   6  16
ATOM     16  C   UNL     1       5.573  -4.527  -0.658  0.00  0.00    +0.128 C 
BRANCH  16  17
ATOM     17  C   UNL     1       5.700  -5.838  -1.436  0.00  0.00    +0.018 C 
ATOM     18  C   UNL     1       6.453  -6.864  -0.587  0.00  0.00    +0.005 C 
ENDBRANCH  16  17
ENDBRANCH   6  16
ENDBRANCH   1   4
BRANCH   1  19
ATOM     19  C   UNL     1       0.764  -1.973  -0.859  0.00  0.00    +0.114 C 
BRANCH  19  20
ATOM     20  C   UNL     1       0.732  -0.444  -0.828  0.00  0.00    +0.019 C 
BRANCH  20  22
ATOM     21  C   UNL     1       0.026   1.556   0.493  0.00  0.00    +0.004 C 
ATOM     22  C   UNL     1       0.059   0.026   0.463  0.00  0.00    -0.002 C 
ENDBRANCH  20  22
ENDBRANCH  19  20
ENDBRANCH   1  19
BRANCH   2  23
ATOM     23  C   UNL     1      -0.831  -2.503  -3.146  0.00  0.00    +0.328 C 
BRANCH  23  24
ATOM     24  O   UNL     1      -1.398  -2.906  -4.394  0.00  0.00    -0.452 OA
BRANCH  24  25
ATOM     25  C   UNL     1      -2.731  -2.765  -4.535  0.00  0.00    +0.341 C 
ATOM     26  O   UNL     1      -3.393  -2.311  -3.622  0.00  0.00    -0.245 OA
BRANCH  25  27
ATOM     27  C   UNL     1      -3.385  -3.160  -5.794  0.00  0.00    +0.080 A 
ATOM     28  C   UNL     1      -2.652  -3.805  -6.795  0.00  0.00    +0.017 A 
ATOM     29  C   UNL     1      -3.269  -4.171  -7.970  0.00  0.00    +0.001 A 
ATOM     30  C   UNL     1      -4.615  -3.905  -8.167  0.00  0.00    +0.005 A 
ATOM     31  C   UNL     1      -5.353  -3.269  -7.190  0.00  0.00    -0.029 A 
ATOM     32  C   UNL     1      -4.749  -2.897  -5.995  0.00  0.00    +0.042 A 
ATOM     33  C   UNL     1      -6.815  -2.985  -7.415  0.00  0.00    +0.045 C 
BRANCH  32  34
ATOM     34  N   UNL     1      -5.490  -2.262  -5.007  0.00  0.00    -0.357 N 
ATOM     35  H   UNL     1      -5.048  -1.918  -4.215  0.00  0.00    +0.142 HD
ATOM     36  H   UNL     1      -6.450  -2.163  -5.109  0.00  0.00    +0.142 HD
ENDBRANCH  32  34
ENDBRANCH  25  27
ENDBRANCH  24  25
ENDBRANCH  23  24
ENDBRANCH   2  23
TORSDOF 12
