REMARK  Name = ZINC09449678
REMARK  7 active torsions:
REMARK  status: ('A' for Active; 'I' for Inactive)
REMARK    1  A    between atoms: C_1  and  C_2
REMARK    2  A    between atoms: C_2  and  C_29
REMARK    3  A    between atoms: C_6  and  N_22
REMARK    4  A    between atoms: C_9  and  N_21
REMARK    5  A    between atoms: C_10  and  C_12
REMARK    6  A    between atoms: N_14  and  C_15
REMARK    7  A    between atoms: C_15  and  C_16
REMARK                            x       y       z     vdW  Elec       q    Type
REMARK                         _______ _______ _______ _____ _____    ______ ____
ROOT
ATOM      1  C   UNL     1      -1.620  -0.095  -9.477  0.00  0.00    +0.041 C 
ATOM      2  C   UNL     1      -0.511   0.953  -9.366  0.00  0.00    +0.068 C 
ATOM      3  C   UNL     1      -0.235   1.256  -7.891  0.00  0.00    +0.070 C 
ATOM      4  C   UNL     1      -1.384   2.033  -7.308  0.00  0.00    -0.025 A 
ATOM      5  C   UNL     1      -2.300   2.660  -8.091  0.00  0.00    +0.020 A 
ATOM      6  C   UNL     1      -3.348   3.379  -7.502  0.00  0.00    +0.105 A 
ATOM      7  C   UNL     1      -2.592   2.855  -5.394  0.00  0.00    +0.089 A 
ATOM      8  C   UNL     1      -1.502   2.107  -5.895  0.00  0.00    +0.031 A 
ATOM      9  C   UNL     1      -0.641   1.518  -4.882  0.00  0.00    +0.054 A 
ATOM     10  C   UNL     1      -0.955   1.724  -3.556  0.00  0.00    +0.097 A 
ATOM     11  S   UNL     1      -2.421   2.734  -3.631  0.00  0.00    -0.064 S 
ATOM     12  C   UNL     1      -2.221   2.601  -9.595  0.00  0.00    +0.199 C 
ATOM     13  O   UNL     1      -0.926   2.165 -10.006  0.00  0.00    -0.369 OA
ATOM     14  C   UNL     1       0.763   0.428 -10.031  0.00  0.00    +0.041 C 
ATOM     15  N   UNL     1      -3.515   3.492  -6.154  0.00  0.00    -0.337 N 
ATOM     16  H   UNL     1      -4.289   4.025  -5.742  0.00  0.00    +0.168 HD
ENDROOT
BRANCH   6  17
ATOM     17  N   UNL     1      -4.280   4.018  -8.306  0.00  0.00    -0.316 N 
ATOM     18  C   UNL     1      -5.029   3.040  -9.135  0.00  0.00    +0.106 C 
ATOM     19  C   UNL     1      -6.310   3.817  -9.530  0.00  0.00    +0.020 C 
ATOM     20  C   UNL     1      -6.630   4.628  -8.254  0.00  0.00    +0.020 C 
ATOM     21  C   UNL     1      -5.297   4.715  -7.488  0.00  0.00    +0.106 C 
ENDBRANCH   6  17
BRANCH  10  22
ATOM     22  C   UNL     1      -0.273   1.251  -2.409  0.00  0.00    +0.253 C 
ATOM     23  O   UNL     1       0.725   0.565  -2.534  0.00  0.00    -0.270 OA
ATOM     24  N   UNL     1      -0.728   1.561  -1.179  0.00  0.00    -0.304 N 
ATOM     25  H   UNL     1      -1.523   2.108  -1.079  0.00  0.00    +0.149 HD
BRANCH  24  26
ATOM     26  C   UNL     1      -0.022   1.072   0.008  0.00  0.00    +0.179 C 
BRANCH  26  27
ATOM     27  C   UNL     1      -0.730   1.555   1.248  0.00  0.00    +0.122 A 
ATOM     28  C   UNL     1      -1.717   0.908   1.893  0.00  0.00    +0.046 A 
ATOM     29  C   UNL     1      -2.085   1.715   2.994  0.00  0.00    +0.041 A 
ATOM     30  C   UNL     1      -1.299   2.807   2.956  0.00  0.00    +0.195 A 
ATOM     31  O   UNL     1      -0.477   2.701   1.900  0.00  0.00    -0.466 OA
ENDBRANCH  26  27
ENDBRANCH  24  26
ENDBRANCH  10  22
BRANCH   9  32
ATOM     32  N   UNL     1       0.467   0.765  -5.242  0.00  0.00    -0.356 N 
ATOM     33  H   UNL     1       0.817   0.096  -4.634  0.00  0.00    +0.142 HD
ATOM     34  H   UNL     1       0.892   0.907  -6.103  0.00  0.00    +0.142 HD
ENDBRANCH   9  32
TORSDOF 5
