REMARK  Name = ZINC14544709
REMARK  3 active torsions:
REMARK  status: ('A' for Active; 'I' for Inactive)
REMARK    1  A    between atoms: C_1  and  C_2
REMARK    2  A    between atoms: C_4  and  N_28
REMARK    3  A    between atoms: C_9  and  C_18
REMARK                            x       y       z     vdW  Elec       q    Type
REMARK                         _______ _______ _______ _____ _____    ______ ____
ROOT
ATOM      1  C   UNL     1       6.947   5.073  -1.657  0.00  0.00    +0.046 C 
ATOM      2  C   UNL     1       6.726   4.771  -0.197  0.00  0.00    -0.027 A 
ATOM      3  C   UNL     1       7.804   4.479   0.608  0.00  0.00    +0.038 A 
ATOM      4  C   UNL     1       7.617   4.199   1.949  0.00  0.00    +0.127 A 
ATOM      5  C   UNL     1       6.339   4.205   2.476  0.00  0.00    +0.038 A 
ATOM      6  C   UNL     1       5.253   4.490   1.676  0.00  0.00    -0.017 A 
ATOM      7  C   UNL     1       5.430   4.789   0.322  0.00  0.00    +0.034 A 
ATOM      8  N   UNL     1       4.393   5.128  -0.544  0.00  0.00    -0.336 N 
ATOM      9  C   UNL     1       3.027   5.065   0.000  0.00  0.00    +0.107 C 
ATOM     10  C   UNL     1       3.090   5.586   1.421  0.00  0.00    +0.029 C 
ATOM     11  C   UNL     1       3.873   4.490   2.208  0.00  0.00    +0.049 C 
ATOM     12  C   UNL     1       3.561   4.806   3.624  0.00  0.00    -0.023 C 
ATOM     13  C   UNL     1       2.370   5.393   3.673  0.00  0.00    -0.030 C 
ATOM     14  C   UNL     1       1.806   5.548   2.258  0.00  0.00    +0.033 C 
ATOM     15  H   UNL     1       4.462   4.614  -1.409  0.00  0.00    +0.147 HD
ENDROOT
BRANCH   9  16
ATOM     16  C   UNL     1       2.539   3.639  -0.003  0.00  0.00    -0.002 A 
ATOM     17  C   UNL     1       3.301   2.534  -0.016  0.00  0.00    +0.089 A 
ATOM     18  N   UNL     1       2.507   1.420  -0.014  0.00  0.00    -0.360 N 
ATOM     19  H   UNL     1       2.830   0.505  -0.021  0.00  0.00    +0.165 HD
ATOM     20  C   UNL     1       1.181   1.790   0.000  0.00  0.00    +0.047 A 
ATOM     21  C   UNL     1       1.143   3.196   0.008  0.00  0.00    +0.005 A 
ATOM     22  C   UNL     1      -0.085   3.860   0.023  0.00  0.00    +0.010 A 
ATOM     23  C   UNL     1      -1.246   3.138   0.030  0.00  0.00    +0.001 A 
ATOM     24  C   UNL     1      -1.214   1.751   0.017  0.00  0.00    +0.002 A 
ATOM     25  C   UNL     1      -0.013   1.076   0.008  0.00  0.00    +0.026 A 
ENDBRANCH   9  16
BRANCH   4  26
ATOM     26  N   UNL     1       8.778   3.892   2.814  0.00  0.00    +0.056 N 
ATOM     27  O   UNL     1       8.608   3.644   3.995  0.00  0.00    -0.126 OA
ATOM     28  O   UNL     1       9.902   3.887   2.346  0.00  0.00    -0.126 OA
ENDBRANCH   4  26
TORSDOF 2
