REMARK  Name = ZINC00888428
REMARK  10 active torsions:
REMARK  status: ('A' for Active; 'I' for Inactive)
REMARK    1  A    between atoms: C_1  and  C_2
REMARK    2  A    between atoms: C_5  and  C_7
REMARK    3  A    between atoms: C_7  and  C_9
REMARK    4  A    between atoms: C_7  and  N_18
REMARK    5  A    between atoms: N_11  and  C_12
REMARK    6  A    between atoms: N_18  and  C_19
REMARK    7  A    between atoms: C_19  and  C_20
REMARK    8  A    between atoms: C_29  and  C_31
REMARK    9  A    between atoms: C_31  and  N_32
REMARK   10  A    between atoms: C_34  and  C_37
REMARK                            x       y       z     vdW  Elec       q    Type
REMARK                         _______ _______ _______ _____ _____    ______ ____
ROOT
ATOM      1  N   UNL     1       2.710  -3.329  -0.603  0.00  0.00    -0.277 N 
ATOM      2  C   UNL     1       2.658  -3.994  -1.774  0.00  0.00    +0.240 C 
ATOM      3  O   UNL     1       1.607  -4.458  -2.162  0.00  0.00    -0.273 OA
ENDROOT
BRANCH   1   4
ATOM      4  C   UNL     1       1.526  -3.270   0.259  0.00  0.00    +0.228 C 
BRANCH   4   9
ATOM      5  C   UNL     1       2.097   1.275   2.370  0.00  0.00    +0.086 C 
ATOM      6  C   UNL     1       1.513   0.136   1.574  0.00  0.00    +0.102 A 
ATOM      7  C   UNL     1       0.356   0.168   0.888  0.00  0.00    +0.045 A 
ATOM      8  C   UNL     1       0.196  -1.106   0.296  0.00  0.00    +0.047 A 
ATOM      9  C   UNL     1       1.265  -1.840   0.656  0.00  0.00    +0.135 A 
ATOM     10  O   UNL     1       2.062  -1.081   1.425  0.00  0.00    -0.462 OA
ENDBRANCH   4   9
BRANCH   4  11
ATOM     11  C   UNL     1       1.762  -4.100   1.494  0.00  0.00    +0.241 C 
ATOM     12  O   UNL     1       2.869  -4.533   1.732  0.00  0.00    -0.273 OA
ATOM     13  N   UNL     1       0.742  -4.361   2.336  0.00  0.00    -0.311 N 
ATOM     14  H   UNL     1      -0.144  -4.014   2.146  0.00  0.00    +0.149 HD
BRANCH  13  15
ATOM     15  C   UNL     1       0.971  -5.167   3.537  0.00  0.00    +0.073 C 
ATOM     16  C   UNL     1       0.865  -6.652   3.182  0.00  0.00    +0.022 C 
ATOM     17  C   UNL     1       1.104  -7.494   4.437  0.00  0.00    +0.002 C 
ATOM     18  C   UNL     1       0.053  -7.146   5.493  0.00  0.00    +0.000 C 
ATOM     19  C   UNL     1       0.160  -5.661   5.848  0.00  0.00    +0.002 C 
ATOM     20  C   UNL     1      -0.080  -4.819   4.593  0.00  0.00    +0.022 C 
ENDBRANCH  13  15
ENDBRANCH   4  11
ENDBRANCH   1   4
BRANCH   1  21
ATOM     21  C   UNL     1       3.949  -2.666  -0.191  0.00  0.00    +0.144 C 
BRANCH  21  22
ATOM     22  C   UNL     1       4.243  -1.524  -1.129  0.00  0.00    -0.026 A 
ATOM     23  C   UNL     1       5.036  -1.732  -2.242  0.00  0.00    +0.009 A 
ATOM     24  C   UNL     1       5.308  -0.688  -3.106  0.00  0.00    +0.050 A 
ATOM     25  C   UNL     1       4.787   0.572  -2.857  0.00  0.00    +0.166 A 
ATOM     26  C   UNL     1       3.988   0.782  -1.735  0.00  0.00    +0.167 A 
ATOM     27  C   UNL     1       3.715  -0.271  -0.877  0.00  0.00    +0.054 A 
ATOM     28  O   UNL     1       3.602   2.091  -1.714  0.00  0.00    -0.453 OA
ATOM     29  C   UNL     1       4.504   2.772  -2.606  0.00  0.00    +0.466 C 
ATOM     30  O   UNL     1       4.901   1.749  -3.538  0.00  0.00    -0.453 OA
ENDBRANCH  21  22
ENDBRANCH   1  21
BRANCH   2  31
ATOM     31  C   UNL     1       3.907  -4.161  -2.601  0.00  0.00    +0.264 C 
BRANCH  31  32
ATOM     32  N   UNL     1       3.680  -5.180  -3.628  0.00  0.00    -0.154 N 
ATOM     33  N   UNL     1       3.899  -6.442  -3.488  0.00  0.00    -0.130 NA
ATOM     34  C   UNL     1       3.577  -7.036  -4.620  0.00  0.00    +0.207 A 
ATOM     35  N   UNL     1       3.153  -6.074  -5.451  0.00  0.00    -0.108 NA
ATOM     36  N   UNL     1       3.225  -4.956  -4.812  0.00  0.00    -0.045 NA
BRANCH  34  37
ATOM     37  C   UNL     1       3.666  -8.488  -4.916  0.00  0.00    +0.058 A 
ATOM     38  C   UNL     1       4.124  -9.373  -3.943  0.00  0.00    +0.014 A 
ATOM     39  C   UNL     1       4.205 -10.722  -4.223  0.00  0.00    +0.001 A 
ATOM     40  C   UNL     1       3.833 -11.197  -5.468  0.00  0.00    +0.003 A 
ATOM     41  C   UNL     1       3.378 -10.324  -6.439  0.00  0.00    +0.039 A 
ATOM     42  C   UNL     1       3.287  -8.971  -6.168  0.00  0.00    +0.134 A 
ATOM     43  F   UNL     1       2.836  -8.120  -7.115  0.00  0.00    -0.205 F 
ENDBRANCH  34  37
ENDBRANCH  31  32
ENDBRANCH   2  31
TORSDOF 9
