REMARK  Name = ZINC67105183
REMARK  7 active torsions:
REMARK  status: ('A' for Active; 'I' for Inactive)
REMARK    1  A    between atoms: C_1  and  C_2
REMARK    2  A    between atoms: N_10  and  N_14
REMARK    3  A    between atoms: C_15  and  C_17
REMARK    4  A    between atoms: C_17  and  C_18
REMARK    5  A    between atoms: C_18  and  C_20
REMARK    6  A    between atoms: C_18  and  N_21
REMARK    7  A    between atoms: C_22  and  C_24
REMARK                            x       y       z     vdW  Elec       q    Type
REMARK                         _______ _______ _______ _____ _____    ______ ____
ROOT
ATOM      1  N   UNL     1       3.303  -5.678  -0.062  0.00  0.00    -0.224 N 
ATOM      2  C   UNL     1       3.812  -6.196  -1.197  0.00  0.00    +0.231 C 
ATOM      3  O   UNL     1       3.841  -5.528  -2.209  0.00  0.00    -0.274 OA
ATOM      4  H   UNL     1       3.280  -6.212   0.747  0.00  0.00    +0.174 HD
ENDROOT
BRANCH   1  14
ATOM      5  C   UNL     1      -0.019   1.526   0.010  0.00  0.00    +0.007 C 
ATOM      6  C   UNL     1       0.002  -0.004   0.002  0.00  0.00    -0.014 C 
ATOM      7  C   UNL     1       0.716  -0.497  -1.258  0.00  0.00    +0.006 C 
ATOM      8  C   UNL     1       0.727  -2.028  -1.271  0.00  0.00    +0.035 C 
ATOM      9  C   UNL     1       1.442  -2.543  -0.027  0.00  0.00    +0.114 C 
ATOM     10  C   UNL     1       0.753  -2.041   1.238  0.00  0.00    +0.035 C 
ATOM     11  C   UNL     1       0.742  -0.510   1.242  0.00  0.00    +0.006 C 
ATOM     12  C   UNL     1       1.495  -4.053  -0.035  0.00  0.00    +0.263 C 
ATOM     13  O   UNL     1       0.556  -4.821  -0.030  0.00  0.00    -0.271 OA
ATOM     14  N   UNL     1       2.807  -4.367  -0.051  0.00  0.00    -0.137 N 
ATOM     15  C   UNL     1       3.576  -3.272  -0.053  0.00  0.00    +0.326 C 
ATOM     16  O   UNL     1       4.791  -3.300  -0.065  0.00  0.00    -0.251 OA
ATOM     17  N   UNL     1       2.853  -2.136  -0.039  0.00  0.00    -0.284 N 
ATOM     18  H   UNL     1       3.196  -1.229  -0.038  0.00  0.00    +0.151 HD
ENDBRANCH   1  14
BRANCH   2  19
ATOM     19  C   UNL     1       4.345  -7.605  -1.210  0.00  0.00    +0.119 C 
BRANCH  19  20
ATOM     20  C   UNL     1       4.860  -7.944  -2.610  0.00  0.00    +0.079 C 
ATOM     21  C   UNL     1       5.286  -9.412  -2.656  0.00  0.00    +0.028 C 
BRANCH  20  22
ATOM     22  N   UNL     1       6.009  -7.092  -2.927  0.00  0.00    -0.312 N 
ATOM     23  C   UNL     1       6.318  -6.828  -4.212  0.00  0.00    +0.216 C 
ATOM     24  O   UNL     1       5.646  -7.296  -5.106  0.00  0.00    -0.276 OA
ATOM     25  H   UNL     1       6.547  -6.718  -2.212  0.00  0.00    +0.149 HD
BRANCH  23  26
ATOM     26  C   UNL     1       7.500  -5.952  -4.537  0.00  0.00    +0.075 C 
ATOM     27  C   UNL     1       7.297  -4.569  -3.915  0.00  0.00    +0.013 C 
ATOM     28  C   UNL     1       8.497  -3.679  -4.246  0.00  0.00    +0.001 C 
ATOM     29  C   UNL     1       8.626  -3.541  -5.764  0.00  0.00    +0.000 C 
ATOM     30  C   UNL     1       8.829  -4.924  -6.386  0.00  0.00    +0.001 C 
ATOM     31  C   UNL     1       7.630  -5.814  -6.056  0.00  0.00    +0.013 C 
ENDBRANCH  23  26
ENDBRANCH  20  22
ENDBRANCH  19  20
ENDBRANCH   2  19
TORSDOF 5
