REMARK  Name = ZINC36272234
REMARK  4 active torsions:
REMARK  status: ('A' for Active; 'I' for Inactive)
REMARK    1  A    between atoms: N_9  and  C_11
REMARK    2  A    between atoms: C_11  and  C_12
REMARK    3  A    between atoms: C_13  and  C_22
REMARK    4  A    between atoms: C_18  and  N_21
REMARK                            x       y       z     vdW  Elec       q    Type
REMARK                         _______ _______ _______ _____ _____    ______ ____
ROOT
ATOM      1  C   UNL     1       5.892  -2.188   1.146  0.00  0.00    +0.036 A 
ATOM      2  C   UNL     1       6.729  -1.147   0.873  0.00  0.00    +0.109 A 
ATOM      3  N   UNL     1       7.488  -0.922   1.957  0.00  0.00    -0.226 NA
ATOM      4  C   UNL     1       7.156  -1.787   2.905  0.00  0.00    +0.139 A 
ATOM      5  N   UNL     1       6.154  -2.589   2.424  0.00  0.00    -0.303 N 
ATOM      6  C   UNL     1       5.619  -3.575   3.207  0.00  0.00    +0.115 A 
ATOM      7  C   UNL     1       6.068  -3.770   4.471  0.00  0.00    +0.041 A 
ATOM      8  C   UNL     1       7.095  -2.957   4.991  0.00  0.00    +0.028 A 
ATOM      9  C   UNL     1       7.638  -1.981   4.216  0.00  0.00    +0.048 A 
ENDROOT
BRANCH   2  10
ATOM     10  C   UNL     1       6.791  -0.393  -0.403  0.00  0.00    +0.091 A 
ATOM     11  C   UNL     1       7.272   0.915  -0.410  0.00  0.00    +0.030 A 
ATOM     12  C   UNL     1       7.325   1.606  -1.607  0.00  0.00    +0.004 A 
ATOM     13  C   UNL     1       6.894   0.965  -2.761  0.00  0.00    +0.020 A 
ATOM     14  C   UNL     1       6.428  -0.333  -2.682  0.00  0.00    +0.111 A 
ATOM     15  N   UNL     1       6.393  -0.971  -1.528  0.00  0.00    -0.253 NA
ENDBRANCH   2  10
BRANCH   7  16
ATOM     16  N   UNL     1       5.510  -4.783   5.262  0.00  0.00    -0.357 N 
ATOM     17  H   UNL     1       4.802  -5.343   4.906  0.00  0.00    +0.142 HD
ATOM     18  H   UNL     1       5.830  -4.924   6.167  0.00  0.00    +0.142 HD
ENDBRANCH   7  16
BRANCH   1  19
ATOM     19  C   UNL     1       4.866  -2.780   0.214  0.00  0.00    -0.021 C 
BRANCH  19  28
ATOM     20  C   UNL     1      -0.017   1.376   0.010  0.00  0.00    +0.000 A 
ATOM     21  C   UNL     1       1.173   2.080   0.002  0.00  0.00    +0.000 A 
ATOM     22  C   UNL     1       2.375   1.401  -0.015  0.00  0.00    +0.002 A 
ATOM     23  C   UNL     1       2.395   0.014  -0.023  0.00  0.00    -0.061 A 
ATOM     24  C   UNL     1       1.208  -0.687  -0.013  0.00  0.00    -0.048 A 
ATOM     25  C   UNL     1       0.002  -0.004   0.002  0.00  0.00    +0.004 A 
ATOM     26  C   UNL     1       1.186  -2.194  -0.014  0.00  0.00    +0.017 C 
ATOM     27  C   UNL     1       2.554  -2.732  -0.434  0.00  0.00    -0.073 C 
ATOM     28  N   UNL     1       3.587  -2.079   0.386  0.00  0.00    +0.386 N 
ATOM     29  C   UNL     1       3.728  -0.686  -0.046  0.00  0.00    -0.042 C 
ATOM     30  H   UNL     1       3.313  -2.106   1.357  0.00  0.00    -0.081 HD
ENDBRANCH  19  28
ENDBRANCH   1  19
TORSDOF 4
