REMARK  Name = ZINC08340214
REMARK  4 active torsions:
REMARK  status: ('A' for Active; 'I' for Inactive)
REMARK    1  A    between atoms: C_1  and  C_2
REMARK    2  A    between atoms: C_5  and  C_8
REMARK    3  A    between atoms: C_10  and  C_13
REMARK    4  A    between atoms: C_13  and  N_14
REMARK                            x       y       z     vdW  Elec       q    Type
REMARK                         _______ _______ _______ _____ _____    ______ ____
ROOT
ATOM      1  N   UNL     1      -1.382   6.939  -0.152  0.00  0.00    -0.215 N 
ATOM      2  C   UNL     1      -0.720   6.051  -0.925  0.00  0.00    +0.251 C 
ATOM      3  O   UNL     1      -0.847   5.875  -2.118  0.00  0.00    -0.272 OA
ATOM      4  C   UNL     1       0.213   5.328   0.012  0.00  0.00    +0.138 C 
ATOM      5  C   UNL     1       1.675   5.506  -0.414  0.00  0.00    +0.045 C 
ATOM      6  C   UNL     1       2.305   4.160   0.009  0.00  0.00    +0.038 C 
ATOM      7  C   UNL     1       1.160   3.168   0.007  0.00  0.00    -0.042 A 
ATOM      8  C   UNL     1      -0.047   3.846   0.018  0.00  0.00    -0.012 A 
ATOM      9  C   UNL     1      -1.234   3.133   0.027  0.00  0.00    +0.006 A 
ATOM     10  C   UNL     1      -1.218   1.752   0.017  0.00  0.00    +0.000 A 
ATOM     11  C   UNL     1      -0.013   1.076   0.008  0.00  0.00    +0.000 A 
ATOM     12  C   UNL     1       1.173   1.784   0.000  0.00  0.00    +0.004 A 
ATOM     13  N   UNL     1      -0.040   5.930   1.321  0.00  0.00    -0.281 N 
ATOM     14  C   UNL     1      -0.991   6.866   1.127  0.00  0.00    +0.310 C 
ATOM     15  O   UNL     1      -1.444   7.564   2.013  0.00  0.00    -0.252 OA
ATOM     16  H   UNL     1       0.390   5.702   2.160  0.00  0.00    +0.152 HD
ENDROOT
BRANCH   1  17
ATOM     17  C   UNL     1      -2.400   7.868  -0.651  0.00  0.00    +0.216 C 
BRANCH  17  20
ATOM     18  C   UNL     1      -0.780  10.691  -2.177  0.00  0.00    +0.202 A 
ATOM     19  N   UNL     1      -1.275   9.435  -2.266  0.00  0.00    -0.190 NA
ATOM     20  C   UNL     1      -1.741   9.155  -1.075  0.00  0.00    +0.246 A 
ATOM     21  O   UNL     1      -1.528  10.228  -0.306  0.00  0.00    -0.336 OA
ATOM     22  N   UNL     1      -0.973  11.095  -0.948  0.00  0.00    -0.056 NA
BRANCH  18  27
ATOM     23  C   UNL     1       1.715  13.692  -6.412  0.00  0.00    +0.044 C 
ATOM     24  C   UNL     1       1.062  12.907  -5.304  0.00  0.00    -0.050 A 
ATOM     25  C   UNL     1       0.925  13.470  -4.048  0.00  0.00    +0.004 A 
ATOM     26  C   UNL     1       0.328  12.756  -3.030  0.00  0.00    +0.012 A 
ATOM     27  C   UNL     1      -0.138  11.464  -3.268  0.00  0.00    +0.022 A 
ATOM     28  C   UNL     1       0.007  10.900  -4.534  0.00  0.00    +0.012 A 
ATOM     29  C   UNL     1       0.601  11.626  -5.547  0.00  0.00    +0.004 A 
ENDBRANCH  18  27
ENDBRANCH  17  20
ENDBRANCH   1  17
TORSDOF 3
