REMARK  Name = ZINC25158481
REMARK  8 active torsions:
REMARK  status: ('A' for Active; 'I' for Inactive)
REMARK    1  A    between atoms: C_1  and  C_2
REMARK    2  A    between atoms: C_2  and  C_4
REMARK    3  A    between atoms: C_2  and  C_14
REMARK    4  A    between atoms: C_4  and  C_5
REMARK    5  A    between atoms: C_20  and  O_26
REMARK    6  A    between atoms: O_26  and  C_27
REMARK    7  A    between atoms: C_31  and  C_33
REMARK    8  A    between atoms: C_34  and  C_35
REMARK                            x       y       z     vdW  Elec       q    Type
REMARK                         _______ _______ _______ _____ _____    ______ ____
ROOT
ATOM      1  C   UNL     1       4.579   6.710  -0.344  0.00  0.00    +0.126 C 
ATOM      2  C   UNL     1       4.624   7.589  -1.574  0.00  0.00    +0.041 A 
ATOM      3  C   UNL     1       3.785   8.627  -1.780  0.00  0.00    -0.016 A 
ATOM      4  C   UNL     1       4.139   9.211  -3.058  0.00  0.00    +0.007 A 
ATOM      5  C   UNL     1       3.625  10.293  -3.780  0.00  0.00    +0.056 A 
ATOM      6  C   UNL     1       4.226  10.573  -4.998  0.00  0.00    +0.121 A 
ATOM      7  C   UNL     1       5.287   9.818  -5.482  0.00  0.00    +0.047 A 
ATOM      8  C   UNL     1       5.809   8.745  -4.781  0.00  0.00    +0.030 A 
ATOM      9  C   UNL     1       5.223   8.443  -3.554  0.00  0.00    +0.047 A 
ATOM     10  N   UNL     1       5.489   7.471  -2.629  0.00  0.00    -0.356 N 
ATOM     11  H   UNL     1       6.249   6.676  -2.631  0.00  0.00    +0.166 HD
ATOM     12  C   UNL     1       2.700   9.058  -0.826  0.00  0.00    +0.056 C 
ATOM     13  C   UNL     1       2.411   7.912   0.151  0.00  0.00    +0.113 C 
ATOM     14  N   UNL     1       3.687   7.361   0.632  0.00  0.00    -0.289 N 
ATOM     15  C   UNL     1       4.032   7.449   1.932  0.00  0.00    +0.240 C 
ATOM     16  O   UNL     1       3.329   8.071   2.707  0.00  0.00    -0.271 OA
ENDROOT
BRANCH   1  18
ATOM     17  C   UNL     1       4.961   4.663  -1.724  0.00  0.00    +0.010 C 
ATOM     18  C   UNL     1       4.029   5.330  -0.711  0.00  0.00    +0.017 C 
BRANCH  18  19
ATOM     19  C   UNL     1       3.941   4.465   0.548  0.00  0.00    +0.040 C 
BRANCH  19  20
ATOM     20  C   UNL     1       3.286   3.151   0.210  0.00  0.00    -0.043 A 
ATOM     21  C   UNL     1       4.059   2.079  -0.194  0.00  0.00    +0.007 A 
ATOM     22  C   UNL     1       3.464   0.871  -0.505  0.00  0.00    +0.050 A 
ATOM     23  C   UNL     1       2.088   0.732  -0.413  0.00  0.00    +0.166 A 
ATOM     24  C   UNL     1       1.309   1.812  -0.007  0.00  0.00    +0.166 A 
ATOM     25  C   UNL     1       1.913   3.020   0.303  0.00  0.00    +0.053 A 
ATOM     26  O   UNL     1      -0.001   1.426   0.003  0.00  0.00    -0.453 OA
ATOM     27  C   UNL     1       0.023  -0.013  -0.006  0.00  0.00    +0.466 C 
ATOM     28  O   UNL     1       1.267  -0.331  -0.657  0.00  0.00    -0.453 OA
ENDBRANCH  19  20
ENDBRANCH  18  19
ENDBRANCH   1  18
BRANCH   6  29
ATOM     29  O   UNL     1       3.764  11.615  -5.740  0.00  0.00    -0.495 OA
ATOM     30  C   UNL     1       4.415  11.863  -6.987  0.00  0.00    +0.277 C 
ENDBRANCH   6  29
BRANCH  15  31
ATOM     31  C   UNL     1       5.252   6.798   2.411  0.00  0.00    +0.068 C 
ATOM     32  C   UNL     1       5.545   6.801   3.728  0.00  0.00    +0.014 C 
BRANCH  32  33
ATOM     33  C   UNL     1       6.771   6.145   4.210  0.00  0.00    -0.007 A 
ATOM     34  C   UNL     1       7.632   5.513   3.307  0.00  0.00    +0.009 A 
ATOM     35  C   UNL     1       8.781   4.906   3.766  0.00  0.00    +0.001 A 
ATOM     36  C   UNL     1       9.079   4.911   5.118  0.00  0.00    +0.001 A 
ATOM     37  C   UNL     1       8.231   5.529   6.019  0.00  0.00    +0.020 A 
ATOM     38  C   UNL     1       7.079   6.146   5.575  0.00  0.00    +0.048 A 
ATOM     39 CL   UNL     1       6.015   6.921   6.707  0.00  0.00    -0.083 Cl
ENDBRANCH  32  33
ENDBRANCH  15  31
TORSDOF 6
