REMARK  Name = ZINC63514433
REMARK  13 active torsions:
REMARK  status: ('A' for Active; 'I' for Inactive)
REMARK    1  A    between atoms: C_1  and  C_2
REMARK    2  A    between atoms: C_3  and  C_17
REMARK    3  A    between atoms: C_4  and  C_16
REMARK    4  A    between atoms: C_8  and  C_15
REMARK    5  A    between atoms: N_10  and  C_11
REMARK    6  A    between atoms: C_11  and  C_12
REMARK    7  A    between atoms: C_11  and  C_13
REMARK    8  A    between atoms: C_11  and  C_14
REMARK    9  A    between atoms: C_17  and  C_18
REMARK   10  A    between atoms: C_18  and  C_19
REMARK   11  A    between atoms: N_21  and  C_22
REMARK   12  A    between atoms: C_22  and  C_23
REMARK   13  A    between atoms: C_23  and  C_24
REMARK                            x       y       z     vdW  Elec       q    Type
REMARK                         _______ _______ _______ _____ _____    ______ ____
ROOT
ATOM      1  C   UNL     1      -0.010   0.034  -2.493  0.00  0.00    +0.046 C 
ENDROOT
BRANCH   1   4
ATOM      2  C   UNL     1      -0.018   1.503   0.010  0.00  0.00    +0.045 C 
ATOM      3  C   UNL     1       0.002  -0.004   0.002  0.00  0.00    -0.033 A 
ATOM      4  C   UNL     1       0.006  -0.702  -1.178  0.00  0.00    -0.022 A 
ATOM      5  C   UNL     1       0.025  -2.089  -1.154  0.00  0.00    +0.044 A 
ATOM      6  N   UNL     1       0.039  -2.759  -0.023  0.00  0.00    -0.232 NA
ATOM      7  C   UNL     1       0.036  -2.138   1.151  0.00  0.00    +0.159 A 
ATOM      8  C   UNL     1       0.023  -0.730   1.199  0.00  0.00    +0.045 A 
ATOM      9  C   UNL     1       0.032  -0.364   2.611  0.00  0.00    +0.070 A 
ATOM     10  N   UNL     1       0.053  -1.467   3.304  0.00  0.00    -0.174 NA
ATOM     11  N   UNL     1       0.047  -2.573   2.448  0.00  0.00    -0.241 N 
ATOM     12  C   UNL     1       0.018   1.036   3.167  0.00  0.00    +0.068 C 
ATOM     13  C   UNL     1       0.029  -2.846  -2.457  0.00  0.00    +0.066 C 
BRANCH  11  14
ATOM     14  C   UNL     1       0.067  -3.975   2.873  0.00  0.00    +0.058 C 
ATOM     15  C   UNL     1       1.323  -4.656   2.325  0.00  0.00    +0.036 C 
ATOM     16  C   UNL     1       0.075  -4.044   4.401  0.00  0.00    +0.036 C 
ATOM     17  C   UNL     1      -1.175  -4.688   2.336  0.00  0.00    +0.036 C 
ENDBRANCH  11  14
ENDBRANCH   1   4
BRANCH   1  18
ATOM     18  C   UNL     1       1.426   0.302  -2.945  0.00  0.00    +0.100 C 
BRANCH  18  19
ATOM     19  C   UNL     1       1.410   1.038  -4.260  0.00  0.00    +0.213 C 
ATOM     20  O   UNL     1       0.353   1.319  -4.784  0.00  0.00    -0.276 OA
ATOM     21  N   UNL     1       2.570   1.383  -4.854  0.00  0.00    -0.315 N 
ATOM     22  H   UNL     1       3.415   1.158  -4.435  0.00  0.00    +0.149 HD
BRANCH  21  23
ATOM     23  C   UNL     1       2.554   2.098  -6.132  0.00  0.00    +0.108 C 
BRANCH  23  24
ATOM     24  C   UNL     1       3.990   2.367  -6.584  0.00  0.00    +0.052 C 
BRANCH  24  25
ATOM     25  C   UNL     1       3.974   3.102  -7.900  0.00  0.00    -0.040 C 
ATOM     26  C   UNL     1       4.054   4.440  -8.085  0.00  0.00    -0.001 A 
ATOM     27  C   UNL     1       4.175   5.567  -7.152  0.00  0.00    +0.010 A 
ATOM     28  C   UNL     1       4.234   6.824  -7.647  0.00  0.00    +0.001 A 
ATOM     29  C   UNL     1       4.182   7.077  -9.025  0.00  0.00    +0.002 A 
ATOM     30  C   UNL     1       4.071   6.094  -9.943  0.00  0.00    +0.026 A 
ATOM     31  C   UNL     1       4.002   4.734  -9.534  0.00  0.00    +0.043 A 
ATOM     32  N   UNL     1       3.893   3.621 -10.220  0.00  0.00    -0.380 N 
ATOM     33  C   UNL     1       3.871   2.494  -9.280  0.00  0.00    +0.144 C 
ATOM     34  H   UNL     1       3.841   3.554 -11.186  0.00  0.00    +0.160 HD
ENDBRANCH  24  25
ENDBRANCH  23  24
ENDBRANCH  21  23
ENDBRANCH  18  19
ENDBRANCH   1  18
TORSDOF 7
