REMARK  Name = ZINC45155703
REMARK  4 active torsions:
REMARK  status: ('A' for Active; 'I' for Inactive)
REMARK    1  A    between atoms: C_1  and  C_2
REMARK    2  A    between atoms: N_11  and  C_12
REMARK    3  A    between atoms: C_12  and  C_14
REMARK    4  A    between atoms: C_12  and  C_20
REMARK                            x       y       z     vdW  Elec       q    Type
REMARK                         _______ _______ _______ _____ _____    ______ ____
ROOT
ATOM      1  C   UNL     1      -0.087  -4.956   3.076  0.00  0.00    +0.171 C 
ENDROOT
BRANCH   1  11
ATOM      2  C   UNL     1      -0.023   1.525   0.010  0.00  0.00    +0.009 C 
ATOM      3  C   UNL     1      -0.002  -0.005   0.002  0.00  0.00    +0.003 C 
ATOM      4  C   UNL     1       0.715  -0.499  -1.257  0.00  0.00    +0.006 C 
ATOM      5  C   UNL     1       0.709  -2.029  -1.282  0.00  0.00    +0.019 C 
ATOM      6  C   UNL     1       1.461  -2.559  -0.058  0.00  0.00    +0.109 C 
ATOM      7  N   UNL     1       0.868  -1.973   1.152  0.00  0.00    -0.285 N 
ATOM      8  C   UNL     1       0.742  -0.512   1.241  0.00  0.00    +0.112 C 
ATOM      9  C   UNL     1       0.447  -2.761   2.161  0.00  0.00    +0.303 C 
ATOM     10  O   UNL     1       0.043  -2.263   3.194  0.00  0.00    -0.253 OA
ATOM     11  N   UNL     1       0.473  -4.102   2.026  0.00  0.00    -0.285 N 
ATOM     12  H   UNL     1       0.864  -4.502   1.232  0.00  0.00    +0.151 HD
ENDBRANCH   1  11
BRANCH   1  13
ATOM     13  C   UNL     1       0.570  -6.311   3.025  0.00  0.00    -0.020 A 
ATOM     14  C   UNL     1       0.848  -6.900   1.806  0.00  0.00    +0.006 A 
ATOM     15  C   UNL     1       1.450  -8.143   1.759  0.00  0.00    +0.000 A 
ATOM     16  C   UNL     1       1.776  -8.797   2.932  0.00  0.00    +0.000 A 
ATOM     17  C   UNL     1       1.499  -8.209   4.152  0.00  0.00    +0.000 A 
ATOM     18  C   UNL     1       0.901  -6.963   4.198  0.00  0.00    +0.006 A 
ENDBRANCH   1  13
BRANCH   1  19
ATOM     19  C   UNL     1      -1.571  -5.108   2.861  0.00  0.00    +0.129 A 
ATOM     20  C   UNL     1      -2.509  -5.104   3.825  0.00  0.00    +0.047 A 
ATOM     21  C   UNL     1      -3.757  -5.275   3.182  0.00  0.00    +0.041 A 
ATOM     22  C   UNL     1      -3.506  -5.373   1.864  0.00  0.00    +0.195 A 
ATOM     23  O   UNL     1      -2.180  -5.266   1.675  0.00  0.00    -0.466 OA
ENDBRANCH   1  19
TORSDOF 3
