REMARK  Name = ZINC20388825
REMARK  10 active torsions:
REMARK  status: ('A' for Active; 'I' for Inactive)
REMARK    1  A    between atoms: C_1  and  C_2
REMARK    2  A    between atoms: C_4  and  C_31
REMARK    3  A    between atoms: C_5  and  C_9
REMARK    4  A    between atoms: C_7  and  C_8
REMARK    5  A    between atoms: C_9  and  C_11
REMARK    6  A    between atoms: C_11  and  S_12
REMARK    7  A    between atoms: S_12  and  C_13
REMARK    8  A    between atoms: C_15  and  N_30
REMARK    9  A    between atoms: C_16  and  C_28
REMARK   10  A    between atoms: C_18  and  C_20
REMARK                            x       y       z     vdW  Elec       q    Type
REMARK                         _______ _______ _______ _____ _____    ______ ____
ROOT
ATOM      1  C   UNL     1       1.206  -7.217   2.926  0.00  0.00    +0.089 C 
ATOM      2  N   UNL     1       1.085  -6.520   4.023  0.00  0.00    -0.229 NA
ATOM      3  C   UNL     1       1.165  -7.086   5.239  0.00  0.00    +0.131 C 
ATOM      4  C   UNL     1       1.047  -8.452   5.392  0.00  0.00    +0.076 C 
ATOM      5  C   UNL     1       0.793  -9.316   4.181  0.00  0.00    +0.026 C 
ATOM      6  C   UNL     1       1.486  -8.696   2.969  0.00  0.00    +0.141 C 
ATOM      7  C   UNL     1       1.347 -10.719   4.429  0.00  0.00    +0.013 C 
ATOM      8  C   UNL     1       1.090 -11.594   3.200  0.00  0.00    +0.001 C 
ATOM      9  C   UNL     1      -0.415 -11.676   2.939  0.00  0.00    +0.000 C 
ATOM     10  C   UNL     1      -0.968 -10.271   2.689  0.00  0.00    +0.001 C 
ATOM     11  C   UNL     1      -0.711  -9.397   3.918  0.00  0.00    +0.013 C 
ENDROOT
BRANCH   6  12
ATOM     12  C   UNL     1       2.972  -8.923   3.076  0.00  0.00    +0.221 C 
ATOM     13  O   UNL     1       3.591  -8.460   4.010  0.00  0.00    -0.275 OA
ATOM     14  N   UNL     1       3.613  -9.642   2.133  0.00  0.00    -0.329 N 
ATOM     15  H   UNL     1       3.118 -10.012   1.385  0.00  0.00    +0.145 HD
ATOM     16  H   UNL     1       4.569  -9.788   2.201  0.00  0.00    +0.145 HD
ENDBRANCH   6  12
BRANCH   3  17
ATOM     17  N   UNL     1       1.367  -6.291   6.349  0.00  0.00    -0.342 N 
ATOM     18  H   UNL     1       1.450  -5.330   6.248  0.00  0.00    +0.144 HD
ATOM     19  H   UNL     1       1.425  -6.694   7.229  0.00  0.00    +0.144 HD
ENDBRANCH   3  17
BRANCH   4  20
ATOM     20  C   UNL     1       1.165  -9.045   6.689  0.00  0.00    +0.099 C 
ATOM     21  N   UNL     1       1.258  -9.516   7.719  0.00  0.00    -0.191 NA
ENDBRANCH   4  20
BRANCH   1  22
ATOM     22  S   UNL     1       1.042  -6.461   1.458  0.00  0.00    -0.101 S 
BRANCH  22  23
ATOM     23  C   UNL     1       0.721  -4.728   1.890  0.00  0.00    +0.155 C 
BRANCH  23  24
ATOM     24  C   UNL     1       0.550  -3.920   0.630  0.00  0.00    +0.174 C 
ATOM     25  O   UNL     1       0.636  -4.459  -0.453  0.00  0.00    -0.291 OA
BRANCH  24  30
ATOM     26  C   UNL     1      -0.512   1.721   0.956  0.00  0.00    +0.044 C 
ATOM     27  C   UNL     1      -0.234   0.242   0.870  0.00  0.00    -0.047 A 
ATOM     28  C   UNL     1      -0.262  -0.394  -0.359  0.00  0.00    +0.007 A 
ATOM     29  C   UNL     1      -0.008  -1.746  -0.445  0.00  0.00    -0.040 A 
ATOM     30  C   UNL     1       0.278  -2.476   0.713  0.00  0.00    +0.021 A 
ATOM     31  C   UNL     1       0.305  -1.826   1.951  0.00  0.00    +0.015 A 
ATOM     32  C   UNL     1       0.055  -0.471   2.020  0.00  0.00    -0.047 A 
ATOM     33  C   UNL     1       0.089   0.232   3.352  0.00  0.00    +0.044 C 
ATOM     34  C   UNL     1      -0.040  -2.437  -1.784  0.00  0.00    +0.044 C 
ENDBRANCH  24  30
ENDBRANCH  23  24
ENDBRANCH  22  23
ENDBRANCH   1  22
TORSDOF 7
