REMARK  Name = ZINC06982938
REMARK  4 active torsions:
REMARK  status: ('A' for Active; 'I' for Inactive)
REMARK    1  A    between atoms: C_7  and  C_11
REMARK    2  A    between atoms: C_11  and  C_12
REMARK    3  A    between atoms: N_14  and  N_15
REMARK    4  A    between atoms: C_16  and  C_18
REMARK                            x       y       z     vdW  Elec       q    Type
REMARK                         _______ _______ _______ _____ _____    ______ ____
ROOT
ATOM      1  C   UNL     1      -1.714   2.526   1.440  0.00  0.00    +0.233 C 
ATOM      2  O   UNL     1      -1.117   1.995   2.352  0.00  0.00    -0.274 OA
ATOM      3  N   UNL     1      -2.801   3.280   1.694  0.00  0.00    -0.234 N 
ATOM      4  H   UNL     1      -3.279   3.705   0.965  0.00  0.00    +0.173 HD
ENDROOT
BRANCH   3   5
ATOM      5  N   UNL     1      -3.241   3.453   3.014  0.00  0.00    -0.230 N 
ATOM      6  C   UNL     1      -4.328   4.207   3.268  0.00  0.00    +0.262 C 
ATOM      7  O   UNL     1      -4.927   4.739   2.354  0.00  0.00    -0.269 OA
ATOM      8  H   UNL     1      -2.763   3.028   3.743  0.00  0.00    +0.173 HD
BRANCH   6   9
ATOM      9  C   UNL     1      -4.792   4.389   4.660  0.00  0.00    +0.058 A 
ATOM     10  C   UNL     1      -4.110   3.775   5.712  0.00  0.00    +0.034 A 
ATOM     11  C   UNL     1      -4.546   3.952   7.009  0.00  0.00    +0.042 A 
ATOM     12  C   UNL     1      -5.664   4.729   7.268  0.00  0.00    +0.021 A 
ATOM     13  C   UNL     1      -6.347   5.336   6.230  0.00  0.00    +0.022 A 
ATOM     14  C   UNL     1      -5.918   5.171   4.927  0.00  0.00    +0.053 A 
ATOM     15 CL   UNL     1      -6.777   5.934   3.626  0.00  0.00    -0.083 Cl
ATOM     16 CL   UNL     1      -3.696   3.195   8.320  0.00  0.00    -0.084 Cl
ENDBRANCH   6   9
ENDBRANCH   3   5
BRANCH   1  17
ATOM     17  C   UNL     1      -1.241   2.341   0.021  0.00  0.00    +0.134 C 
BRANCH  17  24
ATOM     18  C   UNL     1      -0.634  -2.308  -0.004  0.00  0.00    +0.001 A 
ATOM     19  C   UNL     1       0.704  -2.678  -0.019  0.00  0.00    +0.002 A 
ATOM     20  C   UNL     1       1.697  -1.724  -0.023  0.00  0.00    +0.026 A 
ATOM     21  C   UNL     1       1.359  -0.374  -0.013  0.00  0.00    +0.047 A 
ATOM     22  C   UNL     1       0.002  -0.004   0.002  0.00  0.00    +0.003 A 
ATOM     23  C   UNL     1      -0.989  -0.988   0.007  0.00  0.00    +0.010 A 
ATOM     24  C   UNL     1      -0.018   1.461   0.010  0.00  0.00    -0.014 A 
ATOM     25  C   UNL     1       1.260   1.871   0.000  0.00  0.00    +0.087 A 
ATOM     26  N   UNL     1       2.097   0.788  -0.014  0.00  0.00    -0.360 N 
ATOM     27  H   UNL     1       3.066   0.833  -0.023  0.00  0.00    +0.165 HD
ENDBRANCH  17  24
ENDBRANCH   1  17
TORSDOF 4
