REMARK  Name = ZINC39738700
REMARK  9 active torsions:
REMARK  status: ('A' for Active; 'I' for Inactive)
REMARK    1  A    between atoms: C_1  and  C_2
REMARK    2  A    between atoms: C_2  and  C_4
REMARK    3  A    between atoms: C_2  and  N_17
REMARK    4  A    between atoms: N_6  and  C_7
REMARK    5  A    between atoms: C_7  and  C_8
REMARK    6  A    between atoms: N_17  and  C_18
REMARK    7  A    between atoms: C_18  and  C_19
REMARK    8  A    between atoms: C_19  and  C_21
REMARK    9  A    between atoms: C_19  and  C_27
REMARK                            x       y       z     vdW  Elec       q    Type
REMARK                         _______ _______ _______ _____ _____    ______ ____
ROOT
ATOM      1  N   UNL     1       0.686  -0.690   1.180  0.00  0.00    +0.387 N 
ATOM      2  H   UNL     1       1.043  -1.633   1.223  0.00  0.00    -0.085 HD
ATOM      3  H   UNL     1       1.457  -0.038   1.171  0.00  0.00    -0.085 HD
ENDROOT
BRANCH   1   5
ATOM      4  C   UNL     1      -0.547   0.937  -0.173  0.00  0.00    -0.004 C 
ATOM      5  C   UNL     1      -0.110  -0.523  -0.043  0.00  0.00    +0.013 C 
BRANCH   5   6
ATOM      6  C   UNL     1       0.721  -0.907  -1.240  0.00  0.00    +0.199 C 
ATOM      7  O   UNL     1       1.865  -1.282  -1.089  0.00  0.00    -0.278 OA
ATOM      8  N   UNL     1       0.194  -0.833  -2.478  0.00  0.00    -0.313 N 
ATOM      9  H   UNL     1      -0.720  -0.533  -2.599  0.00  0.00    +0.149 HD
BRANCH   8  10
ATOM     10  C   UNL     1       1.003  -1.206  -3.642  0.00  0.00    +0.139 C 
BRANCH  10  11
ATOM     11  C   UNL     1       0.186  -1.036  -4.897  0.00  0.00    -0.027 A 
ATOM     12  C   UNL     1      -0.576  -2.087  -5.372  0.00  0.00    +0.009 A 
ATOM     13  C   UNL     1      -1.328  -1.935  -6.522  0.00  0.00    +0.050 A 
ATOM     14  C   UNL     1      -1.319  -0.728  -7.202  0.00  0.00    +0.166 A 
ATOM     15  C   UNL     1      -0.551   0.331  -6.724  0.00  0.00    +0.167 A 
ATOM     16  C   UNL     1       0.195   0.173  -5.567  0.00  0.00    +0.054 A 
ATOM     17  O   UNL     1      -0.709   1.398  -7.560  0.00  0.00    -0.453 OA
ATOM     18  C   UNL     1      -1.257   0.855  -8.776  0.00  0.00    +0.466 C 
ATOM     19  O   UNL     1      -1.958  -0.325  -8.339  0.00  0.00    -0.453 OA
ENDBRANCH  10  11
ENDBRANCH   8  10
ENDBRANCH   5   6
ENDBRANCH   1   5
BRANCH   1  20
ATOM     20  C   UNL     1      -0.159  -0.431   2.353  0.00  0.00    -0.072 C 
BRANCH  20  21
ATOM     21  C   UNL     1       0.633  -0.732   3.628  0.00  0.00    +0.018 C 
BRANCH  21  22
ATOM     22  C   UNL     1       1.797   0.219   3.732  0.00  0.00    -0.020 A 
ATOM     23  C   UNL     1       3.216  -0.143   3.780  0.00  0.00    +0.003 A 
ATOM     24  C   UNL     1       3.910  -1.354   3.751  0.00  0.00    +0.010 A 
ATOM     25  C   UNL     1       5.275  -1.355   3.816  0.00  0.00    +0.001 A 
ATOM     26  C   UNL     1       5.978  -0.162   3.910  0.00  0.00    +0.002 A 
ATOM     27  C   UNL     1       5.312   1.045   3.941  0.00  0.00    +0.026 A 
ATOM     28  C   UNL     1       3.923   1.070   3.876  0.00  0.00    +0.047 A 
ATOM     29  N   UNL     1       2.992   2.084   3.884  0.00  0.00    -0.360 N 
ATOM     30  C   UNL     1       1.732   1.559   3.791  0.00  0.00    +0.087 A 
ATOM     31  H   UNL     1       3.199   3.030   3.942  0.00  0.00    +0.165 HD
ENDBRANCH  21  22
BRANCH  21  32
ATOM     32  C   UNL     1      -0.277  -0.558   4.846  0.00  0.00    +0.060 C 
ATOM     33  C   UNL     1       0.416  -1.041   6.147  0.00  0.00    +0.042 C 
ATOM     34  C   UNL     1      -0.558  -1.742   7.038  0.00  0.00    -0.019 C 
ATOM     35  C   UNL     1      -1.694  -2.192   6.542  0.00  0.00    +0.036 C 
ATOM     36  S   UNL     1      -1.683  -1.749   4.813  0.00  0.00    -0.129 S 
ENDBRANCH  21  32
ENDBRANCH  20  21
ENDBRANCH   1  20
TORSDOF 8
