REMARK  Name = ZINC12907180
REMARK  7 active torsions:
REMARK  status: ('A' for Active; 'I' for Inactive)
REMARK    1  A    between atoms: C_1  and  C_2
REMARK    2  A    between atoms: C_5  and  S_7
REMARK    3  A    between atoms: S_7  and  C_8
REMARK    4  A    between atoms: C_8  and  C_9
REMARK    5  A    between atoms: C_17  and  C_18
REMARK    6  A    between atoms: C_22  and  C_31
REMARK    7  A    between atoms: N_33  and  C_34
REMARK                            x       y       z     vdW  Elec       q    Type
REMARK                         _______ _______ _______ _____ _____    ______ ____
ROOT
ATOM      1  C   UNL     1      -3.958  -0.897   0.040  0.00  0.00    +0.021 A 
ATOM      2  C   UNL     1      -4.788  -1.200  -1.125  0.00  0.00    +0.025 A 
ATOM      3  C   UNL     1      -4.569  -1.193  -2.505  0.00  0.00    +0.012 A 
ATOM      4  C   UNL     1      -5.580  -1.548  -3.353  0.00  0.00    +0.001 A 
ATOM      5  C   UNL     1      -6.820  -1.921  -2.852  0.00  0.00    +0.004 A 
ATOM      6  C   UNL     1      -7.054  -1.941  -1.494  0.00  0.00    +0.047 A 
ATOM      7  C   UNL     1      -6.041  -1.583  -0.612  0.00  0.00    +0.136 A 
ATOM      8  O   UNL     1      -5.971  -1.507   0.732  0.00  0.00    -0.450 OA
ATOM      9  C   UNL     1      -4.746  -1.103   1.127  0.00  0.00    +0.195 A 
ENDROOT
BRANCH   9  10
ATOM     10  C   UNL     1      -4.327  -0.914   2.523  0.00  0.00    +0.287 C 
ATOM     11  O   UNL     1      -3.242  -0.424   2.772  0.00  0.00    -0.266 OA
ATOM     12  N   UNL     1      -5.146  -1.284   3.528  0.00  0.00    -0.258 N 
ATOM     13  C   UNL     1      -6.401  -2.008   3.261  0.00  0.00    +0.168 C 
ATOM     14  C   UNL     1      -6.532  -3.113   4.319  0.00  0.00    +0.276 C 
ATOM     15  O   UNL     1      -6.520  -2.513   5.616  0.00  0.00    -0.476 OA
ATOM     16  C   UNL     1      -5.532  -1.621   5.892  0.00  0.00    +0.143 A 
ATOM     17  C   UNL     1      -4.830  -0.997   4.866  0.00  0.00    +0.079 A 
ATOM     18  C   UNL     1      -3.830  -0.082   5.161  0.00  0.00    +0.027 A 
ATOM     19  C   UNL     1      -3.523   0.200   6.480  0.00  0.00    +0.002 A 
ATOM     20  C   UNL     1      -4.215  -0.425   7.501  0.00  0.00    +0.004 A 
ATOM     21  C   UNL     1      -5.216  -1.334   7.211  0.00  0.00    +0.047 A 
BRANCH  14  22
ATOM     22  C   UNL     1      -7.829  -3.854   4.117  0.00  0.00    +0.255 C 
ATOM     23  O   UNL     1      -8.694  -3.803   4.965  0.00  0.00    -0.272 OA
ATOM     24  N   UNL     1      -8.026  -4.573   2.995  0.00  0.00    -0.315 N 
ATOM     25  C   UNL     1      -9.287  -5.293   2.799  0.00  0.00    +0.128 C 
ATOM     26  H   UNL     1      -7.334  -4.614   2.316  0.00  0.00    +0.148 HD
ENDBRANCH  14  22
ENDBRANCH   9  10
BRANCH   1  27
ATOM     27  C   UNL     1      -2.521  -0.441   0.035  0.00  0.00    +0.116 C 
BRANCH  27  28
ATOM     28  S   UNL     1      -1.431  -1.885   0.099  0.00  0.00    -0.094 S 
BRANCH  28  33
ATOM     29  C   UNL     1       3.799  -1.488   0.129  0.00  0.00    +0.066 C 
ATOM     30  C   UNL     1       2.427  -0.866   0.095  0.00  0.00    +0.047 A 
ATOM     31  C   UNL     1       2.277   0.479   0.043  0.00  0.00    +0.070 A 
ATOM     32  S   UNL     1       0.496   0.615   0.023  0.00  0.00    -0.069 S 
ATOM     33  C   UNL     1       0.138  -1.083   0.082  0.00  0.00    +0.135 A 
ATOM     34  N   UNL     1       1.344  -1.620   0.113  0.00  0.00    -0.238 NA
ENDBRANCH  28  33
ENDBRANCH  27  28
ENDBRANCH   1  27
TORSDOF 5
