REMARK  Name = ZINC59678632
REMARK  6 active torsions:
REMARK  status: ('A' for Active; 'I' for Inactive)
REMARK    1  A    between atoms: C_1  and  C_2
REMARK    2  A    between atoms: C_7  and  C_8
REMARK    3  A    between atoms: C_10  and  C_13
REMARK    4  A    between atoms: C_13  and  C_27
REMARK    5  A    between atoms: C_14  and  C_15
REMARK    6  A    between atoms: N_19  and  C_20
REMARK                            x       y       z     vdW  Elec       q    Type
REMARK                         _______ _______ _______ _____ _____    ______ ____
ROOT
ATOM      1  C   UNL     1      -0.628  -5.580  -2.321  0.00  0.00    +0.096 C 
ATOM      2  C   UNL     1      -0.385  -6.732  -1.598  0.00  0.00    +0.048 C 
ENDROOT
BRANCH   1  12
ATOM      3  C   UNL     1      -2.237   1.287  -0.023  0.00  0.00    +0.044 C 
ATOM      4  C   UNL     1      -1.905  -0.183  -0.026  0.00  0.00    -0.045 A 
ATOM      5  C   UNL     1      -1.727  -0.843  -1.225  0.00  0.00    +0.031 A 
ATOM      6  C   UNL     1      -1.421  -2.195  -1.230  0.00  0.00    +0.067 A 
ATOM      7  C   UNL     1      -1.292  -2.890  -0.014  0.00  0.00    +0.090 A 
ATOM      8  C   UNL     1      -1.476  -2.206   1.191  0.00  0.00    +0.033 A 
ATOM      9  C   UNL     1      -1.774  -0.862   1.176  0.00  0.00    -0.045 A 
ATOM     10  C   UNL     1      -1.965  -0.124   2.476  0.00  0.00    +0.044 C 
ATOM     11  N   UNL     1      -0.994  -4.177  -0.317  0.00  0.00    -0.227 NA
ATOM     12  C   UNL     1      -0.930  -4.321  -1.621  0.00  0.00    +0.150 A 
ATOM     13  N   UNL     1      -1.187  -3.121  -2.231  0.00  0.00    -0.337 N 
ATOM     14  H   UNL     1      -1.203  -2.952  -3.186  0.00  0.00    +0.167 HD
ENDBRANCH   1  12
BRANCH   2  15
ATOM     15  C   UNL     1      -0.221  -7.963  -2.266  0.00  0.00    +0.048 A 
ATOM     16  C   UNL     1      -0.154  -8.150  -3.638  0.00  0.00    +0.027 A 
ATOM     17  C   UNL     1       0.011  -9.519  -3.859  0.00  0.00    +0.020 A 
ATOM     18  C   UNL     1       0.043 -10.137  -2.652  0.00  0.00    +0.092 A 
ATOM     19  N   UNL     1      -0.090  -9.203  -1.674  0.00  0.00    -0.316 N 
BRANCH  19  20
ATOM     20  C   UNL     1      -0.099  -9.457  -0.296  0.00  0.00    +0.047 A 
ATOM     21  C   UNL     1       0.801  -8.805   0.537  0.00  0.00    +0.027 A 
ATOM     22  C   UNL     1       0.791  -9.057   1.895  0.00  0.00    +0.022 A 
ATOM     23  C   UNL     1      -0.115  -9.958   2.426  0.00  0.00    +0.041 A 
ATOM     24  C   UNL     1      -1.013 -10.609   1.598  0.00  0.00    +0.022 A 
ATOM     25  C   UNL     1      -1.011 -10.356   0.240  0.00  0.00    +0.027 A 
ATOM     26 CL   UNL     1      -0.125 -10.274   4.133  0.00  0.00    -0.084 Cl
ENDBRANCH  19  20
ENDBRANCH   2  15
BRANCH   1  27
ATOM     27  C   UNL     1      -0.586  -5.612  -3.752  0.00  0.00    +0.103 C 
ATOM     28  N   UNL     1      -0.553  -5.636  -4.888  0.00  0.00    -0.191 NA
ENDBRANCH   1  27
TORSDOF 4
