REMARK  Name = ZINC14466000
REMARK  2 active torsions:
REMARK  status: ('A' for Active; 'I' for Inactive)
REMARK    1  A    between atoms: C_5  and  C_7
REMARK    2  A    between atoms: C_17  and  N_24
REMARK                            x       y       z     vdW  Elec       q    Type
REMARK                         _______ _______ _______ _____ _____    ______ ____
ROOT
ATOM      1  C   UNL     1       2.452   3.936  -0.001  0.00  0.00    +0.106 C 
ATOM      2  C   UNL     1       2.812   4.313  -1.440  0.00  0.00    +0.029 C 
ATOM      3  C   UNL     1       1.575   5.010  -2.073  0.00  0.00    +0.033 C 
ATOM      4  C   UNL     1       0.702   3.853  -2.515  0.00  0.00    -0.030 C 
ATOM      5  C   UNL     1       1.414   2.761  -2.642  0.00  0.00    -0.023 C 
ATOM      6  C   UNL     1       2.882   3.028  -2.292  0.00  0.00    +0.051 C 
ATOM      7  C   UNL     1       3.479   1.887  -1.521  0.00  0.00    +0.014 A 
ATOM      8  C   UNL     1       3.745   0.707  -2.205  0.00  0.00    +0.132 A 
ATOM      9  C   UNL     1       4.291  -0.377  -1.552  0.00  0.00    +0.036 A 
ATOM     10  C   UNL     1       4.579  -0.299  -0.201  0.00  0.00    +0.042 A 
ATOM     11  C   UNL     1       4.320   0.868   0.488  0.00  0.00    +0.145 A 
ATOM     12  C   UNL     1       3.768   1.968  -0.171  0.00  0.00    +0.069 A 
ATOM     13  N   UNL     1       3.517   3.107   0.566  0.00  0.00    -0.334 N 
ATOM     14  F   UNL     1       4.601   0.946   1.807  0.00  0.00    -0.204 F 
ATOM     15  H   UNL     1       4.369   3.637   0.673  0.00  0.00    +0.147 HD
ENDROOT
BRANCH   1  20
ATOM     16  C   UNL     1      -0.020   1.087  -0.158  0.00  0.00    +0.000 A 
ATOM     17  C   UNL     1      -1.220   1.751   0.017  0.00  0.00    +0.001 A 
ATOM     18  C   UNL     1      -1.231   3.122   0.197  0.00  0.00    +0.020 A 
ATOM     19  C   UNL     1      -0.043   3.830   0.189  0.00  0.00    +0.046 A 
ATOM     20  C   UNL     1       1.157   3.165   0.008  0.00  0.00    -0.009 A 
ATOM     21  C   UNL     1       1.167   1.794  -0.165  0.00  0.00    +0.007 A 
ATOM     22 CL   UNL     1      -0.057   5.552   0.406  0.00  0.00    -0.083 Cl
ENDBRANCH   1  20
BRANCH   8  23
ATOM     23  N   UNL     1       3.440   0.614  -3.650  0.00  0.00    +0.057 N 
ATOM     24  O   UNL     1       3.671  -0.417  -4.256  0.00  0.00    -0.126 OA
ATOM     25  O   UNL     1       2.958   1.568  -4.234  0.00  0.00    -0.126 OA
ENDBRANCH   8  23
TORSDOF 2
