REMARK  Name = ZINC39966950
REMARK  10 active torsions:
REMARK  status: ('A' for Active; 'I' for Inactive)
REMARK    1  A    between atoms: C_1  and  O_2
REMARK    2  A    between atoms: O_2  and  C_3
REMARK    3  A    between atoms: C_3  and  C_5
REMARK    4  A    between atoms: C_8  and  N_11
REMARK    5  A    between atoms: C_12  and  C_14
REMARK    6  A    between atoms: C_14  and  S_15
REMARK    7  A    between atoms: S_15  and  C_16
REMARK    8  A    between atoms: C_19  and  C_28
REMARK    9  A    between atoms: N_20  and  C_21
REMARK   10  A    between atoms: C_21  and  C_22
REMARK                            x       y       z     vdW  Elec       q    Type
REMARK                         _______ _______ _______ _____ _____    ______ ____
ROOT
ATOM      1  C   UNL     1      -4.218 -10.691   0.435  0.00  0.00    +0.192 A 
ATOM      2  N   UNL     1      -3.150 -11.441   0.578  0.00  0.00    -0.122 NA
ATOM      3  N   UNL     1      -3.483 -12.681   0.625  0.00  0.00    -0.128 NA
ATOM      4  C   UNL     1      -4.785 -12.800   0.513  0.00  0.00    +0.166 A 
ATOM      5  N   UNL     1      -5.298 -11.529   0.394  0.00  0.00    -0.300 N 
ENDROOT
BRANCH   4   6
ATOM      6  C   UNL     1      -5.556 -14.062   0.521  0.00  0.00    +0.030 A 
ATOM      7  C   UNL     1      -6.672 -14.178   1.297  0.00  0.00    +0.057 A 
ATOM      8  S   UNL     1      -7.196 -15.847   0.937  0.00  0.00    -0.101 S 
ATOM      9  C   UNL     1      -5.912 -16.265  -0.214  0.00  0.00    -0.006 A 
ATOM     10  C   UNL     1      -5.146 -15.148  -0.278  0.00  0.00    -0.026 A 
ATOM     11  C   UNL     1      -3.895 -15.072  -1.150  0.00  0.00    +0.036 C 
ATOM     12  C   UNL     1      -4.022 -16.035  -2.325  0.00  0.00    +0.005 C 
ATOM     13  C   UNL     1      -3.470 -17.411  -1.958  0.00  0.00    +0.001 C 
ATOM     14  C   UNL     1      -4.283 -18.015  -0.817  0.00  0.00    +0.005 C 
ATOM     15  C   UNL     1      -5.732 -17.551  -0.953  0.00  0.00    +0.043 C 
ENDBRANCH   4   6
BRANCH   1  16
ATOM     16  S   UNL     1      -4.254  -8.933   0.323  0.00  0.00    -0.077 S 
BRANCH  16  17
ATOM     17  C   UNL     1      -2.509  -8.450   0.442  0.00  0.00    +0.173 C 
BRANCH  17  19
ATOM     18  N   UNL     1      -1.187  -6.360   0.426  0.00  0.00    -0.285 N 
ATOM     19  C   UNL     1      -2.397  -6.950   0.359  0.00  0.00    +0.227 C 
ATOM     20  O   UNL     1      -3.395  -6.273   0.232  0.00  0.00    -0.275 OA
ATOM     21  H   UNL     1      -0.384  -6.903   0.455  0.00  0.00    +0.155 HD
BRANCH  18  25
ATOM     22  C   UNL     1      -0.897  -2.205   0.510  0.00  0.00    +0.059 A 
ATOM     23  C   UNL     1      -1.974  -2.845   1.130  0.00  0.00    +0.017 A 
ATOM     24  C   UNL     1      -2.067  -4.218   1.100  0.00  0.00    +0.024 A 
ATOM     25  C   UNL     1      -1.090  -4.969   0.454  0.00  0.00    +0.033 A 
ATOM     26  C   UNL     1      -0.016  -4.336  -0.164  0.00  0.00    +0.024 A 
ATOM     27  C   UNL     1       0.080  -2.963  -0.143  0.00  0.00    +0.017 A 
BRANCH  22  28
ATOM     28  C   UNL     1      -0.794  -0.735   0.539  0.00  0.00    +0.339 C 
ATOM     29  O   UNL     1       0.140  -0.180  -0.004  0.00  0.00    -0.245 OA
BRANCH  28  31
ATOM     30  C   UNL     1      -1.574   1.414   1.158  0.00  0.00    +0.280 C 
ATOM     31  O   UNL     1      -1.737  -0.006   1.169  0.00  0.00    -0.464 OA
ENDBRANCH  28  31
ENDBRANCH  22  28
ENDBRANCH  18  25
ENDBRANCH  17  19
ENDBRANCH  16  17
ENDBRANCH   1  16
BRANCH   5  32
ATOM     32  C   UNL     1      -6.706 -11.152   0.251  0.00  0.00    +0.157 C 
BRANCH  32  33
ATOM     33  C   UNL     1      -7.066 -11.080  -1.235  0.00  0.00    +0.138 C 
ATOM     34  C   UNL     1      -8.574 -10.771  -1.408  0.00  0.00    +0.035 C 
ATOM     35  C   UNL     1      -8.582 -10.122  -2.819  0.00  0.00    +0.031 C 
ATOM     36  C   UNL     1      -7.231  -9.375  -2.843  0.00  0.00    +0.160 C 
ATOM     37  O   UNL     1      -6.382  -9.983  -1.860  0.00  0.00    -0.375 OA
ENDBRANCH  32  33
ENDBRANCH   5  32
TORSDOF 9
