REMARK  Name = ZINC64652827
REMARK  8 active torsions:
REMARK  status: ('A' for Active; 'I' for Inactive)
REMARK    1  A    between atoms: C_1  and  C_2
REMARK    2  A    between atoms: C_2  and  C_3
REMARK    3  A    between atoms: C_2  and  C_4
REMARK    4  A    between atoms: C_9  and  C_13
REMARK    5  A    between atoms: C_13  and  C_14
REMARK    6  A    between atoms: N_16  and  C_17
REMARK    7  A    between atoms: C_17  and  C_18
REMARK    8  A    between atoms: C_18  and  C_19
REMARK                            x       y       z     vdW  Elec       q    Type
REMARK                         _______ _______ _______ _____ _____    ______ ____
ROOT
ATOM      1  C   UNL     1      -5.440  -3.551  -1.544  0.00  0.00    +0.215 C 
ATOM      2  O   UNL     1      -4.914  -2.724  -2.258  0.00  0.00    -0.276 OA
ATOM      3  N   UNL     1      -5.763  -4.761  -2.041  0.00  0.00    -0.315 N 
ATOM      4  H   UNL     1      -6.185  -5.423  -1.470  0.00  0.00    +0.149 HD
ENDROOT
BRANCH   1   5
ATOM      5  C   UNL     1      -5.734  -3.225  -0.102  0.00  0.00    +0.119 C 
BRANCH   5  10
ATOM      6  C   UNL     1      -5.437  -0.319   4.074  0.00  0.00    +0.013 C 
ATOM      7  N   UNL     1      -6.074   0.317   3.036  0.00  0.00    -0.320 N 
ATOM      8  C   UNL     1      -6.620  -0.520   1.959  0.00  0.00    +0.222 C 
ATOM      9  N   UNL     1      -5.562  -1.500   1.590  0.00  0.00    -0.266 N 
ATOM     10  C   UNL     1      -5.412  -1.753   0.164  0.00  0.00    +0.097 C 
ATOM     11  C   UNL     1      -6.313  -0.888  -0.749  0.00  0.00    +0.095 C 
ATOM     12  S   UNL     1      -6.753   0.492   0.424  0.00  0.00    -0.117 S 
ATOM     13  C   UNL     1      -4.782  -2.061   2.556  0.00  0.00    +0.243 C 
ATOM     14  O   UNL     1      -4.089  -3.032   2.313  0.00  0.00    -0.270 OA
ATOM     15  C   UNL     1      -4.793  -1.484   3.849  0.00  0.00    +0.086 C 
ATOM     16  H   UNL     1      -6.160   1.282   3.015  0.00  0.00    +0.148 HD
BRANCH   6  18
ATOM     17  C   UNL     1      -4.803   1.670   5.412  0.00  0.00    +0.013 C 
ATOM     18  C   UNL     1      -5.450   0.285   5.455  0.00  0.00    +0.027 C 
ATOM     19  C   UNL     1      -6.896   0.412   5.941  0.00  0.00    +0.013 C 
ENDBRANCH   6  18
ENDBRANCH   5  10
ENDBRANCH   1   5
BRANCH   3  20
ATOM     20  C   UNL     1      -5.479  -5.078  -3.443  0.00  0.00    +0.108 C 
BRANCH  20  21
ATOM     21  C   UNL     1      -5.941  -6.504  -3.748  0.00  0.00    +0.052 C 
BRANCH  21  22
ATOM     22  C   UNL     1      -5.648  -6.830  -5.190  0.00  0.00    -0.040 C 
ATOM     23  C   UNL     1      -4.559  -7.470  -5.674  0.00  0.00    -0.001 A 
ATOM     24  C   UNL     1      -3.368  -8.033  -5.028  0.00  0.00    +0.010 A 
ATOM     25  C   UNL     1      -2.425  -8.628  -5.794  0.00  0.00    +0.001 A 
ATOM     26  C   UNL     1      -2.557  -8.720  -7.186  0.00  0.00    +0.002 A 
ATOM     27  C   UNL     1      -3.623  -8.226  -7.852  0.00  0.00    +0.026 A 
ATOM     28  C   UNL     1      -4.675  -7.580  -7.146  0.00  0.00    +0.043 A 
ATOM     29  N   UNL     1      -5.792  -7.029  -7.556  0.00  0.00    -0.380 N 
ATOM     30  C   UNL     1      -6.514  -6.512  -6.388  0.00  0.00    +0.144 C 
ATOM     31  H   UNL     1      -6.092  -6.976  -8.476  0.00  0.00    +0.160 HD
ENDBRANCH  21  22
ENDBRANCH  20  21
ENDBRANCH   3  20
TORSDOF 6
