REMARK  Name = ZINC51148740
REMARK  9 active torsions:
REMARK  status: ('A' for Active; 'I' for Inactive)
REMARK    1  A    between atoms: C_1  and  C_2
REMARK    2  A    between atoms: C_2  and  C_3
REMARK    3  A    between atoms: C_2  and  C_4
REMARK    4  A    between atoms: C_2  and  C_5
REMARK    5  A    between atoms: C_8  and  O_11
REMARK    6  A    between atoms: O_11  and  C_12
REMARK    7  A    between atoms: C_12  and  C_13
REMARK    8  A    between atoms: C_14  and  N_18
REMARK    9  A    between atoms: N_18  and  N_19
REMARK                            x       y       z     vdW  Elec       q    Type
REMARK                         _______ _______ _______ _____ _____    ______ ____
ROOT
ATOM      1  O   UNL     1       2.639  -1.822  -4.631  0.00  0.00    -0.486 OA
ENDROOT
BRANCH   1   5
ATOM      2  C   UNL     1       0.707  -0.490  -1.238  0.00  0.00    -0.042 A 
ATOM      3  C   UNL     1       0.035  -1.284  -2.148  0.00  0.00    +0.008 A 
ATOM      4  C   UNL     1       0.679  -1.732  -3.285  0.00  0.00    +0.046 A 
ATOM      5  C   UNL     1       2.002  -1.383  -3.514  0.00  0.00    +0.121 A 
ATOM      6  C   UNL     1       2.675  -0.585  -2.599  0.00  0.00    +0.046 A 
ATOM      7  C   UNL     1       2.024  -0.136  -1.466  0.00  0.00    +0.008 A 
BRANCH   2   9
ATOM      8  C   UNL     1      -0.019   1.526   0.010  0.00  0.00    +0.015 C 
ATOM      9  C   UNL     1       0.002  -0.004   0.002  0.00  0.00    -0.013 C 
ATOM     10  C   UNL     1       0.742  -0.511   1.242  0.00  0.00    +0.015 C 
ATOM     11  C   UNL     1      -1.433  -0.534   0.013  0.00  0.00    +0.015 C 
ENDBRANCH   2   9
ENDBRANCH   1   5
BRANCH   1  12
ATOM     12  C   UNL     1       4.000  -1.423  -4.801  0.00  0.00    +0.288 C 
BRANCH  12  13
ATOM     13  C   UNL     1       4.536  -2.000  -6.087  0.00  0.00    +0.131 A 
ATOM     14  C   UNL     1       5.136  -3.226  -6.131  0.00  0.00    +0.126 A 
ATOM     15  S   UNL     1       5.529  -3.363  -7.760  0.00  0.00    +0.053 S 
ATOM     16  N   UNL     1       4.927  -1.894  -8.296  0.00  0.00    -0.108 NA
ATOM     17  N   UNL     1       4.447  -1.354  -7.227  0.00  0.00    -0.141 NA
BRANCH  14  18
ATOM     18  N   UNL     1       5.364  -4.129  -5.096  0.00  0.00    -0.274 N 
ATOM     19  H   UNL     1       5.080  -3.914  -4.193  0.00  0.00    +0.167 HD
BRANCH  18  20
ATOM     20  N   UNL     1       5.988  -5.317  -5.350  0.00  0.00    -0.256 NA
ATOM     21  H   UNL     1       6.885  -5.168  -5.788  0.00  0.00    +0.140 HD
ATOM     22  H   UNL     1       6.083  -5.864  -4.508  0.00  0.00    +0.140 HD
ENDBRANCH  18  20
ENDBRANCH  14  18
ENDBRANCH  12  13
ENDBRANCH   1  12
TORSDOF 6
