REMARK  Name = ZINC01325171
REMARK  9 active torsions:
REMARK  status: ('A' for Active; 'I' for Inactive)
REMARK    1  A    between atoms: C_1  and  C_2
REMARK    2  A    between atoms: C_2  and  C_3
REMARK    3  A    between atoms: C_3  and  C_5
REMARK    4  A    between atoms: C_3  and  N_15
REMARK    5  A    between atoms: N_9  and  C_10
REMARK    6  A    between atoms: N_15  and  C_16
REMARK    7  A    between atoms: N_15  and  C_23
REMARK    8  A    between atoms: C_16  and  C_17
REMARK    9  A    between atoms: C_23  and  C_24
REMARK                            x       y       z     vdW  Elec       q    Type
REMARK                         _______ _______ _______ _____ _____    ______ ____
ROOT
ATOM      1  N   UNL     1      -0.334  -0.345  -2.780  0.00  0.00    -0.284 NA
ENDROOT
BRANCH   1   2
ATOM      2  C   UNL     1       0.465  -1.127  -1.827  0.00  0.00    +0.127 C 
BRANCH   2   3
ATOM      3  C   UNL     1       0.350  -2.593  -2.159  0.00  0.00    +0.169 A 
ATOM      4  N   UNL     1      -0.748  -3.244  -2.457  0.00  0.00    -0.112 NA
ATOM      5  N   UNL     1      -0.434  -4.474  -2.677  0.00  0.00    -0.023 NA
ATOM      6  N   UNL     1       0.835  -4.624  -2.527  0.00  0.00    -0.044 NA
ATOM      7  N   UNL     1       1.355  -3.486  -2.213  0.00  0.00    -0.225 N 
BRANCH   7   8
ATOM      8  C   UNL     1       2.772  -3.217  -1.958  0.00  0.00    +0.111 C 
ATOM      9  C   UNL     1       3.615  -3.620  -3.186  0.00  0.00    +0.027 C 
ATOM     10  C   UNL     1       4.915  -4.205  -2.579  0.00  0.00    +0.002 C 
ATOM     11  C   UNL     1       4.397  -4.972  -1.336  0.00  0.00    +0.002 C 
ATOM     12  C   UNL     1       3.269  -4.077  -0.782  0.00  0.00    +0.027 C 
ENDBRANCH   7   8
ENDBRANCH   2   3
BRANCH   2  14
ATOM     13  C   UNL     1       0.120   0.594  -0.049  0.00  0.00    +0.006 C 
ATOM     14  C   UNL     1      -0.052  -0.883  -0.408  0.00  0.00    +0.023 C 
ENDBRANCH   2  14
ENDBRANCH   1   2
BRANCH   1  15
ATOM     15  C   UNL     1      -1.758  -0.369  -2.418  0.00  0.00    +0.122 C 
BRANCH  15  16
ATOM     16  C   UNL     1      -2.584   0.070  -3.599  0.00  0.00    -0.015 A 
ATOM     17  C   UNL     1      -3.003   1.387  -3.712  0.00  0.00    +0.008 A 
ATOM     18  C   UNL     1      -3.762   1.746  -4.816  0.00  0.00    +0.020 A 
ATOM     19  C   UNL     1      -4.072   0.785  -5.760  0.00  0.00    +0.111 A 
ATOM     20  N   UNL     1      -3.656  -0.458  -5.620  0.00  0.00    -0.263 NA
ATOM     21  C   UNL     1      -2.928  -0.833  -4.587  0.00  0.00    +0.115 A 
ENDBRANCH  15  16
ENDBRANCH   1  15
BRANCH   1  22
ATOM     22  C   UNL     1       0.162   1.035  -2.875  0.00  0.00    +0.126 C 
BRANCH  22  23
ATOM     23  C   UNL     1       1.407   1.064  -3.723  0.00  0.00    +0.031 A 
ATOM     24  C   UNL     1       1.312   1.303  -5.056  0.00  0.00    +0.020 A 
ATOM     25  C   UNL     1       2.538   1.325  -5.851  0.00  0.00    +0.003 A 
ATOM     26  C   UNL     1       2.501   1.565  -7.230  0.00  0.00    +0.059 A 
ATOM     27  C   UNL     1       3.674   1.582  -7.955  0.00  0.00    +0.163 A 
ATOM     28  C   UNL     1       4.898   1.361  -7.317  0.00  0.00    +0.164 A 
ATOM     29  C   UNL     1       4.945   1.121  -5.955  0.00  0.00    +0.075 A 
ATOM     30  C   UNL     1       3.772   1.100  -5.211  0.00  0.00    +0.053 A 
ATOM     31  N   UNL     1       3.800   0.862  -3.851  0.00  0.00    -0.322 N 
ATOM     32  H   UNL     1       4.650   0.707  -3.411  0.00  0.00    +0.169 HD
ATOM     33  C   UNL     1       2.667   0.849  -3.128  0.00  0.00    +0.254 A 
ATOM     34  O   UNL     1       2.730   0.640  -1.929  0.00  0.00    -0.268 OA
ATOM     35  O   UNL     1       6.061   1.384  -8.024  0.00  0.00    -0.485 OA
ATOM     36  C   UNL     1       5.954   1.256  -9.445  0.00  0.00    +0.270 C 
ATOM     37  C   UNL     1       4.845   2.198  -9.931  0.00  0.00    +0.270 C 
ATOM     38  O   UNL     1       3.620   1.814  -9.296  0.00  0.00    -0.485 OA
ENDBRANCH  22  23
ENDBRANCH   1  22
TORSDOF 8
