REMARK  Name = ZINC21518660
REMARK  3 active torsions:
REMARK  status: ('A' for Active; 'I' for Inactive)
REMARK    1  A    between atoms: C_2  and  N_21
REMARK    2  A    between atoms: C_3  and  O_11
REMARK    3  A    between atoms: O_11  and  C_12
REMARK                            x       y       z     vdW  Elec       q    Type
REMARK                         _______ _______ _______ _____ _____    ______ ____
ROOT
ATOM      1  C   UNL     1      -5.899   2.749   0.081  0.00  0.00    +0.075 A 
ATOM      2  C   UNL     1      -4.775   1.938   0.075  0.00  0.00    +0.071 A 
ATOM      3  C   UNL     1      -3.506   2.510   0.026  0.00  0.00    +0.153 A 
ATOM      4  C   UNL     1      -3.371   3.887  -0.027  0.00  0.00    +0.097 A 
ATOM      5  C   UNL     1      -4.496   4.698  -0.025  0.00  0.00    +0.166 A 
ATOM      6  C   UNL     1      -5.762   4.128   0.028  0.00  0.00    +0.164 A 
ATOM      7  O   UNL     1      -6.878   4.910   0.025  0.00  0.00    -0.485 OA
ATOM      8  C   UNL     1      -6.697   6.292   0.349  0.00  0.00    +0.270 C 
ATOM      9  C   UNL     1      -5.493   6.817  -0.446  0.00  0.00    +0.270 C 
ATOM     10  O   UNL     1      -4.342   6.051  -0.073  0.00  0.00    -0.485 OA
ENDROOT
BRANCH   2  11
ATOM     11  N   UNL     1      -4.915   0.544   0.124  0.00  0.00    -0.355 N 
ATOM     12  H   UNL     1      -4.023  -0.099   0.119  0.00  0.00    +0.142 HD
ATOM     13  H   UNL     1      -5.918   0.093   0.167  0.00  0.00    +0.142 HD
ENDBRANCH   2  11
BRANCH   3  14
ATOM     14  O   UNL     1      -2.401   1.716   0.023  0.00  0.00    -0.453 OA
BRANCH  14  15
ATOM     15  C   UNL     1      -1.968   1.230  -1.170  0.00  0.00    +0.148 A 
ATOM     16  C   UNL     1      -2.579   1.633  -2.348  0.00  0.00    +0.069 A 
ATOM     17  C   UNL     1      -2.140   1.133  -3.559  0.00  0.00    +0.063 A 
ATOM     18  C   UNL     1      -1.087   0.234  -3.598  0.00  0.00    +0.061 A 
ATOM     19  C   UNL     1      -0.473  -0.166  -2.425  0.00  0.00    +0.045 A 
ATOM     20  C   UNL     1      -0.910   0.332  -1.211  0.00  0.00    +0.085 A 
ATOM     21 CL   UNL     1      -0.139  -0.171   0.261  0.00  0.00    -0.080 Cl
ATOM     22 CL   UNL     1      -0.538  -0.393  -5.121  0.00  0.00    -0.082 Cl
ATOM     23 CL   UNL     1      -2.909   1.632  -5.034  0.00  0.00    -0.082 Cl
ENDBRANCH  14  15
ENDBRANCH   3  14
TORSDOF 3
