REMARK  Name = ZINC09395728
REMARK  8 active torsions:
REMARK  status: ('A' for Active; 'I' for Inactive)
REMARK    1  A    between atoms: C_1  and  C_2
REMARK    2  A    between atoms: C_2  and  C_3
REMARK    3  A    between atoms: C_3  and  N_4
REMARK    4  A    between atoms: C_17  and  S_18
REMARK    5  A    between atoms: S_18  and  C_19
REMARK    6  A    between atoms: C_19  and  C_20
REMARK    7  A    between atoms: N_26  and  C_27
REMARK    8  A    between atoms: C_32  and  C_33
REMARK                            x       y       z     vdW  Elec       q    Type
REMARK                         _______ _______ _______ _____ _____    ______ ____
ROOT
ATOM      1  C   UNL     1       4.313  -1.134  -0.044  0.00  0.00    +0.153 C 
ENDROOT
BRANCH   1   2
ATOM      2  C   UNL     1       5.816  -1.242  -0.059  0.00  0.00    +0.146 A 
ATOM      3  N   UNL     1       6.462  -1.283  -1.211  0.00  0.00    -0.199 NA
ATOM      4  C   UNL     1       7.790  -1.373  -1.229  0.00  0.00    +0.217 A 
ATOM      5  N   UNL     1       8.465  -1.432  -0.086  0.00  0.00    -0.181 NA
ATOM      6  C   UNL     1       7.811  -1.396   1.070  0.00  0.00    +0.224 A 
ATOM      7  N   UNL     1       6.484  -1.300   1.079  0.00  0.00    -0.198 NA
ATOM      8  N   UNL     1       8.509  -1.456   2.261  0.00  0.00    -0.283 N 
ATOM      9  N   UNL     1       8.464  -1.410  -2.432  0.00  0.00    -0.327 N 
ATOM     10  H   UNL     1       8.041  -1.344   3.103  0.00  0.00    +0.155 HD
ATOM     11  H   UNL     1       9.431  -1.480  -2.444  0.00  0.00    +0.145 HD
ATOM     12  H   UNL     1       7.970  -1.367  -3.266  0.00  0.00    +0.145 HD
BRANCH   8  13
ATOM     13  C   UNL     1       9.889  -1.680   2.252  0.00  0.00    +0.036 A 
ATOM     14  C   UNL     1      10.482  -2.334   1.180  0.00  0.00    +0.023 A 
ATOM     15  C   UNL     1      11.846  -2.549   1.171  0.00  0.00    +0.002 A 
ATOM     16  C   UNL     1      12.621  -2.122   2.235  0.00  0.00    +0.000 A 
ATOM     17  C   UNL     1      12.033  -1.475   3.306  0.00  0.00    +0.005 A 
ATOM     18  C   UNL     1      10.670  -1.253   3.318  0.00  0.00    -0.029 A 
ATOM     19  C   UNL     1      10.031  -0.548   4.487  0.00  0.00    +0.045 C 
ENDBRANCH   8  13
ENDBRANCH   1   2
BRANCH   1  20
ATOM     20  S   UNL     1       3.832   0.615  -0.022  0.00  0.00    -0.078 S 
BRANCH  20  34
ATOM     21  N   UNL     1      -1.125   2.085   0.035  0.00  0.00    -0.277 N 
ATOM     22  C   UNL     1      -0.933   3.420   0.053  0.00  0.00    +0.263 A 
ATOM     23  O   UNL     1      -1.882   4.181   0.070  0.00  0.00    -0.267 OA
ATOM     24  C   UNL     1       0.446   3.940   0.045  0.00  0.00    +0.064 A 
ATOM     25  C   UNL     1       0.703   5.310   0.057  0.00  0.00    +0.015 A 
ATOM     26  C   UNL     1       2.007   5.759   0.051  0.00  0.00    +0.001 A 
ATOM     27  C   UNL     1       3.058   4.856   0.031  0.00  0.00    +0.002 A 
ATOM     28  C   UNL     1       2.817   3.497   0.018  0.00  0.00    +0.027 A 
ATOM     29  C   UNL     1       1.512   3.028   0.025  0.00  0.00    +0.064 A 
ATOM     30  N   UNL     1       1.240   1.661   0.013  0.00  0.00    -0.256 N 
ATOM     31  C   UNL     1      -0.051   1.209   0.021  0.00  0.00    +0.240 A 
ATOM     32  N   UNL     1      -0.016  -0.105   0.007  0.00  0.00    -0.109 NA
ATOM     33  N   UNL     1       1.326  -0.505  -0.010  0.00  0.00    -0.120 NA
ATOM     34  C   UNL     1       2.071   0.574  -0.006  0.00  0.00    +0.198 A 
BRANCH  21  35
ATOM     35  C   UNL     1      -2.490   1.553   0.035  0.00  0.00    +0.128 C 
BRANCH  35  37
ATOM     36  C   UNL     1      -4.385   0.796   1.477  0.00  0.00    +0.005 C 
ATOM     37  C   UNL     1      -2.959   1.352   1.477  0.00  0.00    +0.018 C 
ENDBRANCH  35  37
ENDBRANCH  21  35
ENDBRANCH  20  34
ENDBRANCH   1  20
TORSDOF 6
