REMARK  Name = ZINC13409740
REMARK  3 active torsions:
REMARK  status: ('A' for Active; 'I' for Inactive)
REMARK    1  A    between atoms: C_1  and  C_2
REMARK    2  A    between atoms: C_4  and  C_21
REMARK    3  A    between atoms: C_6  and  N_18
REMARK                            x       y       z     vdW  Elec       q    Type
REMARK                         _______ _______ _______ _____ _____    ______ ____
ROOT
ATOM      1  C   UNL     1       0.201   1.251   2.044  0.00  0.00    +0.063 C 
ATOM      2  C   UNL     1      -0.034   1.422   0.542  0.00  0.00    +0.132 C 
ATOM      3  C   UNL     1       1.042   2.336  -0.033  0.00  0.00    +0.065 C 
ATOM      4  C   UNL     1       0.733   2.656  -1.497  0.00  0.00    +0.055 C 
ATOM      5  C   UNL     1      -0.679   3.247  -1.593  0.00  0.00    +0.210 C 
ATOM      6  C   UNL     1      -1.667   2.220  -1.017  0.00  0.00    +0.182 C 
ATOM      7  O   UNL     1      -1.330   1.998   0.356  0.00  0.00    -0.346 OA
ATOM      8  C   UNL     1      -1.506   0.933  -1.789  0.00  0.00    +0.004 A 
ATOM      9  C   UNL     1      -2.191   0.751  -2.974  0.00  0.00    +0.008 A 
ATOM     10  C   UNL     1      -2.039  -0.423  -3.688  0.00  0.00    +0.000 A 
ATOM     11  C   UNL     1      -1.201  -1.419  -3.220  0.00  0.00    +0.002 A 
ATOM     12  C   UNL     1      -0.515  -1.245  -2.033  0.00  0.00    +0.023 A 
ATOM     13  C   UNL     1      -0.671  -0.068  -1.313  0.00  0.00    +0.035 A 
ATOM     14  N   UNL     1       0.001   0.107  -0.098  0.00  0.00    -0.316 N 
ATOM     15  H   UNL     1       0.481  -0.630   0.312  0.00  0.00    +0.149 HD
ENDROOT
BRANCH   4  16
ATOM     16  C   UNL     1       0.809   1.394  -2.317  0.00  0.00    -0.042 A 
ATOM     17  C   UNL     1       1.561   0.324  -1.869  0.00  0.00    +0.004 A 
ATOM     18  C   UNL     1       1.627  -0.836  -2.618  0.00  0.00    +0.000 A 
ATOM     19  C   UNL     1       0.950  -0.922  -3.820  0.00  0.00    +0.000 A 
ATOM     20  C   UNL     1       0.203   0.149  -4.270  0.00  0.00    +0.000 A 
ATOM     21  C   UNL     1       0.132   1.308  -3.519  0.00  0.00    +0.004 A 
ENDBRANCH   4  16
BRANCH   5  22
ATOM     22  N   UNL     1      -1.008   3.517  -2.995  0.00  0.00    +0.029 N 
ATOM     23  O   UNL     1      -2.134   3.305  -3.408  0.00  0.00    -0.131 OA
ATOM     24  O   UNL     1      -0.156   3.953  -3.748  0.00  0.00    -0.131 OA
ENDBRANCH   5  22
TORSDOF 2
