REMARK  Name = ZINC05187428
REMARK  6 active torsions:
REMARK  status: ('A' for Active; 'I' for Inactive)
REMARK    1  A    between atoms: C_1  and  C_2
REMARK    2  A    between atoms: C_5  and  N_9
REMARK    3  A    between atoms: C_7  and  C_8
REMARK    4  A    between atoms: C_11  and  N_16
REMARK    5  A    between atoms: C_21  and  C_28
REMARK    6  A    between atoms: C_24  and  C_27
REMARK                            x       y       z     vdW  Elec       q    Type
REMARK                         _______ _______ _______ _____ _____    ______ ____
ROOT
ATOM      1  N   UNL     1       0.189  -0.137   0.175  0.00  0.00    -0.270 N 
ATOM      2  C   UNL     1      -0.004   1.317   0.201  0.00  0.00    +0.136 C 
ATOM      3  C   UNL     1       1.418   1.922   0.179  0.00  0.00    +0.101 C 
ATOM      4  C   UNL     1       2.228   0.797  -0.506  0.00  0.00    +0.120 C 
ATOM      5  C   UNL     1       1.432  -0.458  -0.224  0.00  0.00    +0.222 C 
ATOM      6  O   UNL     1       1.855  -1.589  -0.341  0.00  0.00    -0.275 OA
ENDROOT
BRANCH   3   7
ATOM      7  N   UNL     1       1.452   3.152  -0.616  0.00  0.00    -0.294 N 
ATOM      8  C   UNL     1       2.394   4.085  -0.375  0.00  0.00    +0.302 C 
ATOM      9  O   UNL     1       3.273   3.865   0.436  0.00  0.00    -0.253 OA
ATOM     10  N   UNL     1       2.363   5.260  -1.033  0.00  0.00    -0.285 N 
ATOM     11  C   UNL     1       1.247   5.585  -1.932  0.00  0.00    +0.112 C 
ATOM     12  C   UNL     1       0.661   6.942  -1.512  0.00  0.00    +0.004 C 
ATOM     13  C   UNL     1       1.777   7.989  -1.492  0.00  0.00    +0.009 C 
ATOM     14  C   UNL     1       2.839   7.585  -0.467  0.00  0.00    +0.004 C 
ATOM     15  C   UNL     1       3.447   6.239  -0.870  0.00  0.00    +0.112 C 
ATOM     16  C   UNL     1       3.937   8.649  -0.423  0.00  0.00    +0.009 C 
ATOM     17  C   UNL     1      -0.416   7.363  -2.514  0.00  0.00    +0.009 C 
ATOM     18  H   UNL     1       0.796   3.295  -1.317  0.00  0.00    +0.151 HD
ENDBRANCH   3   7
BRANCH   1  23
ATOM     19  C   UNL     1      -3.799  -3.921   1.576  0.00  0.00    +0.044 C 
ATOM     20  C   UNL     1      -2.739  -2.916   1.204  0.00  0.00    -0.047 A 
ATOM     21  C   UNL     1      -2.982  -1.565   1.369  0.00  0.00    +0.005 A 
ATOM     22  C   UNL     1      -2.013  -0.641   1.029  0.00  0.00    +0.024 A 
ATOM     23  C   UNL     1      -0.794  -1.071   0.521  0.00  0.00    +0.037 A 
ATOM     24  C   UNL     1      -0.555  -2.428   0.352  0.00  0.00    +0.027 A 
ATOM     25  C   UNL     1      -1.526  -3.347   0.699  0.00  0.00    -0.046 A 
ATOM     26  C   UNL     1      -1.266  -4.821   0.520  0.00  0.00    +0.044 C 
ENDBRANCH   1  23
TORSDOF 2
