REMARK  Name = ZINC37063672
REMARK  6 active torsions:
REMARK  status: ('A' for Active; 'I' for Inactive)
REMARK    1  A    between atoms: C_1  and  C_2
REMARK    2  A    between atoms: C_5  and  S_9
REMARK    3  A    between atoms: C_6  and  N_8
REMARK    4  A    between atoms: S_9  and  N_12
REMARK    5  A    between atoms: N_12  and  C_13
REMARK    6  A    between atoms: C_17  and  C_20
REMARK                            x       y       z     vdW  Elec       q    Type
REMARK                         _______ _______ _______ _____ _____    ______ ____
ROOT
ATOM      1  S   UNL     1       0.021  -4.435   0.094  0.00  0.00    +0.074 S 
ATOM      2  O   UNL     1      -0.962  -4.966   0.972  0.00  0.00    -0.150 OA
ATOM      3  O   UNL     1      -0.013  -4.652  -1.310  0.00  0.00    -0.150 OA
ENDROOT
BRANCH   1   8
ATOM      4  C   UNL     1       0.015   1.548   0.911  0.00  0.00    +0.044 C 
ATOM      5  C   UNL     1       0.017   0.054   0.711  0.00  0.00    -0.049 A 
ATOM      6  C   UNL     1      -0.054  -0.472  -0.566  0.00  0.00    +0.005 A 
ATOM      7  C   UNL     1      -0.052  -1.842  -0.754  0.00  0.00    +0.031 A 
ATOM      8  C   UNL     1       0.020  -2.689   0.335  0.00  0.00    +0.129 A 
ATOM      9  C   UNL     1       0.092  -2.164   1.618  0.00  0.00    +0.052 A 
ATOM     10  C   UNL     1       0.096  -0.787   1.803  0.00  0.00    +0.028 A 
BRANCH   9  11
ATOM     11  N   UNL     1       0.166  -3.018   2.721  0.00  0.00    -0.356 N 
ATOM     12  H   UNL     1       0.252  -3.975   2.588  0.00  0.00    +0.142 HD
ATOM     13  H   UNL     1       0.131  -2.655   3.619  0.00  0.00    +0.142 HD
ENDBRANCH   9  11
ENDBRANCH   1   8
BRANCH   1  14
ATOM     14  N   UNL     1       1.484  -5.001   0.625  0.00  0.00    -0.213 N 
ATOM     15  H   UNL     1       1.528  -5.571   1.409  0.00  0.00    +0.174 HD
BRANCH  14  16
ATOM     16  C   UNL     1       2.656  -4.658  -0.057  0.00  0.00    +0.085 A 
ATOM     17  C   UNL     1       3.600  -3.839   0.550  0.00  0.00    +0.065 A 
ATOM     18  C   UNL     1       4.758  -3.502  -0.126  0.00  0.00    +0.022 A 
ATOM     19  C   UNL     1       4.976  -3.980  -1.406  0.00  0.00    +0.006 A 
ATOM     20  C   UNL     1       4.039  -4.795  -2.013  0.00  0.00    -0.030 A 
ATOM     21  C   UNL     1       2.881  -5.141  -1.340  0.00  0.00    +0.068 A 
ATOM     22 CL   UNL     1       1.708  -6.170  -2.100  0.00  0.00    -0.081 Cl
ATOM     23  C   UNL     1       4.282  -5.313  -3.407  0.00  0.00    +0.045 C 
ATOM     24 CL   UNL     1       3.327  -3.239   2.156  0.00  0.00    -0.082 Cl
ENDBRANCH  14  16
ENDBRANCH   1  14
TORSDOF 4
