REMARK  Name = ZINC11784496
REMARK  7 active torsions:
REMARK  status: ('A' for Active; 'I' for Inactive)
REMARK    1  A    between atoms: C_1  and  C_2
REMARK    2  A    between atoms: C_9  and  C_11
REMARK    3  A    between atoms: C_11  and  N_65
REMARK    4  A    between atoms: C_12  and  N_65
REMARK    5  A    between atoms: N_15  and  C_18
REMARK    6  A    between atoms: C_21  and  C_24
REMARK    7  A    between atoms: C_30  and  O_33
REMARK                            x       y       z     vdW  Elec       q    Type
REMARK                         _______ _______ _______ _____ _____    ______ ____
ROOT
ATOM      1  C   UNL     1       0.446  -0.534   0.923  0.00  0.00    -0.068 C 
ATOM      2  C   UNL     1       0.076  -0.034  -0.477  0.00  0.00    +0.003 C 
ATOM      3  C   UNL     1       0.022   1.495  -0.469  0.00  0.00    +0.103 C 
ATOM      4  N   UNL     1       1.329   2.030  -0.067  0.00  0.00    -0.330 N 
ATOM      5  C   UNL     1       1.683   1.602   1.292  0.00  0.00    +0.103 C 
ATOM      6  C   UNL     1       1.787   0.076   1.337  0.00  0.00    +0.003 C 
ENDROOT
BRANCH   4   7
ATOM      7  C   UNL     1       1.354   3.417  -0.175  0.00  0.00    +0.030 A 
ATOM      8  C   UNL     1       0.227   4.099  -0.624  0.00  0.00    +0.024 A 
ATOM      9  C   UNL     1       0.247   5.471  -0.728  0.00  0.00    +0.015 A 
ATOM     10  C   UNL     1       1.405   6.179  -0.392  0.00  0.00    +0.037 A 
ATOM     11  C   UNL     1       2.537   5.490   0.054  0.00  0.00    +0.015 A 
ATOM     12  C   UNL     1       2.509   4.119   0.160  0.00  0.00    +0.024 A 
BRANCH  10  13
ATOM     13  C   UNL     1       1.432   7.649  -0.506  0.00  0.00    +0.247 C 
ATOM     14  O   UNL     1       2.412   8.206  -0.963  0.00  0.00    -0.270 OA
ATOM     15  N   UNL     1       0.370   8.376  -0.104  0.00  0.00    -0.295 N 
ATOM     16  C   UNL     1      -0.770   7.731   0.561  0.00  0.00    +0.108 C 
ATOM     17  C   UNL     1      -1.032   8.453   1.892  0.00  0.00    +0.021 C 
ATOM     18  C   UNL     1      -1.224   9.947   1.625  0.00  0.00    +0.034 C 
ATOM     19  C   UNL     1       0.052  10.525   1.007  0.00  0.00    +0.132 C 
ATOM     20  C   UNL     1       0.328   9.827  -0.329  0.00  0.00    +0.139 C 
BRANCH  19  21
ATOM     21  O   UNL     1      -0.117  11.927   0.787  0.00  0.00    -0.390 OA
ATOM     22  H   UNL     1       0.654  12.359   0.394  0.00  0.00    +0.210 HD
ENDBRANCH  19  21
ENDBRANCH  10  13
ENDBRANCH   4   7
BRANCH   1  23
ATOM     23  N   UNL     1       0.559  -2.005   0.899  0.00  0.00    +0.385 N 
ATOM     24  H   UNL     1      -0.136  -2.387   0.246  0.00  0.00    -0.085 HD
ATOM     25  H   UNL     1       1.502  -2.267   0.588  0.00  0.00    -0.085 HD
BRANCH  23  26
ATOM     26  C   UNL     1       0.318  -2.559   2.244  0.00  0.00    -0.024 C 
BRANCH  26  35
ATOM     27  C   UNL     1      -2.109  -7.479   1.220  0.00  0.00    +0.047 C 
ATOM     28  C   UNL     1      -0.668  -7.399   1.654  0.00  0.00    -0.008 A 
ATOM     29  C   UNL     1       0.068  -8.533   1.804  0.00  0.00    +0.008 A 
ATOM     30  C   UNL     1       1.410  -8.443   2.209  0.00  0.00    +0.018 A 
ATOM     31  C   UNL     1       1.970  -7.239   2.450  0.00  0.00    +0.093 A 
ATOM     32  N   UNL     1       1.242  -6.093   2.304  0.00  0.00    -0.306 N 
ATOM     33  C   UNL     1      -0.069  -6.149   1.909  0.00  0.00    +0.141 A 
ATOM     34  N   UNL     1      -0.532  -4.909   1.847  0.00  0.00    -0.234 NA
ATOM     35  C   UNL     1       0.440  -4.060   2.189  0.00  0.00    +0.043 A 
ATOM     36  C   UNL     1       1.554  -4.771   2.472  0.00  0.00    +0.114 A 
ENDBRANCH  26  35
ENDBRANCH  23  26
ENDBRANCH   1  23
TORSDOF 6
