REMARK  Name = ZINC43527871
REMARK  10 active torsions:
REMARK  status: ('A' for Active; 'I' for Inactive)
REMARK    1  A    between atoms: C_1  and  C_2
REMARK    2  A    between atoms: C_2  and  C_3
REMARK    3  A    between atoms: C_3  and  C_4
REMARK    4  A    between atoms: C_3  and  C_6
REMARK    5  A    between atoms: C_4  and  C_5
REMARK    6  A    between atoms: C_8  and  C_18
REMARK    7  A    between atoms: C_10  and  C_12
REMARK    8  A    between atoms: C_27  and  C_29
REMARK    9  A    between atoms: C_29  and  N_30
REMARK   10  A    between atoms: N_33  and  C_34
REMARK                            x       y       z     vdW  Elec       q    Type
REMARK                         _______ _______ _______ _____ _____    ______ ____
ROOT
ATOM      1  C   UNL     1      -0.846  -5.997  -1.982  0.00  0.00    +0.024 C 
ATOM      2  C   UNL     1      -1.452  -5.396  -3.253  0.00  0.00    -0.068 C 
ATOM      3  N   UNL     1      -0.418  -5.251  -4.280  0.00  0.00    +0.383 N 
ATOM      4  C   UNL     1       0.637  -4.342  -3.825  0.00  0.00    -0.078 C 
ATOM      5  C   UNL     1       1.312  -4.908  -2.574  0.00  0.00    -0.015 C 
ATOM      6  C   UNL     1       0.649  -6.247  -2.214  0.00  0.00    -0.007 C 
ATOM      7  C   UNL     1       0.802  -7.197  -3.409  0.00  0.00    -0.010 C 
ATOM      8  C   UNL     1       0.143  -6.556  -4.636  0.00  0.00    -0.051 C 
ATOM      9  H   UNL     1      -0.841  -4.850  -5.104  0.00  0.00    -0.081 HD
ENDROOT
BRANCH   1  12
ATOM     10  C   UNL     1      -1.136  -2.819   0.035  0.00  0.00    +0.048 A 
ATOM     11  C   UNL     1      -0.965  -3.668  -1.049  0.00  0.00    +0.047 A 
ATOM     12  C   UNL     1      -1.026  -5.037  -0.835  0.00  0.00    +0.047 A 
ATOM     13  N   UNL     1      -1.244  -5.489   0.388  0.00  0.00    -0.232 NA
ATOM     14  C   UNL     1      -1.403  -4.651   1.403  0.00  0.00    +0.160 A 
ATOM     15  N   UNL     1      -1.345  -3.337   1.233  0.00  0.00    -0.232 NA
BRANCH  14  16
ATOM     16  C   UNL     1      -1.646  -5.196   2.761  0.00  0.00    +0.022 A 
ATOM     17  C   UNL     1      -1.702  -6.574   2.982  0.00  0.00    +0.031 A 
ATOM     18  C   UNL     1      -1.930  -7.039   4.262  0.00  0.00    +0.111 A 
ATOM     19  N   UNL     1      -2.093  -6.201   5.267  0.00  0.00    -0.263 NA
ATOM     20  C   UNL     1      -2.047  -4.893   5.102  0.00  0.00    +0.111 A 
ATOM     21  C   UNL     1      -1.819  -4.344   3.856  0.00  0.00    +0.031 A 
ENDBRANCH  14  16
BRANCH  10  22
ATOM     22  C   UNL     1      -1.078  -1.325  -0.150  0.00  0.00    +0.037 C 
BRANCH  22  24
ATOM     23  C   UNL     1       0.946  -1.114   1.299  0.00  0.00    +0.004 C 
ATOM     24  C   UNL     1       0.379  -0.861  -0.099  0.00  0.00    +0.006 C 
ENDBRANCH  22  24
BRANCH  22  25
ATOM     25  C   UNL     1      -1.685  -0.955  -1.505  0.00  0.00    +0.006 C 
ATOM     26  C   UNL     1      -1.768   0.568  -1.628  0.00  0.00    +0.004 C 
ENDBRANCH  22  25
ENDBRANCH  10  22
ENDBRANCH   1  12
BRANCH   8  27
ATOM     27  C   UNL     1       1.188  -6.376  -5.739  0.00  0.00    +0.090 C 
BRANCH  27  28
ATOM     28  N   UNL     1       0.586  -5.669  -6.872  0.00  0.00    -0.301 N 
ATOM     29  C   UNL     1       1.325  -5.397  -7.966  0.00  0.00    +0.304 C 
ATOM     30  O   UNL     1       2.491  -5.739  -8.013  0.00  0.00    -0.253 OA
ATOM     31  N   UNL     1       0.771  -4.747  -9.009  0.00  0.00    -0.269 N 
ATOM     32  H   UNL     1      -0.344  -5.397  -6.835  0.00  0.00    +0.150 HD
ATOM     33  H   UNL     1      -0.136  -4.408  -8.942  0.00  0.00    +0.156 HD
BRANCH  31  34
ATOM     34  C   UNL     1       1.502  -4.563 -10.187  0.00  0.00    +0.035 A 
ATOM     35  C   UNL     1       1.335  -3.405 -10.936  0.00  0.00    +0.023 A 
ATOM     36  C   UNL     1       2.059  -3.226 -12.098  0.00  0.00    +0.002 A 
ATOM     37  C   UNL     1       2.950  -4.197 -12.516  0.00  0.00    +0.000 A 
ATOM     38  C   UNL     1       3.119  -5.351 -11.773  0.00  0.00    +0.002 A 
ATOM     39  C   UNL     1       2.402  -5.534 -10.607  0.00  0.00    +0.023 A 
ENDBRANCH  31  34
ENDBRANCH  27  28
ENDBRANCH   8  27
TORSDOF 8
