REMARK  Name = ZINC04593585
REMARK  6 active torsions:
REMARK  status: ('A' for Active; 'I' for Inactive)
REMARK    1  A    between atoms: C_1  and  C_2
REMARK    2  A    between atoms: C_2  and  C_24
REMARK    3  A    between atoms: C_4  and  N_9
REMARK    4  A    between atoms: C_6  and  C_7
REMARK    5  A    between atoms: C_6  and  C_8
REMARK    6  A    between atoms: C_10  and  C_12
REMARK                            x       y       z     vdW  Elec       q    Type
REMARK                         _______ _______ _______ _____ _____    ______ ____
ROOT
ATOM      1  N   UNL     1       1.234  -4.944  -0.035  0.00  0.00    -0.308 N 
ATOM      2  C   UNL     1       0.071  -4.263  -0.021  0.00  0.00    +0.251 C 
ATOM      3  O   UNL     1      -0.986  -4.864  -0.015  0.00  0.00    -0.270 OA
ATOM      4  H   UNL     1       2.077  -4.464  -0.040  0.00  0.00    +0.149 HD
ENDROOT
BRANCH   1   8
ATOM      5  C   UNL     1       1.625  -8.976  -1.766  0.00  0.00    -0.010 C 
ATOM      6  C   UNL     1       2.554  -8.446  -0.667  0.00  0.00    -0.072 C 
ATOM      7  C   UNL     1       2.525  -6.920  -0.666  0.00  0.00    +0.009 C 
ATOM      8  C   UNL     1       1.225  -6.412  -0.043  0.00  0.00    +0.071 C 
ATOM      9  C   UNL     1       1.145  -6.922   1.396  0.00  0.00    +0.009 C 
ATOM     10  C   UNL     1       1.155  -8.449   1.419  0.00  0.00    -0.072 C 
ATOM     11  C   UNL     1      -0.214  -8.977   0.975  0.00  0.00    -0.010 C 
ATOM     12  C   UNL     1       1.362  -8.890   2.885  0.00  0.00    -0.010 C 
ATOM     13  C   UNL     1       3.989  -8.884  -1.032  0.00  0.00    -0.010 C 
ATOM     14  N   UNL     1       2.259  -9.079   0.647  0.00  0.00    +0.386 N 
ATOM     15  H   UNL     1       3.111  -9.037   1.218  0.00  0.00    -0.084 HD
ATOM     16  H   UNL     1       2.009 -10.061   0.477  0.00  0.00    -0.084 HD
ENDBRANCH   1   8
BRANCH   2  17
ATOM     17  C   UNL     1       0.080  -2.790  -0.013  0.00  0.00    +0.122 A 
ATOM     18  C   UNL     1       1.276  -2.093  -0.020  0.00  0.00    +0.031 A 
ATOM     19  C   UNL     1       1.238  -0.675  -0.013  0.00  0.00    +0.019 A 
ATOM     20  C   UNL     1       2.431   0.063  -0.021  0.00  0.00    +0.026 A 
ATOM     21  C   UNL     1       2.387   1.427  -0.013  0.00  0.00    +0.019 A 
ATOM     22  C   UNL     1       1.167   2.092   0.002  0.00  0.00    +0.019 A 
ATOM     23  C   UNL     1      -0.017   1.387   0.010  0.00  0.00    +0.048 A 
ATOM     24  C   UNL     1       0.002  -0.004   0.002  0.00  0.00    +0.139 A 
ATOM     25  O   UNL     1      -1.160  -0.692   0.009  0.00  0.00    -0.422 OA
ATOM     26  C   UNL     1      -1.178  -2.036   0.002  0.00  0.00    +0.350 A 
ATOM     27  O   UNL     1      -2.241  -2.628   0.009  0.00  0.00    -0.244 OA
ATOM     28 BR   UNL     1       3.997   2.419  -0.023  0.00  0.00    -0.050 Br
ENDBRANCH   2  17
TORSDOF 2
