REMARK  Name = ZINC20727734
REMARK  13 active torsions:
REMARK  status: ('A' for Active; 'I' for Inactive)
REMARK    1  A    between atoms: C_1  and  C_2
REMARK    2  A    between atoms: C_2  and  C_3
REMARK    3  A    between atoms: C_2  and  C_4
REMARK    4  A    between atoms: C_2  and  C_5
REMARK    5  A    between atoms: N_11  and  C_24
REMARK    6  A    between atoms: C_15  and  C_16
REMARK    7  A    between atoms: C_24  and  C_25
REMARK    8  A    between atoms: N_27  and  C_28
REMARK    9  A    between atoms: C_28  and  C_29
REMARK   10  A    between atoms: C_29  and  O_30
REMARK   11  A    between atoms: C_29  and  O_32
REMARK   12  A    between atoms: O_30  and  C_31
REMARK   13  A    between atoms: O_32  and  C_33
REMARK                            x       y       z     vdW  Elec       q    Type
REMARK                         _______ _______ _______ _____ _____    ______ ____
ROOT
ATOM      1  C   UNL     1       4.117   9.000   3.145  0.00  0.00    -0.040 A 
ATOM      2  C   UNL     1       5.418   8.532   3.170  0.00  0.00    +0.008 A 
ATOM      3  C   UNL     1       5.745   7.352   2.527  0.00  0.00    +0.048 A 
ATOM      4  C   UNL     1       4.766   6.636   1.857  0.00  0.00    +0.150 A 
ATOM      5  C   UNL     1       3.454   7.107   1.832  0.00  0.00    +0.080 A 
ATOM      6  C   UNL     1       3.135   8.292   2.478  0.00  0.00    +0.031 A 
ATOM      7  N   UNL     1       2.460   6.386   1.157  0.00  0.00    -0.253 N 
ATOM      8  C   UNL     1       2.725   5.114   0.766  0.00  0.00    +0.287 C 
ATOM      9  O   UNL     1       1.893   4.444   0.183  0.00  0.00    -0.266 OA
ATOM     10  C   UNL     1       4.063   4.572   1.080  0.00  0.00    +0.191 C 
ATOM     11  C   UNL     1       4.272   3.243   1.216  0.00  0.00    +0.059 C 
ATOM     12  O   UNL     1       5.082   5.473   1.222  0.00  0.00    -0.449 OA
ENDROOT
BRANCH  11  13
ATOM     13  C   UNL     1       3.128   2.318   1.252  0.00  0.00    -0.021 A 
ATOM     14  C   UNL     1       3.180   1.109   0.550  0.00  0.00    +0.009 A 
ATOM     15  C   UNL     1       2.105   0.248   0.588  0.00  0.00    +0.020 A 
ATOM     16  C   UNL     1       0.975   0.577   1.319  0.00  0.00    +0.041 A 
ATOM     17  C   UNL     1       0.916   1.772   2.016  0.00  0.00    +0.020 A 
ATOM     18  C   UNL     1       1.984   2.644   1.987  0.00  0.00    +0.009 A 
ATOM     19 CL   UNL     1      -0.374  -0.515   1.361  0.00  0.00    -0.084 Cl
ENDBRANCH  11  13
BRANCH   1  21
ATOM     20  C   UNL     1       2.715  10.014   4.921  0.00  0.00    +0.015 C 
ATOM     21  C   UNL     1       3.769  10.288   3.846  0.00  0.00    -0.013 C 
ATOM     22  C   UNL     1       5.025  10.868   4.500  0.00  0.00    +0.015 C 
ATOM     23  C   UNL     1       3.215  11.289   2.830  0.00  0.00    +0.015 C 
ENDBRANCH   1  21
BRANCH   7  24
ATOM     24  C   UNL     1       1.159   6.997   0.874  0.00  0.00    +0.209 C 
BRANCH  24  25
ATOM     25  C   UNL     1       1.209   7.686  -0.466  0.00  0.00    +0.231 C 
ATOM     26  O   UNL     1       2.230   7.668  -1.119  0.00  0.00    -0.274 OA
ATOM     27  N   UNL     1       0.118   8.321  -0.938  0.00  0.00    -0.309 N 
ATOM     28  H   UNL     1      -0.809   8.337  -0.345  0.00  0.00    +0.149 HD
BRANCH  27  29
ATOM     29  C   UNL     1       0.166   8.991  -2.240  0.00  0.00    +0.165 C 
BRANCH  29  30
ATOM     30  C   UNL     1      -1.193   9.629  -2.536  0.00  0.00    +0.266 C 
BRANCH  30  31
ATOM     31  O   UNL     1      -2.200   8.615  -2.558  0.00  0.00    -0.353 OA
ATOM     32  C   UNL     1      -3.374   8.979  -3.287  0.00  0.00    +0.197 C 
ENDBRANCH  30  31
BRANCH  30  33
ATOM     33  O   UNL     1      -1.502  10.585  -1.520  0.00  0.00    -0.353 OA
ATOM     34  C   UNL     1      -2.595  11.445  -1.845  0.00  0.00    +0.197 C 
ENDBRANCH  30  33
ENDBRANCH  29  30
ENDBRANCH  27  29
ENDBRANCH  24  25
ENDBRANCH   7  24
TORSDOF 8
