REMARK  Name = ZINC43763814
REMARK  7 active torsions:
REMARK  status: ('A' for Active; 'I' for Inactive)
REMARK    1  A    between atoms: C_1  and  C_2
REMARK    2  A    between atoms: C_6  and  C_25
REMARK    3  A    between atoms: C_6  and  C_26
REMARK    4  A    between atoms: C_9  and  O_24
REMARK    5  A    between atoms: C_12  and  C_23
REMARK    6  A    between atoms: C_18  and  C_20
REMARK    7  A    between atoms: C_18  and  C_21
REMARK                            x       y       z     vdW  Elec       q    Type
REMARK                         _______ _______ _______ _____ _____    ______ ____
ROOT
ATOM      1  C   UNL     1      -0.791   1.425  -0.409  0.00  0.00    +0.012 C 
ATOM      2  C   UNL     1      -0.645  -0.091  -0.336  0.00  0.00    -0.014 C 
ATOM      3  C   UNL     1      -0.339  -0.608  -1.752  0.00  0.00    +0.008 C 
ATOM      4  C   UNL     1       0.970   0.008  -2.238  0.00  0.00    +0.001 C 
ATOM      5  C   UNL     1       2.114  -0.455  -1.352  0.00  0.00    +0.007 C 
ATOM      6  C   UNL     1       1.879  -0.155   0.131  0.00  0.00    -0.029 C 
ATOM      7  C   UNL     1       0.493  -0.512   0.601  0.00  0.00    +0.030 C 
ATOM      8  C   UNL     1       0.162  -0.046   2.016  0.00  0.00    +0.121 C 
ATOM      9  C   UNL     1      -1.079  -0.810   2.507  0.00  0.00    +0.067 C 
ATOM     10  C   UNL     1      -2.280  -0.519   1.606  0.00  0.00    +0.080 C 
ATOM     11  C   UNL     1      -1.916  -0.766   0.147  0.00  0.00    +0.093 C 
ATOM     12  C   UNL     1      -3.150  -0.462  -0.664  0.00  0.00    +0.143 C 
ATOM     13  O   UNL     1      -3.203   0.380  -1.524  0.00  0.00    -0.297 OA
ATOM     14  C   UNL     1      -4.356  -1.321  -0.338  0.00  0.00    +0.113 C 
ATOM     15  C   UNL     1      -4.515  -1.522   1.165  0.00  0.00    +0.092 C 
ATOM     16  O   UNL     1      -3.346  -1.404   1.941  0.00  0.00    -0.362 OA
ATOM     17  C   UNL     1      -5.607  -0.570   1.680  0.00  0.00    +0.046 C 
ATOM     18  C   UNL     1      -2.755   0.912   1.866  0.00  0.00    +0.042 C 
ATOM     19  C   UNL     1       2.254   1.297   0.429  0.00  0.00    +0.011 C 
ATOM     20  C   UNL     1       2.905  -1.048   0.880  0.00  0.00    +0.011 C 
ENDROOT
BRANCH  15  21
ATOM     21  C   UNL     1      -5.052  -2.935   1.368  0.00  0.00    -0.000 C 
ATOM     22  C   UNL     1      -4.365  -3.803   2.068  0.00  0.00    +0.007 C 
ENDBRANCH  15  21
BRANCH   8  23
ATOM     23  O   UNL     1       1.226  -0.325   2.927  0.00  0.00    -0.391 OA
ATOM     24  H   UNL     1       1.050  -0.043   3.835  0.00  0.00    +0.210 HD
ENDBRANCH   8  23
TORSDOF 2
