REMARK  Name = ZINC12339986
REMARK  6 active torsions:
REMARK  status: ('A' for Active; 'I' for Inactive)
REMARK    1  A    between atoms: C_1  and  C_2
REMARK    2  A    between atoms: C_7  and  C_10
REMARK    3  A    between atoms: N_12  and  S_13
REMARK    4  A    between atoms: S_13  and  C_16
REMARK    5  A    between atoms: C_18  and  C_26
REMARK    6  A    between atoms: C_20  and  C_22
REMARK                            x       y       z     vdW  Elec       q    Type
REMARK                         _______ _______ _______ _____ _____    ______ ____
ROOT
ATOM      1  S   UNL     1      -1.760   4.987   1.996  0.00  0.00    +0.074 S 
ATOM      2  O   UNL     1      -1.372   5.674   0.814  0.00  0.00    -0.150 OA
ATOM      3  O   UNL     1      -3.108   4.943   2.443  0.00  0.00    -0.150 OA
ENDROOT
BRANCH   1  13
ATOM      4  C   UNL     1       4.858   6.611   5.081  0.00  0.00    +0.039 C 
ATOM      5  C   UNL     1       3.396   6.166   5.144  0.00  0.00    +0.133 C 
ATOM      6  C   UNL     1       2.648   6.686   3.911  0.00  0.00    +0.139 C 
ATOM      7  N   UNL     1       1.214   6.407   4.085  0.00  0.00    -0.299 N 
ATOM      8  C   UNL     1       0.577   6.824   5.345  0.00  0.00    +0.139 C 
ATOM      9  C   UNL     1       1.426   6.293   6.510  0.00  0.00    +0.133 C 
ATOM     10  O   UNL     1       2.785   6.697   6.323  0.00  0.00    -0.371 OA
ATOM     11  C   UNL     1       0.900   6.866   7.828  0.00  0.00    +0.039 C 
ATOM     12  C   UNL     1       0.489   5.781   3.099  0.00  0.00    +0.174 C 
ATOM     13  N   UNL     1      -0.871   5.634   3.233  0.00  0.00    -0.189 N 
ATOM     14  H   UNL     1       2.055   5.317   1.882  0.00  0.00    +0.158 HD
ATOM     15  H   UNL     1      -1.310   5.910   4.053  0.00  0.00    +0.176 HD
ATOM     16  N   UNL     1       1.041   5.302   1.994  0.00  0.00    -0.374 N 
ATOM     17  H   UNL     1       0.449   4.916   1.249  0.00  0.00    +0.158 HD
ENDBRANCH   1  13
BRANCH   1  18
ATOM     18  C   UNL     1      -1.240   3.315   1.799  0.00  0.00    +0.110 A 
ATOM     19  C   UNL     1      -1.870   2.307   2.505  0.00  0.00    +0.041 A 
ATOM     20  C   UNL     1      -1.462   0.996   2.351  0.00  0.00    +0.057 A 
ATOM     21  C   UNL     1      -0.423   0.691   1.492  0.00  0.00    +0.024 A 
ATOM     22  C   UNL     1       0.207   1.699   0.785  0.00  0.00    +0.057 A 
ATOM     23  C   UNL     1      -0.198   3.011   0.943  0.00  0.00    +0.041 A 
BRANCH  22  24
ATOM     24  C   UNL     1       1.340   1.367  -0.151  0.00  0.00    +0.417 C 
ATOM     25  F   UNL     1       1.568  -0.013  -0.137  0.00  0.00    -0.166 F 
ATOM     26  F   UNL     1       2.498   2.036   0.261  0.00  0.00    -0.166 F 
ATOM     27  F   UNL     1       1.006   1.771  -1.449  0.00  0.00    -0.166 F 
ENDBRANCH  22  24
BRANCH  20  28
ATOM     28  C   UNL     1      -2.149  -0.103   3.122  0.00  0.00    +0.417 C 
ATOM     29  F   UNL     1      -1.564  -1.333   2.802  0.00  0.00    -0.166 F 
ATOM     30  F   UNL     1      -2.014   0.135   4.494  0.00  0.00    -0.166 F 
ATOM     31  F   UNL     1      -3.506  -0.130   2.784  0.00  0.00    -0.166 F 
ENDBRANCH  20  28
ENDBRANCH   1  18
TORSDOF 4
