REMARK  Name = ZINC09820593
REMARK  6 active torsions:
REMARK  status: ('A' for Active; 'I' for Inactive)
REMARK    1  A    between atoms: C_1  and  N_2
REMARK    2  A    between atoms: C_4  and  C_21
REMARK    3  A    between atoms: N_9  and  C_14
REMARK    4  A    between atoms: N_23  and  C_24
REMARK    5  A    between atoms: C_24  and  C_25
REMARK    6  A    between atoms: C_25  and  C_26
REMARK                            x       y       z     vdW  Elec       q    Type
REMARK                         _______ _______ _______ _____ _____    ______ ____
ROOT
ATOM      1  C   UNL     1      -2.874   0.423  -1.499  0.00  0.00    +0.149 C 
ATOM      2  N   UNL     1      -2.473   1.693  -0.889  0.00  0.00    -0.344 N 
ATOM      3  C   UNL     1      -3.291   2.732  -0.648  0.00  0.00    +0.101 A 
ATOM      4  C   UNL     1      -2.564   3.747  -0.056  0.00  0.00    +0.078 A 
ATOM      5  C   UNL     1      -1.226   3.294   0.051  0.00  0.00    +0.086 A 
ATOM      6  C   UNL     1      -1.196   2.011  -0.474  0.00  0.00    +0.132 A 
ATOM      7  C   UNL     1       0.034   1.311  -0.485  0.00  0.00    +0.285 A 
ATOM      8  O   UNL     1       0.095   0.180  -0.934  0.00  0.00    -0.265 OA
ATOM      9  N   UNL     1       1.140   1.911   0.001  0.00  0.00    -0.227 N 
ATOM     10  C   UNL     1       1.091   3.158   0.501  0.00  0.00    +0.334 A 
ATOM     11  O   UNL     1       2.109   3.666   0.931  0.00  0.00    -0.246 OA
ATOM     12  N   UNL     1      -0.059   3.857   0.535  0.00  0.00    -0.305 N 
ATOM     13  H   UNL     1      -0.069   4.755   0.900  0.00  0.00    +0.170 HD
ENDROOT
BRANCH   9  14
ATOM     14  C   UNL     1       2.361   1.221  -0.013  0.00  0.00    +0.055 A 
ATOM     15  C   UNL     1       3.203   1.323  -1.113  0.00  0.00    +0.029 A 
ATOM     16  C   UNL     1       4.407   0.647  -1.123  0.00  0.00    +0.040 A 
ATOM     17  C   UNL     1       4.770  -0.140  -0.043  0.00  0.00    +0.124 A 
ATOM     18  C   UNL     1       3.929  -0.247   1.052  0.00  0.00    +0.040 A 
ATOM     19  C   UNL     1       2.726   0.432   1.068  0.00  0.00    +0.029 A 
ATOM     20  F   UNL     1       5.946  -0.805  -0.058  0.00  0.00    -0.205 F 
ENDBRANCH   9  14
BRANCH   4  21
ATOM     21  C   UNL     1      -3.079   5.059   0.368  0.00  0.00    +0.248 C 
ATOM     22  O   UNL     1      -2.327   5.876   0.866  0.00  0.00    -0.270 OA
ATOM     23  N   UNL     1      -4.383   5.356   0.205  0.00  0.00    -0.311 N 
ATOM     24  H   UNL     1      -4.983   4.704  -0.192  0.00  0.00    +0.149 HD
BRANCH  23  25
ATOM     25  C   UNL     1      -4.896   6.661   0.627  0.00  0.00    +0.109 C 
BRANCH  25  26
ATOM     26  C   UNL     1      -6.395   6.740   0.332  0.00  0.00    +0.056 C 
BRANCH  26  27
ATOM     27  C   UNL     1      -6.923   8.083   0.766  0.00  0.00    -0.021 A 
ATOM     28  C   UNL     1      -7.506   8.371   1.940  0.00  0.00    +0.087 A 
ATOM     29  N   UNL     1      -7.854   9.694   1.977  0.00  0.00    -0.360 N 
ATOM     30  H   UNL     1      -8.287  10.135   2.724  0.00  0.00    +0.165 HD
ATOM     31  C   UNL     1      -7.500  10.304   0.794  0.00  0.00    +0.047 A 
ATOM     32  C   UNL     1      -6.902   9.322  -0.016  0.00  0.00    +0.003 A 
ATOM     33  C   UNL     1      -6.439   9.657  -1.290  0.00  0.00    +0.010 A 
ATOM     34  C   UNL     1      -6.570  10.940  -1.743  0.00  0.00    +0.001 A 
ATOM     35  C   UNL     1      -7.160  11.912  -0.947  0.00  0.00    +0.002 A 
ATOM     36  C   UNL     1      -7.623  11.603   0.313  0.00  0.00    +0.026 A 
ENDBRANCH  26  27
ENDBRANCH  25  26
ENDBRANCH  23  25
ENDBRANCH   4  21
TORSDOF 5
