REMARK  Name = ZINC03521413
REMARK  9 active torsions:
REMARK  status: ('A' for Active; 'I' for Inactive)
REMARK    1  A    between atoms: C_1  and  C_2
REMARK    2  A    between atoms: C_2  and  N_3
REMARK    3  A    between atoms: C_7  and  C_9
REMARK    4  A    between atoms: C_9  and  C_11
REMARK    5  A    between atoms: C_9  and  S_12
REMARK    6  A    between atoms: S_12  and  C_13
REMARK    7  A    between atoms: N_23  and  C_24
REMARK    8  A    between atoms: C_27  and  C_31
REMARK    9  A    between atoms: C_29  and  C_30
REMARK                            x       y       z     vdW  Elec       q    Type
REMARK                         _______ _______ _______ _____ _____    ______ ____
ROOT
ATOM      1  C   UNL     1      -5.117   0.712  -0.707  0.00  0.00    +0.177 A 
ATOM      2  N   UNL     1      -4.890  -0.497  -0.256  0.00  0.00    -0.223 NA
ATOM      3  C   UNL     1      -5.860  -1.440  -0.238  0.00  0.00    +0.079 A 
ATOM      4  C   UNL     1      -5.620  -2.731   0.243  0.00  0.00    +0.028 A 
ATOM      5  C   UNL     1      -6.630  -3.652   0.242  0.00  0.00    +0.002 A 
ATOM      6  C   UNL     1      -7.894  -3.325  -0.231  0.00  0.00    +0.001 A 
ATOM      7  C   UNL     1      -8.160  -2.072  -0.708  0.00  0.00    +0.015 A 
ATOM      8  C   UNL     1      -7.149  -1.112  -0.719  0.00  0.00    +0.065 A 
ATOM      9  C   UNL     1      -7.377   0.250  -1.219  0.00  0.00    +0.267 A 
ATOM     10  O   UNL     1      -8.464   0.592  -1.645  0.00  0.00    -0.267 OA
ATOM     11  N   UNL     1      -6.334   1.113  -1.184  0.00  0.00    -0.255 N 
ENDROOT
BRANCH  11  12
ATOM     12  C   UNL     1      -6.502   2.425  -1.645  0.00  0.00    +0.055 A 
ATOM     13  C   UNL     1      -6.267   2.729  -2.979  0.00  0.00    +0.027 A 
ATOM     14  C   UNL     1      -6.434   4.023  -3.430  0.00  0.00    +0.005 A 
ATOM     15  C   UNL     1      -6.835   5.016  -2.555  0.00  0.00    -0.050 A 
ATOM     16  C   UNL     1      -7.070   4.716  -1.226  0.00  0.00    +0.008 A 
ATOM     17  C   UNL     1      -6.910   3.422  -0.770  0.00  0.00    -0.026 A 
ATOM     18  C   UNL     1      -7.172   3.096   0.678  0.00  0.00    +0.046 C 
ATOM     19  C   UNL     1      -7.016   6.428  -3.051  0.00  0.00    +0.044 C 
ENDBRANCH  11  12
BRANCH   1  20
ATOM     20  S   UNL     1      -3.795   1.877  -0.691  0.00  0.00    -0.075 S 
BRANCH  20  21
ATOM     21  C   UNL     1      -2.482   0.853   0.018  0.00  0.00    +0.137 C 
ATOM     22  C   UNL     1      -2.849   0.476   1.455  0.00  0.00    +0.029 C 
BRANCH  21  27
ATOM     23  N   UNL     1       2.323   0.998  -0.015  0.00  0.00    -0.299 N 
ATOM     24  C   UNL     1       1.147   1.655   0.000  0.00  0.00    +0.306 C 
ATOM     25  O   UNL     1       1.130   2.871   0.007  0.00  0.00    -0.252 OA
ATOM     26  N   UNL     1      -0.011   0.966   0.007  0.00  0.00    -0.239 N 
ATOM     27  C   UNL     1      -1.187   1.624   0.017  0.00  0.00    +0.233 C 
ATOM     28  O   UNL     1      -1.204   2.836   0.023  0.00  0.00    -0.274 OA
ATOM     29  H   UNL     1       2.336   0.028  -0.020  0.00  0.00    +0.150 HD
ATOM     30  H   UNL     1       0.002  -0.004   0.002  0.00  0.00    +0.159 HD
BRANCH  23  32
ATOM     31  C   UNL     1       4.758   0.769  -0.039  0.00  0.00    +0.024 C 
ATOM     32  C   UNL     1       3.582   1.747  -0.023  0.00  0.00    +0.102 C 
ENDBRANCH  23  32
ENDBRANCH  21  27
ENDBRANCH  20  21
ENDBRANCH   1  20
TORSDOF 5
