REMARK  Name = ZINC08790889
REMARK  6 active torsions:
REMARK  status: ('A' for Active; 'I' for Inactive)
REMARK    1  A    between atoms: C_1  and  C_2
REMARK    2  A    between atoms: C_13  and  C_15
REMARK    3  A    between atoms: C_15  and  C_16
REMARK    4  A    between atoms: C_19  and  O_22
REMARK    5  A    between atoms: N_25  and  C_28
REMARK    6  A    between atoms: C_28  and  C_29
REMARK                            x       y       z     vdW  Elec       q    Type
REMARK                         _______ _______ _______ _____ _____    ______ ____
ROOT
ATOM      1  C   UNL     1      -4.288   4.680   0.071  0.00  0.00    +0.044 C 
ATOM      2  C   UNL     1      -3.195   3.643   0.054  0.00  0.00    -0.050 A 
ATOM      3  C   UNL     1      -3.516   2.297   0.048  0.00  0.00    +0.005 A 
ATOM      4  C   UNL     1      -2.519   1.344   0.032  0.00  0.00    +0.024 A 
ATOM      5  C   UNL     1      -1.180   1.730   0.017  0.00  0.00    +0.036 A 
ATOM      6  C   UNL     1      -0.869   3.086   0.028  0.00  0.00    -0.027 A 
ATOM      7  C   UNL     1      -1.868   4.034   0.044  0.00  0.00    +0.008 A 
ATOM      8  C   UNL     1       0.631   3.163   0.012  0.00  0.00    +0.050 C 
ATOM      9  C   UNL     1       1.171   3.918   1.232  0.00  0.00    +0.088 C 
ATOM     10  C   UNL     1       1.456   5.354   0.711  0.00  0.00    +0.073 C 
ATOM     11  C   UNL     1       1.033   5.327  -0.773  0.00  0.00    -0.053 C 
ATOM     12  C   UNL     1       0.490   6.221   1.486  0.00  0.00    +0.224 C 
ATOM     13  O   UNL     1       0.393   7.426   1.385  0.00  0.00    -0.275 OA
ATOM     14  N   UNL     1      -0.241   5.428   2.303  0.00  0.00    -0.237 N 
ATOM     15  C   UNL     1       0.062   4.126   2.239  0.00  0.00    +0.225 C 
ATOM     16  O   UNL     1      -0.469   3.250   2.886  0.00  0.00    -0.275 OA
ATOM     17  C   UNL     1       1.096   1.733   0.001  0.00  0.00    +0.211 C 
ATOM     18  O   UNL     1       2.245   1.345  -0.011  0.00  0.00    -0.277 OA
ATOM     19  N   UNL     1      -0.011   0.966   0.007  0.00  0.00    -0.286 N 
ATOM     20  H   UNL     1       0.002  -0.004   0.002  0.00  0.00    +0.155 HD
ATOM     21  N   UNL     1       1.111   3.911  -1.137  0.00  0.00    +0.394 N 
ATOM     22  H   UNL     1       0.520   3.722  -1.956  0.00  0.00    -0.083 HD
ATOM     23  H   UNL     1       2.082   3.652  -1.349  0.00  0.00    -0.083 HD
ENDROOT
BRANCH  11  24
ATOM     24  C   UNL     1       1.988   6.174  -1.617  0.00  0.00    +0.020 C 
BRANCH  24  25
ATOM     25  C   UNL     1       1.528   6.171  -3.052  0.00  0.00    -0.049 A 
ATOM     26  C   UNL     1       1.993   5.204  -3.924  0.00  0.00    +0.007 A 
ATOM     27  C   UNL     1       1.569   5.195  -5.238  0.00  0.00    +0.045 A 
ATOM     28  C   UNL     1       0.684   6.165  -5.686  0.00  0.00    +0.117 A 
ATOM     29  C   UNL     1       0.224   7.138  -4.811  0.00  0.00    +0.045 A 
ATOM     30  C   UNL     1       0.647   7.139  -3.496  0.00  0.00    +0.007 A 
BRANCH  28  31
ATOM     31  O   UNL     1       0.269   6.162  -6.980  0.00  0.00    -0.507 OA
ATOM     32  H   UNL     1       0.829   6.681  -7.574  0.00  0.00    +0.292 HD
ENDBRANCH  28  31
ENDBRANCH  24  25
ENDBRANCH  11  24
BRANCH  14  33
ATOM     33  C   UNL     1      -1.278   5.956   3.192  0.00  0.00    +0.151 C 
BRANCH  33  34
ATOM     34  C   UNL     1      -0.666   6.312   4.523  0.00  0.00    -0.026 A 
ATOM     35  C   UNL     1      -0.164   7.583   4.733  0.00  0.00    +0.009 A 
ATOM     36  C   UNL     1       0.399   7.914   5.951  0.00  0.00    +0.050 A 
ATOM     37  C   UNL     1       0.459   6.973   6.966  0.00  0.00    +0.166 A 
ATOM     38  C   UNL     1      -0.047   5.693   6.754  0.00  0.00    +0.167 A 
ATOM     39  C   UNL     1      -0.614   5.369   5.532  0.00  0.00    +0.054 A 
ATOM     40  O   UNL     1       0.129   4.960   7.893  0.00  0.00    -0.453 OA
ATOM     41  C   UNL     1       1.113   5.676   8.662  0.00  0.00    +0.466 C 
ATOM     42  O   UNL     1       0.952   7.042   8.237  0.00  0.00    -0.453 OA
ENDBRANCH  33  34
ENDBRANCH  14  33
TORSDOF 5
