REMARK  Name = ZINC19972971
REMARK  15 active torsions:
REMARK  status: ('A' for Active; 'I' for Inactive)
REMARK    1  A    between atoms: C_1  and  C_2
REMARK    2  A    between atoms: C_2  and  C_3
REMARK    3  A    between atoms: C_10  and  C_15
REMARK    4  A    between atoms: C_15  and  C_17
REMARK    5  A    between atoms: C_15  and  N_26
REMARK    6  A    between atoms: N_21  and  C_22
REMARK    7  A    between atoms: C_22  and  C_23
REMARK    8  A    between atoms: C_22  and  C_24
REMARK    9  A    between atoms: C_22  and  C_25
REMARK   10  A    between atoms: N_26  and  C_27
REMARK   11  A    between atoms: N_26  and  C_36
REMARK   12  A    between atoms: C_27  and  C_28
REMARK   13  A    between atoms: C_31  and  O_34
REMARK   14  A    between atoms: O_34  and  C_35
REMARK   15  A    between atoms: C_36  and  C_37
REMARK                            x       y       z     vdW  Elec       q    Type
REMARK                         _______ _______ _______ _____ _____    ______ ____
ROOT
ATOM      1  C   UNL     1       6.317  -1.554   0.280  0.00  0.00    +0.163 C 
ENDROOT
BRANCH   1   9
ATOM      2  C   UNL     1       0.816  -0.667  -2.410  0.00  0.00    -0.047 A 
ATOM      3  C   UNL     1       0.046  -0.984  -1.299  0.00  0.00    +0.005 A 
ATOM      4  C   UNL     1       0.643  -1.346  -0.111  0.00  0.00    +0.026 A 
ATOM      5  C   UNL     1       2.030  -1.394  -0.021  0.00  0.00    +0.049 A 
ATOM      6  C   UNL     1       2.807  -1.072  -1.150  0.00  0.00    -0.001 A 
ATOM      7  C   UNL     1       2.180  -0.708  -2.346  0.00  0.00    +0.013 A 
ATOM      8  C   UNL     1       4.266  -1.127  -1.046  0.00  0.00    +0.021 A 
ATOM      9  C   UNL     1       4.818  -1.488   0.139  0.00  0.00    +0.042 A 
ATOM     10  C   UNL     1       3.994  -1.801   1.241  0.00  0.00    +0.254 A 
ATOM     11  O   UNL     1       4.511  -2.123   2.297  0.00  0.00    -0.268 OA
ATOM     12  N   UNL     1       2.653  -1.754   1.155  0.00  0.00    -0.322 N 
ATOM     13  H   UNL     1       2.052  -2.007   2.041  0.00  0.00    +0.169 HD
BRANCH   2  15
ATOM     14  C   UNL     1      -0.066   1.241  -3.726  0.00  0.00    +0.009 C 
ATOM     15  C   UNL     1       0.141  -0.275  -3.699  0.00  0.00    +0.032 C 
ENDBRANCH   2  15
ENDBRANCH   1   9
BRANCH   1  16
ATOM     16  C   UNL     1       6.960  -1.259  -1.050  0.00  0.00    +0.174 A 
ATOM     17  N   UNL     1       7.064  -0.086  -1.627  0.00  0.00    -0.111 NA
ATOM     18  N   UNL     1       7.675  -0.246  -2.749  0.00  0.00    -0.023 NA
ATOM     19  N   UNL     1       7.965  -1.491  -2.904  0.00  0.00    -0.043 NA
ATOM     20  N   UNL     1       7.546  -2.147  -1.875  0.00  0.00    -0.222 N 
BRANCH  20  21
ATOM     21  C   UNL     1       7.678  -3.588  -1.649  0.00  0.00    +0.059 C 
ATOM     22  C   UNL     1       6.295  -4.195  -1.402  0.00  0.00    +0.036 C 
ATOM     23  C   UNL     1       8.310  -4.242  -2.879  0.00  0.00    +0.036 C 
ATOM     24  C   UNL     1       8.567  -3.833  -0.428  0.00  0.00    +0.036 C 
ENDBRANCH  20  21
ENDBRANCH   1  16
BRANCH   1  25
ATOM     25  N   UNL     1       6.761  -0.562   1.269  0.00  0.00    -0.277 NA
BRANCH  25  26
ATOM     26  C   UNL     1       8.219  -0.602   1.436  0.00  0.00    +0.121 C 
BRANCH  26  27
ATOM     27  C   UNL     1       8.598   0.111   2.709  0.00  0.00    -0.033 A 
ATOM     28  C   UNL     1       8.995   1.435   2.667  0.00  0.00    +0.008 A 
ATOM     29  C   UNL     1       9.337   2.092   3.833  0.00  0.00    +0.046 A 
ATOM     30  C   UNL     1       9.294   1.419   5.045  0.00  0.00    +0.120 A 
ATOM     31  C   UNL     1       8.902   0.089   5.084  0.00  0.00    +0.046 A 
ATOM     32  C   UNL     1       8.555  -0.562   3.916  0.00  0.00    +0.008 A 
BRANCH  30  33
ATOM     33  O   UNL     1       9.636   2.061   6.193  0.00  0.00    -0.495 OA
ATOM     34  C   UNL     1       9.922   3.458   6.095  0.00  0.00    +0.277 C 
ENDBRANCH  30  33
ENDBRANCH  26  27
ENDBRANCH  25  26
BRANCH  25  35
ATOM     35  C   UNL     1       6.309   0.786   0.902  0.00  0.00    +0.160 C 
BRANCH  35  36
ATOM     36  C   UNL     1       4.924   1.018   1.449  0.00  0.00    +0.119 A 
ATOM     37  C   UNL     1       4.628   1.412   2.701  0.00  0.00    +0.046 A 
ATOM     38  C   UNL     1       3.220   1.504   2.780  0.00  0.00    +0.041 A 
ATOM     39  C   UNL     1       2.739   1.160   1.572  0.00  0.00    +0.195 A 
ATOM     40  O   UNL     1       3.775   0.873   0.768  0.00  0.00    -0.467 OA
ENDBRANCH  35  36
ENDBRANCH  25  35
ENDBRANCH   1  25
TORSDOF 10
