REMARK  Name = ZINC09956174
REMARK  6 active torsions:
REMARK  status: ('A' for Active; 'I' for Inactive)
REMARK    1  A    between atoms: C_4  and  C_7
REMARK    2  A    between atoms: C_7  and  C_8
REMARK    3  A    between atoms: C_8  and  C_27
REMARK    4  A    between atoms: N_11  and  C_15
REMARK    5  A    between atoms: C_15  and  C_16
REMARK    6  A    between atoms: N_21  and  C_22
REMARK                            x       y       z     vdW  Elec       q    Type
REMARK                         _______ _______ _______ _____ _____    ______ ____
ROOT
ATOM      1  C   UNL     1       2.922   0.806  -1.464  0.00  0.00    +0.142 C 
ATOM      2  C   UNL     1       3.083   2.122  -2.199  0.00  0.00    +0.252 C 
ATOM      3  O   UNL     1       3.854   3.019  -1.933  0.00  0.00    -0.272 OA
ATOM      4  N   UNL     1       2.190   2.087  -3.207  0.00  0.00    -0.215 N 
ATOM      5  C   UNL     1       1.494   0.945  -3.212  0.00  0.00    +0.310 C 
ATOM      6  O   UNL     1       0.631   0.682  -4.026  0.00  0.00    -0.252 OA
ATOM      7  N   UNL     1       1.857   0.118  -2.214  0.00  0.00    -0.281 N 
ATOM      8  H   UNL     1       1.489  -0.759  -2.026  0.00  0.00    +0.152 HD
ENDROOT
BRANCH   1   9
ATOM      9  C   UNL     1       4.200   0.010  -1.508  0.00  0.00    -0.015 A 
ATOM     10  C   UNL     1       5.123   0.126  -0.485  0.00  0.00    +0.006 A 
ATOM     11  C   UNL     1       6.294  -0.607  -0.524  0.00  0.00    +0.000 A 
ATOM     12  C   UNL     1       6.547  -1.450  -1.590  0.00  0.00    +0.000 A 
ATOM     13  C   UNL     1       5.626  -1.563  -2.615  0.00  0.00    +0.000 A 
ATOM     14  C   UNL     1       4.453  -0.833  -2.574  0.00  0.00    +0.006 A 
ENDBRANCH   1   9
BRANCH   1  15
ATOM     15  C   UNL     1       2.490   1.048  -0.016  0.00  0.00    +0.075 C 
BRANCH  15  19
ATOM     16  C   UNL     1      -1.238   3.133   0.029  0.00  0.00    +0.000 A 
ATOM     17  C   UNL     1      -1.219   1.751   0.017  0.00  0.00    +0.000 A 
ATOM     18  C   UNL     1      -0.013   1.076   0.008  0.00  0.00    +0.004 A 
ATOM     19  C   UNL     1       1.175   1.783   0.000  0.00  0.00    -0.045 A 
ATOM     20  C   UNL     1       1.156   3.165   0.008  0.00  0.00    +0.004 A 
ATOM     21  C   UNL     1      -0.050   3.840   0.022  0.00  0.00    +0.000 A 
ENDBRANCH  15  19
ENDBRANCH   1  15
BRANCH   4  22
ATOM     22  C   UNL     1       2.004   3.168  -4.179  0.00  0.00    +0.214 C 
BRANCH  22  23
ATOM     23  C   UNL     1       0.963   4.130  -3.667  0.00  0.00    +0.238 C 
ATOM     24  O   UNL     1       0.429   3.932  -2.596  0.00  0.00    -0.274 OA
ATOM     25  N   UNL     1       0.625   5.210  -4.399  0.00  0.00    -0.239 N 
ATOM     26  C   UNL     1      -0.306   6.070  -3.941  0.00  0.00    +0.306 C 
ATOM     27  O   UNL     1      -0.841   5.872  -2.867  0.00  0.00    -0.252 OA
ATOM     28  N   UNL     1      -0.644   7.150  -4.673  0.00  0.00    -0.296 N 
ATOM     29  H   UNL     1       1.052   5.368  -5.255  0.00  0.00    +0.159 HD
ATOM     30  H   UNL     1      -0.217   7.308  -5.529  0.00  0.00    +0.151 HD
BRANCH  28  31
ATOM     31  C   UNL     1      -1.656   8.085  -4.175  0.00  0.00    +0.074 C 
ATOM     32  C   UNL     1      -3.064   7.612  -4.592  0.00  0.00    +0.022 C 
ATOM     33  C   UNL     1      -3.825   8.923  -4.910  0.00  0.00    +0.002 C 
ATOM     34  C   UNL     1      -2.740   9.793  -5.592  0.00  0.00    +0.002 C 
ATOM     35  C   UNL     1      -1.451   9.472  -4.810  0.00  0.00    +0.022 C 
ENDBRANCH  28  31
ENDBRANCH  22  23
ENDBRANCH   4  22
TORSDOF 6
