REMARK  Name = ZINC20705508
REMARK  6 active torsions:
REMARK  status: ('A' for Active; 'I' for Inactive)
REMARK    1  A    between atoms: C_1  and  C_2
REMARK    2  A    between atoms: C_2  and  C_3
REMARK    3  A    between atoms: C_2  and  O_4
REMARK    4  A    between atoms: O_4  and  C_5
REMARK    5  A    between atoms: C_12  and  C_21
REMARK    6  A    between atoms: C_25  and  N_27
REMARK                            x       y       z     vdW  Elec       q    Type
REMARK                         _______ _______ _______ _____ _____    ______ ____
ROOT
ATOM      1  C   UNL     1      -1.705   1.422  -2.091  0.00  0.00    +0.142 A 
ATOM      2  C   UNL     1      -2.058   1.600  -3.415  0.00  0.00    +0.047 A 
ATOM      3  C   UNL     1      -1.172   2.187  -4.298  0.00  0.00    +0.004 A 
ATOM      4  C   UNL     1       0.067   2.603  -3.849  0.00  0.00    +0.006 A 
ATOM      5  C   UNL     1       0.426   2.438  -2.527  0.00  0.00    -0.016 A 
ATOM      6  C   UNL     1      -0.451   1.834  -1.625  0.00  0.00    +0.074 A 
ATOM      7  N   UNL     1      -0.157   1.608  -0.279  0.00  0.00    -0.334 N 
ATOM      8  C   UNL     1       1.133   2.120   0.211  0.00  0.00    +0.105 C 
ATOM      9  C   UNL     1       2.149   1.891  -0.889  0.00  0.00    +0.029 C 
ATOM     10  C   UNL     1       1.739   2.890  -2.016  0.00  0.00    +0.049 C 
ATOM     11  C   UNL     1       2.951   2.949  -2.869  0.00  0.00    -0.023 C 
ATOM     12  C   UNL     1       4.014   2.701  -2.111  0.00  0.00    -0.030 C 
ATOM     13  C   UNL     1       3.573   2.415  -0.673  0.00  0.00    +0.033 C 
ATOM     14  H   UNL     1      -0.835   1.078   0.407  0.00  0.00    +0.147 HD
ENDROOT
BRANCH   8  15
ATOM     15  C   UNL     1       1.022   3.593   0.510  0.00  0.00    -0.025 A 
ATOM     16  C   UNL     1       1.883   4.181   1.418  0.00  0.00    +0.005 A 
ATOM     17  C   UNL     1       1.784   5.533   1.688  0.00  0.00    +0.003 A 
ATOM     18  C   UNL     1       0.817   6.295   1.058  0.00  0.00    +0.033 A 
ATOM     19  C   UNL     1      -0.046   5.706   0.154  0.00  0.00    +0.127 A 
ATOM     20  C   UNL     1       0.056   4.354  -0.120  0.00  0.00    +0.038 A 
BRANCH  19  21
ATOM     21  N   UNL     1      -1.081   6.521  -0.520  0.00  0.00    +0.056 N 
ATOM     22  O   UNL     1      -1.843   6.002  -1.317  0.00  0.00    -0.126 OA
ATOM     23  O   UNL     1      -1.171   7.712  -0.279  0.00  0.00    -0.126 OA
ENDBRANCH  19  21
ENDBRANCH   8  15
BRANCH   1  24
ATOM     24  O   UNL     1      -2.585   0.842  -1.232  0.00  0.00    -0.488 OA
BRANCH  24  26
ATOM     25  C   UNL     1      -3.879  -0.794  -2.453  0.00  0.00    +0.051 C 
ATOM     26  C   UNL     1      -3.892   0.557  -1.736  0.00  0.00    +0.167 C 
ATOM     27  C   UNL     1      -4.887   0.509  -0.575  0.00  0.00    +0.051 C 
ENDBRANCH  24  26
ENDBRANCH   1  24
TORSDOF 4
