REMARK  Name = ZINC40067046
REMARK  13 active torsions:
REMARK  status: ('A' for Active; 'I' for Inactive)
REMARK    1  A    between atoms: C_1  and  C_2
REMARK    2  A    between atoms: C_2  and  C_3
REMARK    3  A    between atoms: C_3  and  C_4
REMARK    4  A    between atoms: C_4  and  N_5
REMARK    5  A    between atoms: C_6  and  N_26
REMARK    6  A    between atoms: C_7  and  C_15
REMARK    7  A    between atoms: C_8  and  C_14
REMARK    8  A    between atoms: C_9  and  C_12
REMARK    9  A    between atoms: N_19  and  C_23
REMARK   10  A    between atoms: C_23  and  C_24
REMARK   11  A    between atoms: C_24  and  C_25
REMARK   12  A    between atoms: N_26  and  C_27
REMARK   13  A    between atoms: C_27  and  C_28
REMARK                            x       y       z     vdW  Elec       q    Type
REMARK                         _______ _______ _______ _____ _____    ______ ____
ROOT
ATOM      1  N   UNL     1      -3.481  -2.209  -0.052  0.00  0.00    -0.295 N 
ATOM      2  C   UNL     1      -3.581  -2.791   1.171  0.00  0.00    +0.109 A 
ATOM      3  C   UNL     1      -4.567  -3.761   1.421  0.00  0.00    +0.019 A 
ATOM      4  C   UNL     1      -5.453  -4.126   0.394  0.00  0.00    -0.017 A 
ATOM      5  C   UNL     1      -5.330  -3.514  -0.850  0.00  0.00    +0.120 A 
ATOM      6  C   UNL     1      -4.321  -2.538  -1.050  0.00  0.00    +0.270 A 
ATOM      7  O   UNL     1      -4.211  -1.995  -2.135  0.00  0.00    -0.266 OA
ATOM      8  C   UNL     1      -6.519  -5.163   0.635  0.00  0.00    +0.046 C 
ENDROOT
BRANCH   3   9
ATOM      9  C   UNL     1      -4.669  -4.385   2.741  0.00  0.00    +0.032 C 
ATOM     10  C   UNL     1      -5.770  -4.172   3.511  0.00  0.00    +0.077 C 
ATOM     11  C   UNL     1      -6.091  -4.692   4.802  0.00  0.00    +0.258 C 
ATOM     12  O   UNL     1      -5.331  -5.447   5.381  0.00  0.00    -0.269 OA
ATOM     13  N   UNL     1      -7.238  -4.330   5.350  0.00  0.00    -0.255 N 
ATOM     14  C   UNL     1      -8.082  -3.492   4.707  0.00  0.00    +0.121 C 
ATOM     15  S   UNL     1      -9.602  -2.898   5.222  0.00  0.00    -0.027 S 
ATOM     16  S   UNL     1      -7.206  -3.157   3.187  0.00  0.00    -0.061 S 
BRANCH  13  17
ATOM     17  C   UNL     1      -7.601  -4.844   6.673  0.00  0.00    +0.115 C 
BRANCH  17  18
ATOM     18  C   UNL     1      -7.075  -3.894   7.751  0.00  0.00    +0.016 C 
ATOM     19  C   UNL     1      -7.454  -4.431   9.132  0.00  0.00    +0.005 C 
ENDBRANCH  17  18
ENDBRANCH  13  17
ENDBRANCH   3   9
BRANCH   5  20
ATOM     20  C   UNL     1      -6.217  -3.864  -1.918  0.00  0.00    +0.105 C 
ATOM     21  N   UNL     1      -6.921  -4.142  -2.766  0.00  0.00    -0.191 NA
ENDBRANCH   5  20
BRANCH   2  22
ATOM     22  N   UNL     1      -2.717  -2.432   2.164  0.00  0.00    -0.326 N 
ATOM     23  H   UNL     1      -2.905  -1.654   2.712  0.00  0.00    +0.148 HD
BRANCH  22  24
ATOM     24  C   UNL     1      -1.507  -3.222   2.403  0.00  0.00    +0.139 C 
BRANCH  24  25
ATOM     25  C   UNL     1      -0.649  -2.528   3.429  0.00  0.00    -0.012 A 
ATOM     26  C   UNL     1       0.435  -1.770   3.026  0.00  0.00    +0.006 A 
ATOM     27  C   UNL     1       1.222  -1.134   3.967  0.00  0.00    +0.000 A 
ATOM     28  C   UNL     1       0.926  -1.254   5.312  0.00  0.00    +0.001 A 
ATOM     29  C   UNL     1      -0.157  -2.012   5.717  0.00  0.00    +0.020 A 
ATOM     30  C   UNL     1      -0.949  -2.645   4.775  0.00  0.00    +0.046 A 
ATOM     31 CL   UNL     1      -2.313  -3.591   5.282  0.00  0.00    -0.083 Cl
ENDBRANCH  24  25
ENDBRANCH  22  24
ENDBRANCH   2  22
BRANCH   1  32
ATOM     32  C   UNL     1      -2.444  -1.202  -0.286  0.00  0.00    +0.126 C 
BRANCH  32  33
ATOM     33  C   UNL     1      -2.959   0.172   0.151  0.00  0.00    +0.021 C 
BRANCH  33  35
ATOM     34  C   UNL     1      -2.351   2.575   0.457  0.00  0.00    +0.004 C 
ATOM     35  C   UNL     1      -1.836   1.202   0.020  0.00  0.00    -0.002 C 
ENDBRANCH  33  35
ENDBRANCH  32  33
ENDBRANCH   1  32
TORSDOF 10
