REMARK  Name = ZINC12744891
REMARK  13 active torsions:
REMARK  status: ('A' for Active; 'I' for Inactive)
REMARK    1  A    between atoms: C_1  and  C_2
REMARK    2  A    between atoms: C_2  and  O_3
REMARK    3  A    between atoms: O_3  and  C_4
REMARK    4  A    between atoms: C_4  and  C_6
REMARK    5  A    between atoms: C_7  and  C_20
REMARK    6  A    between atoms: C_12  and  C_14
REMARK    7  A    between atoms: C_17  and  C_19
REMARK    8  A    between atoms: C_20  and  O_21
REMARK    9  A    between atoms: O_21  and  C_22
REMARK   10  A    between atoms: C_22  and  C_24
REMARK   11  A    between atoms: C_27  and  N_30
REMARK   12  A    between atoms: C_31  and  C_37
REMARK   13  A    between atoms: C_33  and  C_35
REMARK                            x       y       z     vdW  Elec       q    Type
REMARK                         _______ _______ _______ _____ _____    ______ ____
ROOT
ATOM      1  C   UNL     1       2.958   1.472   1.484  0.00  0.00    +0.084 C 
ATOM      2  C   UNL     1       4.004   2.274   1.780  0.00  0.00    +0.061 C 
ATOM      3  N   UNL     1       4.645   2.985   0.806  0.00  0.00    -0.269 N 
ATOM      4  C   UNL     1       4.301   2.949  -0.487  0.00  0.00    +0.305 C 
ATOM      5  O   UNL     1       4.933   3.618  -1.282  0.00  0.00    -0.252 OA
ATOM      6  N   UNL     1       3.278   2.196  -0.937  0.00  0.00    -0.285 N 
ATOM      7  C   UNL     1       2.521   1.390   0.036  0.00  0.00    +0.179 C 
ATOM      8  H   UNL     1       5.391   3.547   1.066  0.00  0.00    +0.156 HD
ATOM      9  H   UNL     1       3.046   2.185  -1.879  0.00  0.00    +0.151 HD
ENDROOT
BRANCH   7  10
ATOM     10  C   UNL     1       1.076   1.810  -0.038  0.00  0.00    +0.130 A 
ATOM     11  C   UNL     1       0.013   0.988   0.025  0.00  0.00    +0.047 A 
ATOM     12  C   UNL     1      -1.140   1.799  -0.088  0.00  0.00    +0.045 A 
ATOM     13  C   UNL     1      -0.713   3.069  -0.203  0.00  0.00    +0.102 A 
ATOM     14  O   UNL     1       0.630   3.070  -0.176  0.00  0.00    -0.463 OA
ATOM     15  C   UNL     1      -1.592   4.285  -0.346  0.00  0.00    +0.086 C 
ENDBRANCH   7  10
BRANCH   1  16
ATOM     16  C   UNL     1       2.293   0.736   2.492  0.00  0.00    +0.339 C 
ATOM     17  O   UNL     1       2.528  -0.450   2.634  0.00  0.00    -0.245 OA
BRANCH  16  18
ATOM     18  O   UNL     1       1.398   1.347   3.295  0.00  0.00    -0.462 OA
BRANCH  18  20
ATOM     19  C   UNL     1      -0.210   1.403   5.099  0.00  0.00    +0.048 C 
ATOM     20  C   UNL     1       0.764   0.542   4.291  0.00  0.00    +0.229 C 
ENDBRANCH  18  20
ENDBRANCH  16  18
ENDBRANCH   1  16
BRANCH   2  21
ATOM     21  C   UNL     1       4.472   2.385   3.208  0.00  0.00    +0.283 C 
BRANCH  21  22
ATOM     22  O   UNL     1       5.813   1.839   3.322  0.00  0.00    -0.455 OA
BRANCH  22  23
ATOM     23  C   UNL     1       6.381   1.863   4.544  0.00  0.00    +0.340 C 
ATOM     24  O   UNL     1       5.773   2.326   5.488  0.00  0.00    -0.245 OA
BRANCH  23  25
ATOM     25  C   UNL     1       7.742   1.325   4.735  0.00  0.00    +0.059 A 
ATOM     26  C   UNL     1       8.441   0.786   3.652  0.00  0.00    +0.017 A 
ATOM     27  C   UNL     1       9.713   0.292   3.833  0.00  0.00    +0.028 A 
ATOM     28  C   UNL     1      10.297   0.316   5.094  0.00  0.00    +0.066 A 
ATOM     29  C   UNL     1       9.603   0.846   6.176  0.00  0.00    +0.028 A 
ATOM     30  C   UNL     1       8.332   1.349   6.002  0.00  0.00    +0.017 A 
BRANCH  28  31
ATOM     31  N   UNL     1      11.587  -0.193   5.276  0.00  0.00    -0.235 N 
ATOM     32  C   UNL     1      12.123  -1.263   4.632  0.00  0.00    +0.060 A 
ATOM     33  C   UNL     1      13.387  -1.424   5.089  0.00  0.00    +0.085 A 
ATOM     34  C   UNL     1      13.630  -0.431   6.045  0.00  0.00    +0.079 A 
ATOM     35  N   UNL     1      12.555   0.306   6.157  0.00  0.00    -0.170 NA
ATOM     36  C   UNL     1      14.913  -0.242   6.814  0.00  0.00    +0.069 C 
ATOM     37 CL   UNL     1      14.507  -2.651   4.583  0.00  0.00    -0.080 Cl
ATOM     38  C   UNL     1      11.436  -2.115   3.596  0.00  0.00    +0.067 C 
ENDBRANCH  28  31
ENDBRANCH  23  25
ENDBRANCH  22  23
ENDBRANCH  21  22
ENDBRANCH   2  21
TORSDOF 9
