REMARK  Name = ZINC67380741
REMARK  7 active torsions:
REMARK  status: ('A' for Active; 'I' for Inactive)
REMARK    1  A    between atoms: C_1  and  C_2
REMARK    2  A    between atoms: C_2  and  C_3
REMARK    3  A    between atoms: C_3  and  C_5
REMARK    4  A    between atoms: C_3  and  N_15
REMARK    5  A    between atoms: N_18  and  C_19
REMARK    6  A    between atoms: C_19  and  C_20
REMARK    7  A    between atoms: C_20  and  C_21
REMARK                            x       y       z     vdW  Elec       q    Type
REMARK                         _______ _______ _______ _____ _____    ______ ____
ROOT
ATOM      1  N   UNL     1      -2.082  -0.162   1.273  0.00  0.00    -0.290 N 
ATOM      2  C   UNL     1      -2.664   1.047   1.400  0.00  0.00    +0.300 C 
ATOM      3  O   UNL     1      -2.651   1.829   0.469  0.00  0.00    -0.253 OA
ATOM      4  N   UNL     1      -3.260   1.389   2.559  0.00  0.00    -0.299 N 
ATOM      5  H   UNL     1      -2.092  -0.785   2.016  0.00  0.00    +0.151 HD
ATOM      6  H   UNL     1      -3.270   0.765   3.302  0.00  0.00    +0.150 HD
ENDROOT
BRANCH   1   7
ATOM      7  C   UNL     1      -1.433  -0.534   0.013  0.00  0.00    +0.140 C 
BRANCH   7   8
ATOM      8  C   UNL     1      -1.416  -2.035  -0.119  0.00  0.00    +0.129 A 
ATOM      9  N   UNL     1      -2.014  -2.900   0.743  0.00  0.00    -0.340 N 
ATOM     10  H   UNL     1      -2.518  -2.663   1.538  0.00  0.00    +0.167 HD
ATOM     11  C   UNL     1      -1.771  -4.177   0.279  0.00  0.00    +0.066 A 
ATOM     12  C   UNL     1      -2.115  -5.448   0.719  0.00  0.00    +0.028 A 
ATOM     13  C   UNL     1      -1.702  -6.553   0.006  0.00  0.00    +0.002 A 
ATOM     14  C   UNL     1      -0.947  -6.402  -1.149  0.00  0.00    +0.002 A 
ATOM     15  C   UNL     1      -0.599  -5.160  -1.597  0.00  0.00    +0.030 A 
ATOM     16  C   UNL     1      -1.007  -4.025  -0.890  0.00  0.00    +0.089 A 
ATOM     17  N   UNL     1      -0.831  -2.692  -1.078  0.00  0.00    -0.231 NA
ENDBRANCH   7   8
BRANCH   7  19
ATOM     18  C   UNL     1      -0.019   1.526   0.010  0.00  0.00    +0.006 C 
ATOM     19  C   UNL     1       0.002  -0.004   0.002  0.00  0.00    +0.027 C 
ENDBRANCH   7  19
ENDBRANCH   1   7
BRANCH   4  20
ATOM     20  C   UNL     1      -3.893   2.703   2.698  0.00  0.00    +0.110 C 
BRANCH  20  21
ATOM     21  C   UNL     1      -4.490   2.837   4.100  0.00  0.00    +0.056 C 
BRANCH  21  22
ATOM     22  C   UNL     1      -5.141   4.188   4.242  0.00  0.00    -0.021 A 
ATOM     23  C   UNL     1      -4.581   5.294   4.757  0.00  0.00    +0.087 A 
ATOM     24  N   UNL     1      -5.475   6.330   4.722  0.00  0.00    -0.360 N 
ATOM     25  H   UNL     1      -5.298   7.229   5.039  0.00  0.00    +0.165 HD
ATOM     26  C   UNL     1      -6.662   5.904   4.170  0.00  0.00    +0.047 A 
ATOM     27  C   UNL     1      -6.504   4.546   3.839  0.00  0.00    +0.003 A 
ATOM     28  C   UNL     1      -7.557   3.845   3.250  0.00  0.00    +0.010 A 
ATOM     29  C   UNL     1      -8.738   4.483   2.994  0.00  0.00    +0.001 A 
ATOM     30  C   UNL     1      -8.898   5.824   3.314  0.00  0.00    +0.002 A 
ATOM     31  C   UNL     1      -7.875   6.533   3.905  0.00  0.00    +0.026 A 
ENDBRANCH  21  22
ENDBRANCH  20  21
ENDBRANCH   4  20
TORSDOF 6
