REMARK  Name = ZINC24703838
REMARK  6 active torsions:
REMARK  status: ('A' for Active; 'I' for Inactive)
REMARK    1  A    between atoms: C_1  and  N_2
REMARK    2  A    between atoms: C_3  and  C_5
REMARK    3  A    between atoms: C_16  and  C_18
REMARK    4  A    between atoms: C_18  and  C_19
REMARK    5  A    between atoms: C_19  and  C_20
REMARK    6  A    between atoms: C_23  and  C_26
REMARK                            x       y       z     vdW  Elec       q    Type
REMARK                         _______ _______ _______ _____ _____    ______ ____
ROOT
ATOM      1  C   UNL     1       2.264   8.193   3.677  0.00  0.00    +0.276 C 
ATOM      2  C   UNL     1       1.193   7.740   2.674  0.00  0.00    +0.168 C 
ATOM      3  N   UNL     1       1.218   6.268   2.632  0.00  0.00    -0.264 N 
ATOM      4  C   UNL     1       1.343   5.581   3.852  0.00  0.00    +0.078 A 
ATOM      5  C   UNL     1       1.098   4.220   3.913  0.00  0.00    +0.027 A 
ATOM      6  C   UNL     1       1.232   3.548   5.114  0.00  0.00    +0.002 A 
ATOM      7  C   UNL     1       1.614   4.234   6.252  0.00  0.00    +0.004 A 
ATOM      8  C   UNL     1       1.865   5.592   6.196  0.00  0.00    +0.047 A 
ATOM      9  C   UNL     1       1.732   6.274   4.996  0.00  0.00    +0.143 A 
ATOM     10  O   UNL     1       1.977   7.610   4.951  0.00  0.00    -0.476 OA
ATOM     11  C   UNL     1       1.117   5.602   1.464  0.00  0.00    +0.220 C 
ATOM     12  O   UNL     1       1.063   4.390   1.459  0.00  0.00    -0.275 OA
ENDROOT
BRANCH   1  15
ATOM     13  C   UNL     1       2.555  11.917   2.844  0.00  0.00    +0.128 C 
ATOM     14  N   UNL     1       2.574  10.457   2.731  0.00  0.00    -0.315 N 
ATOM     15  C   UNL     1       2.244   9.695   3.793  0.00  0.00    +0.255 C 
ATOM     16  O   UNL     1       1.932  10.219   4.841  0.00  0.00    -0.272 OA
ATOM     17  H   UNL     1       2.857   9.982   1.780  0.00  0.00    +0.148 HD
ENDBRANCH   1  15
BRANCH  11  18
ATOM     18  C   UNL     1       1.073   6.363   0.164  0.00  0.00    +0.101 C 
BRANCH  18  19
ATOM     19  C   UNL     1       1.084   5.377  -1.005  0.00  0.00    +0.044 C 
BRANCH  19  20
ATOM     20  C   UNL     1       1.040   6.138  -2.305  0.00  0.00    -0.047 A 
ATOM     21  C   UNL     1       2.219   6.522  -2.918  0.00  0.00    +0.005 A 
ATOM     22  C   UNL     1       2.186   7.219  -4.109  0.00  0.00    +0.019 A 
ATOM     23  C   UNL     1       0.959   7.537  -4.694  0.00  0.00    +0.052 A 
ATOM     24  C   UNL     1      -0.227   7.146  -4.069  0.00  0.00    +0.019 A 
ATOM     25  C   UNL     1      -0.180   6.449  -2.880  0.00  0.00    +0.005 A 
BRANCH  23  26
ATOM     26  C   UNL     1       0.917   8.261  -5.929  0.00  0.00    +0.099 C 
ATOM     27  N   UNL     1       0.883   8.835  -6.908  0.00  0.00    -0.191 NA
ENDBRANCH  23  26
ENDBRANCH  19  20
ENDBRANCH  18  19
ENDBRANCH  11  18
TORSDOF 5
