REMARK  Name = ZINC13083011
REMARK  8 active torsions:
REMARK  status: ('A' for Active; 'I' for Inactive)
REMARK    1  A    between atoms: C_1  and  C_2
REMARK    2  A    between atoms: C_7  and  N_8
REMARK    3  A    between atoms: N_8  and  C_9
REMARK    4  A    between atoms: C_9  and  C_10
REMARK    5  A    between atoms: N_12  and  C_13
REMARK    6  A    between atoms: C_18  and  C_20
REMARK    7  A    between atoms: C_20  and  C_32
REMARK    8  A    between atoms: C_30  and  C_31
REMARK                            x       y       z     vdW  Elec       q    Type
REMARK                         _______ _______ _______ _____ _____    ______ ____
ROOT
ATOM      1  N   UNL     1      -0.482  -0.472   3.525  0.00  0.00    -0.261 N 
ATOM      2  C   UNL     1      -1.708   0.078   3.423  0.00  0.00    +0.244 C 
ATOM      3  O   UNL     1      -2.064   0.917   4.223  0.00  0.00    -0.273 OA
ENDROOT
BRANCH   2   4
ATOM      4  C   UNL     1      -2.636  -0.350   2.316  0.00  0.00    +0.122 C 
ATOM      5  C   UNL     1      -4.069   0.087   2.646  0.00  0.00    +0.133 C 
ATOM      6  C   UNL     1      -4.141   1.592   2.548  0.00  0.00    +0.240 C 
ATOM      7  O   UNL     1      -4.864   2.217   3.302  0.00  0.00    -0.274 OA
ATOM      8  N   UNL     1      -3.419   2.231   1.645  0.00  0.00    -0.165 NA
ATOM      9  C   UNL     1      -2.605   1.578   0.807  0.00  0.00    +0.122 C 
ATOM     10  N   UNL     1      -2.231   0.290   1.057  0.00  0.00    -0.278 N 
ATOM     11  C   UNL     1      -1.480  -0.398   0.163  0.00  0.00    +0.077 C 
ATOM     12  C   UNL     1      -1.009   0.206  -0.955  0.00  0.00    +0.016 C 
ATOM     13  C   UNL     1      -1.311   1.550  -1.204  0.00  0.00    +0.008 C 
ATOM     14  C   UNL     1      -2.105   2.233  -0.327  0.00  0.00    -0.013 C 
ATOM     15  C   UNL     1      -2.441   3.681  -0.577  0.00  0.00    +0.047 C 
ATOM     16  C   UNL     1      -2.582  -1.871   2.160  0.00  0.00    +0.042 C 
ENDBRANCH   2   4
BRANCH   1  23
ATOM     17  C   UNL     1      -0.905  -3.187   4.263  0.00  0.00    +0.045 C 
ATOM     18  C   UNL     1      -0.274  -2.808   2.949  0.00  0.00    -0.029 A 
ATOM     19  C   UNL     1       0.113  -3.791   2.058  0.00  0.00    +0.005 A 
ATOM     20  C   UNL     1       0.692  -3.443   0.852  0.00  0.00    +0.000 A 
ATOM     21  C   UNL     1       0.886  -2.112   0.532  0.00  0.00    +0.002 A 
ATOM     22  C   UNL     1       0.501  -1.125   1.417  0.00  0.00    +0.024 A 
ATOM     23  C   UNL     1      -0.086  -1.470   2.628  0.00  0.00    +0.040 A 
ENDBRANCH   1  23
BRANCH   1  24
ATOM     24  C   UNL     1       0.437  -0.024   4.575  0.00  0.00    +0.209 C 
BRANCH  24  25
ATOM     25  C   UNL     1       1.190   1.192   4.099  0.00  0.00    +0.231 C 
ATOM     26  O   UNL     1       0.914   1.696   3.032  0.00  0.00    -0.274 OA
ATOM     27  N   UNL     1       2.169   1.718   4.861  0.00  0.00    -0.311 N 
ATOM     28  H   UNL     1       2.390   1.315   5.715  0.00  0.00    +0.149 HD
BRANCH  27  29
ATOM     29  C   UNL     1       2.901   2.900   4.398  0.00  0.00    +0.073 C 
ATOM     30  C   UNL     1       4.103   2.472   3.531  0.00  0.00    +0.022 C 
ATOM     31  C   UNL     1       5.217   3.483   3.901  0.00  0.00    +0.002 C 
ATOM     32  C   UNL     1       5.010   3.678   5.423  0.00  0.00    +0.002 C 
ATOM     33  C   UNL     1       3.478   3.667   5.601  0.00  0.00    +0.022 C 
ENDBRANCH  27  29
ENDBRANCH  24  25
ENDBRANCH   1  24
TORSDOF 5
