REMARK  Name = ZINC60015824
REMARK  11 active torsions:
REMARK  status: ('A' for Active; 'I' for Inactive)
REMARK    1  A    between atoms: C_1  and  C_2
REMARK    2  A    between atoms: C_5  and  C_36
REMARK    3  A    between atoms: N_8  and  C_10
REMARK    4  A    between atoms: C_10  and  C_11
REMARK    5  A    between atoms: C_11  and  C_13
REMARK    6  A    between atoms: C_11  and  N_14
REMARK    7  A    between atoms: C_15  and  C_17
REMARK    8  A    between atoms: C_17  and  S_18
REMARK    9  A    between atoms: S_18  and  C_19
REMARK   10  A    between atoms: N_32  and  C_33
REMARK   11  A    between atoms: C_33  and  C_34
REMARK                            x       y       z     vdW  Elec       q    Type
REMARK                         _______ _______ _______ _____ _____    ______ ____
ROOT
ATOM      1  S   UNL     1       5.833   1.441   0.184  0.00  0.00    -0.076 S 
ENDROOT
BRANCH   1   2
ATOM      2  C   UNL     1       6.431   0.984  -1.408  0.00  0.00    +0.198 A 
ATOM      3  N   UNL     1       5.954   0.026  -2.165  0.00  0.00    -0.120 NA
ATOM      4  N   UNL     1       6.707  -0.012  -3.344  0.00  0.00    -0.109 NA
ATOM      5  C   UNL     1       7.625   0.926  -3.273  0.00  0.00    +0.240 A 
ATOM      6  N   UNL     1       7.474   1.569  -2.075  0.00  0.00    -0.256 N 
ATOM      7  C   UNL     1       8.314   2.624  -1.726  0.00  0.00    +0.064 A 
ATOM      8  C   UNL     1       8.171   3.280  -0.513  0.00  0.00    +0.027 A 
ATOM      9  C   UNL     1       9.018   4.323  -0.192  0.00  0.00    +0.002 A 
ATOM     10  C   UNL     1      10.011   4.721  -1.072  0.00  0.00    +0.001 A 
ATOM     11  C   UNL     1      10.168   4.080  -2.283  0.00  0.00    +0.015 A 
ATOM     12  C   UNL     1       9.319   3.026  -2.619  0.00  0.00    +0.064 A 
ATOM     13  C   UNL     1       9.454   2.315  -3.903  0.00  0.00    +0.263 A 
ATOM     14  O   UNL     1      10.314   2.636  -4.701  0.00  0.00    -0.267 OA
ATOM     15  N   UNL     1       8.613   1.296  -4.174  0.00  0.00    -0.273 N 
BRANCH  15  16
ATOM     16  C   UNL     1       8.732   0.581  -5.447  0.00  0.00    +0.155 C 
BRANCH  16  17
ATOM     17  C   UNL     1       7.877   1.259  -6.486  0.00  0.00    -0.013 C 
ATOM     18  C   UNL     1       8.410   1.655  -7.615  0.00  0.00    +0.005 C 
ENDBRANCH  16  17
ENDBRANCH  15  16
ENDBRANCH   1   2
BRANCH   1  19
ATOM     19  C   UNL     1       4.462   0.292   0.485  0.00  0.00    +0.173 C 
BRANCH  19  21
ATOM     20  N   UNL     1       2.811  -0.157   2.272  0.00  0.00    -0.314 N 
ATOM     21  C   UNL     1       3.852   0.578   1.833  0.00  0.00    +0.223 C 
ATOM     22  O   UNL     1       4.299   1.470   2.523  0.00  0.00    -0.275 OA
ATOM     23  H   UNL     1       2.454  -0.870   1.720  0.00  0.00    +0.149 HD
BRANCH  20  24
ATOM     24  C   UNL     1       2.219   0.122   3.582  0.00  0.00    +0.053 C 
ATOM     25  C   UNL     1       2.982  -0.649   4.661  0.00  0.00    +0.026 C 
BRANCH  24  26
ATOM     26  C   UNL     1       0.753  -0.316   3.583  0.00  0.00    -0.057 C 
BRANCH  26  32
ATOM     27  C   UNL     1      -1.275   0.115  -0.093  0.00  0.00    +0.005 C 
ATOM     28  C   UNL     1      -2.038   0.444   1.192  0.00  0.00    -0.031 C 
ATOM     29  C   UNL     1      -2.095   1.963   1.379  0.00  0.00    +0.003 C 
ATOM     30  C   UNL     1      -0.670   2.499   1.549  0.00  0.00    -0.031 C 
ATOM     31  C   UNL     1      -0.004   1.794   2.732  0.00  0.00    -0.076 C 
ATOM     32  N   UNL     1       0.043   0.348   2.481  0.00  0.00    +0.381 N 
ATOM     33  C   UNL     1      -1.322  -0.186   2.388  0.00  0.00    -0.076 C 
ATOM     34  C   UNL     1      -0.720   4.005   1.814  0.00  0.00    +0.005 C 
ATOM     35  H   UNL     1       0.531   0.174   1.616  0.00  0.00    -0.082 HD
ENDBRANCH  26  32
ENDBRANCH  24  26
ENDBRANCH  20  24
ENDBRANCH  19  21
ENDBRANCH   1  19
TORSDOF 8
