REMARK  Name = ZINC36181757
REMARK  13 active torsions:
REMARK  status: ('A' for Active; 'I' for Inactive)
REMARK    1  A    between atoms: C_1  and  C_2
REMARK    2  A    between atoms: C_4  and  C_26
REMARK    3  A    between atoms: C_7  and  C_17
REMARK    4  A    between atoms: C_9  and  C_16
REMARK    5  A    between atoms: C_11  and  C_12
REMARK    6  A    between atoms: C_11  and  O_15
REMARK    7  A    between atoms: C_12  and  C_13
REMARK    8  A    between atoms: C_20  and  N_23
REMARK    9  A    between atoms: N_23  and  C_24
REMARK   10  A    between atoms: N_23  and  C_25
REMARK   11  A    between atoms: C_29  and  N_32
REMARK   12  A    between atoms: N_32  and  C_33
REMARK   13  A    between atoms: N_32  and  C_34
REMARK                            x       y       z     vdW  Elec       q    Type
REMARK                         _______ _______ _______ _____ _____    ______ ____
ROOT
ATOM      1  C   UNL     1      -0.359   1.261  -0.635  0.00  0.00    +0.009 C 
ATOM      2  C   UNL     1      -0.097  -0.239  -0.480  0.00  0.00    +0.008 C 
ATOM      3  C   UNL     1       0.807  -0.720  -1.617  0.00  0.00    -0.034 C 
ATOM      4  N   UNL     1       2.083   0.005  -1.573  0.00  0.00    +0.389 N 
ATOM      5  C   UNL     1       2.785  -0.299  -0.321  0.00  0.00    -0.034 C 
ATOM      6  C   UNL     1       1.957   0.198   0.867  0.00  0.00    +0.008 C 
ATOM      7  C   UNL     1       0.594  -0.502   0.861  0.00  0.00    +0.072 C 
ATOM      8  C   UNL     1       2.691  -0.121   2.171  0.00  0.00    +0.009 C 
ATOM      9  H   UNL     1       2.655  -0.275  -2.355  0.00  0.00    -0.084 HD
ATOM     10  H   UNL     1       1.906   0.997  -1.627  0.00  0.00    -0.084 HD
ENDROOT
BRANCH   5  11
ATOM     11  C   UNL     1       4.127   0.388  -0.318  0.00  0.00    -0.061 A 
ATOM     12  C   UNL     1       4.244   1.673  -0.814  0.00  0.00    +0.004 A 
ATOM     13  C   UNL     1       5.472   2.305  -0.813  0.00  0.00    +0.023 A 
ATOM     14  C   UNL     1       6.590   1.648  -0.314  0.00  0.00    +0.029 A 
ATOM     15  C   UNL     1       6.468   0.357   0.182  0.00  0.00    +0.023 A 
ATOM     16  C   UNL     1       5.236  -0.267   0.184  0.00  0.00    +0.004 A 
BRANCH  14  17
ATOM     17  N   UNL     1       7.833   2.284  -0.313  0.00  0.00    -0.336 N 
ATOM     18  C   UNL     1       7.987   3.593  -0.952  0.00  0.00    +0.129 C 
ATOM     19  C   UNL     1       8.983   1.642   0.328  0.00  0.00    +0.129 C 
ENDBRANCH  14  17
ENDBRANCH   5  11
BRANCH   3  20
ATOM     20  C   UNL     1       0.130  -0.463  -2.939  0.00  0.00    -0.061 A 
ATOM     21  C   UNL     1       0.165   0.802  -3.498  0.00  0.00    +0.004 A 
ATOM     22  C   UNL     1      -0.454   1.041  -4.709  0.00  0.00    +0.023 A 
ATOM     23  C   UNL     1      -1.113   0.009  -5.366  0.00  0.00    +0.029 A 
ATOM     24  C   UNL     1      -1.146  -1.260  -4.802  0.00  0.00    +0.023 A 
ATOM     25  C   UNL     1      -0.520  -1.493  -3.593  0.00  0.00    +0.004 A 
BRANCH  23  26
ATOM     26  N   UNL     1      -1.740   0.247  -6.591  0.00  0.00    -0.336 N 
ATOM     27  C   UNL     1      -1.600   1.551  -7.244  0.00  0.00    +0.129 C 
ATOM     28  C   UNL     1      -2.539  -0.806  -7.222  0.00  0.00    +0.129 C 
ENDBRANCH  23  26
ENDBRANCH   3  20
BRANCH   7  29
ATOM     29  O   UNL     1       0.778  -1.908   1.036  0.00  0.00    -0.388 OA
ATOM     30  H   UNL     1       1.212  -2.147   1.867  0.00  0.00    +0.210 HD
ENDBRANCH   7  29
BRANCH   7  31
ATOM     31  C   UNL     1      -0.270   0.048   1.998  0.00  0.00    +0.061 C 
BRANCH  31  32
ATOM     32  C   UNL     1      -1.607  -0.646   1.994  0.00  0.00    -0.032 C 
ATOM     33  C   UNL     1      -2.017  -1.283   3.063  0.00  0.00    +0.004 C 
ENDBRANCH  31  32
ENDBRANCH   7  31
TORSDOF 7
