REMARK  Name = ZINC36735953
REMARK  6 active torsions:
REMARK  status: ('A' for Active; 'I' for Inactive)
REMARK    1  A    between atoms: C_1  and  C_2
REMARK    2  A    between atoms: C_3  and  N_9
REMARK    3  A    between atoms: C_4  and  C_8
REMARK    4  A    between atoms: N_9  and  C_10
REMARK    5  A    between atoms: C_10  and  C_12
REMARK    6  A    between atoms: C_10  and  C_13
REMARK                            x       y       z     vdW  Elec       q    Type
REMARK                         _______ _______ _______ _____ _____    ______ ____
ROOT
ATOM      1  C   UNL     1       0.736  -0.768  -3.290  0.00  0.00    +0.098 C 
ATOM      2  C   UNL     1       2.251  -0.978  -3.289  0.00  0.00    +0.033 C 
ENDROOT
BRANCH   1   3
ATOM      3  C   UNL     1       0.341   0.037  -4.501  0.00  0.00    -0.024 A 
ATOM      4  C   UNL     1       0.503   1.410  -4.498  0.00  0.00    +0.009 A 
ATOM      5  C   UNL     1       0.143   2.156  -5.606  0.00  0.00    +0.050 A 
ATOM      6  C   UNL     1      -0.380   1.522  -6.720  0.00  0.00    +0.162 A 
ATOM      7  C   UNL     1      -0.543   0.144  -6.723  0.00  0.00    +0.162 A 
ATOM      8  C   UNL     1      -0.177  -0.600  -5.614  0.00  0.00    +0.055 A 
ATOM      9  O   UNL     1      -1.059  -0.472  -7.826  0.00  0.00    -0.488 OA
ATOM     10  C   UNL     1      -2.434  -0.204  -8.106  0.00  0.00    +0.232 C 
ATOM     11  C   UNL     1      -2.583   1.088  -8.895  0.00  0.00    +0.082 C 
ATOM     12  C   UNL     1      -2.138   2.306  -8.100  0.00  0.00    +0.232 C 
ATOM     13  O   UNL     1      -0.738   2.245  -7.821  0.00  0.00    -0.488 OA
ENDBRANCH   1   3
BRANCH   1  14
ATOM     14  N   UNL     1       0.342  -0.049  -2.076  0.00  0.00    -0.334 N 
ATOM     15  H   UNL     1       0.410   0.918  -2.041  0.00  0.00    +0.147 HD
BRANCH  14  18
ATOM     16  C   UNL     1      -1.585   1.093   0.034  0.00  0.00    +0.067 C 
ATOM     17  C   UNL     1      -0.984  -0.288  -0.012  0.00  0.00    +0.054 A 
ATOM     18  C   UNL     1      -0.135  -0.761  -0.959  0.00  0.00    +0.071 A 
ATOM     19  C   UNL     1       0.183  -2.087  -0.628  0.00  0.00    +0.081 A 
ATOM     20  N   UNL     1      -0.449  -2.399   0.474  0.00  0.00    -0.177 NA
ATOM     21  N   UNL     1      -1.188  -1.284   0.890  0.00  0.00    -0.280 N 
ATOM     22  H   UNL     1      -1.749  -1.233   1.680  0.00  0.00    +0.189 HD
ATOM     23  C   UNL     1       1.097  -2.996  -1.409  0.00  0.00    +0.069 C 
ENDBRANCH  14  18
ENDBRANCH   1  14
TORSDOF 3
