REMARK  Name = ZINC43119863
REMARK  12 active torsions:
REMARK  status: ('A' for Active; 'I' for Inactive)
REMARK    1  A    between atoms: C_1  and  C_2
REMARK    2  A    between atoms: C_5  and  C_34
REMARK    3  A    between atoms: C_6  and  C_8
REMARK    4  A    between atoms: C_9  and  C_14
REMARK    5  A    between atoms: C_14  and  N_15
REMARK    6  A    between atoms: N_18  and  C_25
REMARK    7  A    between atoms: C_19  and  C_22
REMARK    8  A    between atoms: C_22  and  C_23
REMARK    9  A    between atoms: C_23  and  O_24
REMARK   10  A    between atoms: N_28  and  C_31
REMARK   11  A    between atoms: C_31  and  C_32
REMARK   12  A    between atoms: C_31  and  C_33
REMARK                            x       y       z     vdW  Elec       q    Type
REMARK                         _______ _______ _______ _____ _____    ______ ____
ROOT
ATOM      1  N   UNL     1      -1.621  -0.395   3.767  0.00  0.00    -0.295 NA
ATOM      2  C   UNL     1      -2.354  -0.674   2.525  0.00  0.00    +0.100 C 
ATOM      3  C   UNL     1      -3.849  -0.435   2.753  0.00  0.00    +0.100 C 
ATOM      4  N   UNL     1      -4.060   0.954   3.185  0.00  0.00    -0.294 NA
ATOM      5  C   UNL     1      -3.326   1.233   4.427  0.00  0.00    +0.073 C 
ATOM      6  C   UNL     1      -1.832   0.994   4.199  0.00  0.00    +0.103 C 
ENDROOT
BRANCH   4   7
ATOM      7  C   UNL     1      -5.491   1.245   3.342  0.00  0.00    +0.054 C 
ATOM      8  C   UNL     1      -6.114   0.239   4.315  0.00  0.00    +0.000 C 
ATOM      9  C   UNL     1      -7.619   0.498   4.412  0.00  0.00    -0.077 C 
ATOM     10  N   UNL     1      -8.233   0.344   3.088  0.00  0.00    +0.381 N 
ATOM     11  C   UNL     1      -7.692   1.352   2.168  0.00  0.00    -0.077 C 
ATOM     12  C   UNL     1      -6.190   1.127   1.984  0.00  0.00    +0.000 C 
ATOM     13  H   UNL     1      -8.032  -0.578   2.730  0.00  0.00    -0.081 HD
BRANCH  10  14
ATOM     14  C   UNL     1      -9.687   0.516   3.201  0.00  0.00    -0.075 C 
ATOM     15  C   UNL     1     -10.328   0.357   1.821  0.00  0.00    -0.014 C 
ATOM     16  C   UNL     1     -10.254  -0.540   4.152  0.00  0.00    -0.014 C 
ENDBRANCH  10  14
ENDBRANCH   4   7
BRANCH   1  17
ATOM     17  C   UNL     1      -0.190  -0.685   3.610  0.00  0.00    +0.123 C 
BRANCH  17  19
ATOM     18  C   UNL     1      -0.144  -3.179   4.342  0.00  0.00    +0.097 A 
ATOM     19  C   UNL     1       0.001  -2.162   3.378  0.00  0.00    +0.012 A 
ATOM     20  C   UNL     1       0.340  -2.746   2.208  0.00  0.00    +0.110 A 
ATOM     21  N   UNL     1       0.410  -4.079   2.413  0.00  0.00    -0.284 N 
ATOM     22  H   UNL     1       0.634  -4.747   1.746  0.00  0.00    +0.188 HD
ATOM     23  N   UNL     1       0.109  -4.330   3.758  0.00  0.00    -0.174 NA
BRANCH  18  29
ATOM     24  C   UNL     1      -1.641  -0.188   8.050  0.00  0.00    +0.044 C 
ATOM     25  C   UNL     1      -1.230  -1.550   7.552  0.00  0.00    -0.050 A 
ATOM     26  C   UNL     1      -1.196  -2.623   8.425  0.00  0.00    +0.003 A 
ATOM     27  C   UNL     1      -0.820  -3.875   7.975  0.00  0.00    +0.004 A 
ATOM     28  C   UNL     1      -0.478  -4.061   6.650  0.00  0.00    -0.041 A 
ATOM     29  C   UNL     1      -0.511  -2.984   5.767  0.00  0.00    +0.006 A 
ATOM     30  C   UNL     1      -0.895  -1.726   6.225  0.00  0.00    +0.013 A 
ATOM     31  C   UNL     1      -0.069  -5.426   6.161  0.00  0.00    +0.044 C 
ENDBRANCH  18  29
ENDBRANCH  17  19
ENDBRANCH   1  17
BRANCH   5  32
ATOM     32  C   UNL     1      -3.554   2.689   4.838  0.00  0.00    +0.048 C 
BRANCH  32  33
ATOM     33  C   UNL     1      -2.949   2.929   6.223  0.00  0.00    +0.157 C 
BRANCH  33  34
ATOM     34  O   UNL     1      -3.271   4.251   6.661  0.00  0.00    -0.395 OA
ATOM     35  H   UNL     1      -2.918   4.472   7.534  0.00  0.00    +0.209 HD
ENDBRANCH  33  34
ENDBRANCH  32  33
ENDBRANCH   5  32
TORSDOF 8
