REMARK  Name = ZINC34791174
REMARK  12 active torsions:
REMARK  status: ('A' for Active; 'I' for Inactive)
REMARK    1  A    between atoms: C_1  and  C_2
REMARK    2  A    between atoms: C_2  and  N_3
REMARK    3  A    between atoms: C_6  and  C_11
REMARK    4  A    between atoms: C_15  and  O_17
REMARK    5  A    between atoms: O_17  and  C_18
REMARK    6  A    between atoms: N_26  and  C_28
REMARK    7  A    between atoms: C_28  and  C_30
REMARK    8  A    between atoms: C_28  and  C_33
REMARK    9  A    between atoms: C_30  and  C_31
REMARK   10  A    between atoms: C_30  and  C_32
REMARK   11  A    between atoms: N_35  and  C_36
REMARK   12  A    between atoms: C_36  and  C_37
REMARK                            x       y       z     vdW  Elec       q    Type
REMARK                         _______ _______ _______ _____ _____    ______ ____
ROOT
ATOM      1  N   UNL     1      -0.721  -1.223  -1.511  0.00  0.00    -0.257 N 
ATOM      2  C   UNL     1      -1.177  -1.386  -0.234  0.00  0.00    +0.042 C 
ATOM      3  C   UNL     1      -2.365  -1.973   0.014  0.00  0.00    +0.058 C 
ATOM      4  C   UNL     1      -3.180  -2.445  -1.174  0.00  0.00    +0.142 C 
ATOM      5  N   UNL     1      -2.601  -2.222  -2.509  0.00  0.00    -0.288 N 
ATOM      6  C   UNL     1      -1.400  -1.616  -2.596  0.00  0.00    +0.307 C 
ATOM      7  O   UNL     1      -0.916  -1.424  -3.695  0.00  0.00    -0.252 OA
ATOM      8  C   UNL     1      -2.607  -2.023   1.402  0.00  0.00    +0.247 C 
ATOM      9  O   UNL     1      -3.606  -2.500   1.910  0.00  0.00    -0.270 OA
ATOM     10  N   UNL     1      -1.591  -1.475   2.092  0.00  0.00    -0.280 N 
ATOM     11  C   UNL     1      -0.592  -1.022   1.112  0.00  0.00    +0.160 C 
ATOM     12  H   UNL     1      -3.074  -2.502  -3.308  0.00  0.00    +0.151 HD
ENDROOT
BRANCH   4  13
ATOM     13  C   UNL     1      -4.516  -1.751  -1.126  0.00  0.00    -0.019 A 
ATOM     14  C   UNL     1      -4.637  -0.452  -1.585  0.00  0.00    +0.006 A 
ATOM     15  C   UNL     1      -5.862   0.187  -1.543  0.00  0.00    +0.004 A 
ATOM     16  C   UNL     1      -6.969  -0.470  -1.042  0.00  0.00    +0.046 A 
ATOM     17  C   UNL     1      -6.851  -1.773  -0.580  0.00  0.00    +0.129 A 
ATOM     18  C   UNL     1      -5.621  -2.414  -0.628  0.00  0.00    +0.052 A 
BRANCH  17  19
ATOM     19  O   UNL     1      -7.938  -2.422  -0.086  0.00  0.00    -0.456 OA
BRANCH  19  20
ATOM     20  C   UNL     1      -7.777  -3.701   0.343  0.00  0.00    +0.128 A 
ATOM     21  C   UNL     1      -7.373  -3.951   1.647  0.00  0.00    +0.046 A 
ATOM     22  C   UNL     1      -7.210  -5.253   2.080  0.00  0.00    +0.004 A 
ATOM     23  C   UNL     1      -7.449  -6.305   1.216  0.00  0.00    +0.000 A 
ATOM     24  C   UNL     1      -7.851  -6.059  -0.084  0.00  0.00    +0.004 A 
ATOM     25  C   UNL     1      -8.021  -4.759  -0.520  0.00  0.00    +0.046 A 
ENDBRANCH  19  20
ENDBRANCH  17  19
ENDBRANCH   4  13
BRANCH   1  27
ATOM     26  C   UNL     1       0.384   0.935  -1.833  0.00  0.00    +0.025 C 
ATOM     27  C   UNL     1       0.580  -0.577  -1.705  0.00  0.00    +0.111 C 
ENDBRANCH   1  27
BRANCH  10  28
ATOM     28  C   UNL     1      -1.496  -1.352   3.549  0.00  0.00    +0.165 C 
BRANCH  28  29
ATOM     29  C   UNL     1      -1.544  -2.723   4.173  0.00  0.00    +0.234 C 
ATOM     30  O   UNL     1      -1.945  -3.669   3.529  0.00  0.00    -0.274 OA
ATOM     31  N   UNL     1      -1.140  -2.897   5.447  0.00  0.00    -0.310 N 
ATOM     32  H   UNL     1      -0.890  -2.131   5.987  0.00  0.00    +0.149 HD
BRANCH  31  33
ATOM     33  C   UNL     1      -1.078  -4.245   6.018  0.00  0.00    +0.131 C 
BRANCH  33  34
ATOM     34  C   UNL     1      -0.600  -4.165   7.445  0.00  0.00    -0.016 C 
ATOM     35  C   UNL     1      -1.315  -4.696   8.406  0.00  0.00    +0.005 C 
ENDBRANCH  33  34
ENDBRANCH  31  33
ENDBRANCH  28  29
BRANCH  28  36
ATOM     36  C   UNL     1      -2.668  -0.515   4.067  0.00  0.00    +0.012 C 
ATOM     37  C   UNL     1      -2.552  -0.360   5.585  0.00  0.00    +0.009 C 
ATOM     38  C   UNL     1      -2.638   0.866   3.410  0.00  0.00    +0.009 C 
ENDBRANCH  28  36
ENDBRANCH  10  28
TORSDOF 9
