REMARK  Name = ZINC10001353
REMARK  11 active torsions:
REMARK  status: ('A' for Active; 'I' for Inactive)
REMARK    1  A    between atoms: C_1  and  C_2
REMARK    2  A    between atoms: C_2  and  C_3
REMARK    3  A    between atoms: C_2  and  C_4
REMARK    4  A    between atoms: C_4  and  C_6
REMARK    5  A    between atoms: C_4  and  N_22
REMARK    6  A    between atoms: N_8  and  N_9
REMARK    7  A    between atoms: C_10  and  C_11
REMARK    8  A    between atoms: C_16  and  O_17
REMARK    9  A    between atoms: O_17  and  C_18
REMARK   10  A    between atoms: C_18  and  C_19
REMARK   11  A    between atoms: C_23  and  C_25
REMARK                            x       y       z     vdW  Elec       q    Type
REMARK                         _______ _______ _______ _____ _____    ______ ____
ROOT
ATOM      1  C   UNL     1      -0.909   2.089  -1.132  0.00  0.00    +0.163 C 
ENDROOT
BRANCH   1   2
ATOM      2  C   UNL     1      -0.510   1.457  -2.440  0.00  0.00    +0.253 C 
ATOM      3  O   UNL     1      -1.340   0.884  -3.115  0.00  0.00    -0.272 OA
ATOM      4  N   UNL     1       0.768   1.528  -2.861  0.00  0.00    -0.205 N 
ATOM      5  H   UNL     1       1.417   2.042  -2.356  0.00  0.00    +0.177 HD
BRANCH   4   6
ATOM      6  N   UNL     1       1.160   0.859  -4.028  0.00  0.00    -0.188 NA
ATOM      7  C   UNL     1       2.391   0.927  -4.433  0.00  0.00    +0.142 C 
BRANCH   7   8
ATOM      8  C   UNL     1       2.803   0.223  -5.660  0.00  0.00    +0.037 A 
ATOM      9  C   UNL     1       4.126   0.299  -6.103  0.00  0.00    +0.028 A 
ATOM     10  C   UNL     1       4.506  -0.367  -7.250  0.00  0.00    +0.019 A 
ATOM     11  C   UNL     1       3.579  -1.102  -7.971  0.00  0.00    +0.019 A 
ATOM     12  C   UNL     1       2.266  -1.179  -7.546  0.00  0.00    +0.047 A 
ATOM     13  C   UNL     1       1.869  -0.521  -6.393  0.00  0.00    +0.131 A 
ATOM     14 BR   UNL     1       6.298  -0.271  -7.845  0.00  0.00    -0.050 Br
BRANCH  13  15
ATOM     15  O   UNL     1       0.579  -0.598  -5.975  0.00  0.00    -0.479 OA
BRANCH  15  16
ATOM     16  C   UNL     1      -0.317  -1.375  -6.772  0.00  0.00    +0.317 C 
BRANCH  16  17
ATOM     17  C   UNL     1      -1.661  -1.344  -6.171  0.00  0.00    -0.065 C 
ATOM     18  C   UNL     1      -2.732  -1.320  -5.692  0.00  0.00    +0.007 C 
ENDBRANCH  16  17
ENDBRANCH  15  16
ENDBRANCH  13  15
ENDBRANCH   7   8
ENDBRANCH   4   6
ENDBRANCH   1   2
BRANCH   1  19
ATOM     19  N   UNL     1      -2.343   2.390  -1.152  0.00  0.00    -0.300 N 
ATOM     20  C   UNL     1      -2.837   3.369  -0.368  0.00  0.00    +0.245 C 
ATOM     21  O   UNL     1      -2.093   4.003   0.355  0.00  0.00    -0.270 OA
ATOM     22  H   UNL     1      -2.936   1.885  -1.729  0.00  0.00    +0.150 HD
BRANCH  20  23
ATOM     23  C   UNL     1      -4.281   3.672  -0.389  0.00  0.00    +0.040 A 
ATOM     24  C   UNL     1      -5.137   2.950  -1.224  0.00  0.00    +0.017 A 
ATOM     25  C   UNL     1      -6.485   3.230  -1.237  0.00  0.00    +0.050 A 
ATOM     26  C   UNL     1      -6.998   4.239  -0.431  0.00  0.00    +0.166 A 
ATOM     27  C   UNL     1      -6.147   4.968   0.401  0.00  0.00    +0.167 A 
ATOM     28  C   UNL     1      -4.795   4.687   0.423  0.00  0.00    +0.062 A 
ATOM     29  O   UNL     1      -6.890   5.890   1.081  0.00  0.00    -0.453 OA
ATOM     30  C   UNL     1      -8.131   5.992   0.358  0.00  0.00    +0.466 C 
ATOM     31  O   UNL     1      -8.269   4.704  -0.270  0.00  0.00    -0.453 OA
ENDBRANCH  20  23
ENDBRANCH   1  19
BRANCH   1  33
ATOM     32  C   UNL     1      -0.883   1.815   1.351  0.00  0.00    +0.009 C 
ATOM     33  C   UNL     1      -0.607   1.123   0.015  0.00  0.00    +0.012 C 
ATOM     34  C   UNL     1      -1.498  -0.115  -0.113  0.00  0.00    +0.009 C 
ENDBRANCH   1  33
TORSDOF 9
