REMARK  Name = ZINC07657889
REMARK  9 active torsions:
REMARK  status: ('A' for Active; 'I' for Inactive)
REMARK    1  A    between atoms: C_1  and  C_2
REMARK    2  A    between atoms: C_6  and  C_28
REMARK    3  A    between atoms: C_7  and  O_8
REMARK    4  A    between atoms: O_8  and  C_9
REMARK    5  A    between atoms: C_9  and  C_11
REMARK    6  A    between atoms: C_11  and  N_12
REMARK    7  A    between atoms: C_17  and  C_24
REMARK    8  A    between atoms: C_20  and  C_22
REMARK    9  A    between atoms: C_20  and  C_23
REMARK                            x       y       z     vdW  Elec       q    Type
REMARK                         _______ _______ _______ _____ _____    ______ ____
ROOT
ATOM      1  N   UNL     1      -2.604   1.204   4.646  0.00  0.00    -0.213 N 
ATOM      2  C   UNL     1      -3.356   2.265   4.279  0.00  0.00    +0.247 C 
ATOM      3  O   UNL     1      -3.066   3.099   3.450  0.00  0.00    -0.273 OA
ATOM      4  C   UNL     1      -4.612   2.173   5.112  0.00  0.00    +0.113 C 
ATOM      5  C   UNL     1      -5.852   2.293   4.241  0.00  0.00    +0.038 C 
ATOM      6  C   UNL     1      -6.024   3.737   3.769  0.00  0.00    -0.011 C 
ATOM      7  C   UNL     1      -6.223   4.629   4.993  0.00  0.00    +0.009 C 
ATOM      8  C   UNL     1      -5.006   4.579   5.910  0.00  0.00    -0.032 C 
ATOM      9  C   UNL     1      -4.601   3.158   6.264  0.00  0.00    +0.041 C 
ATOM     10  C   UNL     1      -5.373   5.312   7.219  0.00  0.00    +0.011 C 
ATOM     11  C   UNL     1      -3.836   5.334   5.274  0.00  0.00    +0.011 C 
ATOM     12  C   UNL     1      -7.258   3.832   2.866  0.00  0.00    +0.007 C 
ATOM     13  N   UNL     1      -4.544   0.801   5.663  0.00  0.00    -0.285 N 
ATOM     14  C   UNL     1      -3.307   0.347   5.396  0.00  0.00    +0.310 C 
ATOM     15  O   UNL     1      -2.875  -0.719   5.788  0.00  0.00    -0.252 OA
ATOM     16  H   UNL     1      -5.258   0.336   6.121  0.00  0.00    +0.151 HD
ENDROOT
BRANCH   1  17
ATOM     17  C   UNL     1      -1.208   1.006   4.250  0.00  0.00    +0.238 C 
BRANCH  17  18
ATOM     18  C   UNL     1      -1.159   0.263   2.941  0.00  0.00    +0.330 C 
ATOM     19  O   UNL     1      -2.184  -0.067   2.394  0.00  0.00    -0.249 OA
BRANCH  18  20
ATOM     20  O   UNL     1       0.025  -0.033   2.381  0.00  0.00    -0.424 OA
BRANCH  20  27
ATOM     21  C   UNL     1      -0.018   1.503   0.010  0.00  0.00    +0.047 C 
ATOM     22  C   UNL     1       0.002  -0.004   0.002  0.00  0.00    -0.008 A 
ATOM     23  C   UNL     1       0.006  -0.689  -1.198  0.00  0.00    +0.007 A 
ATOM     24  C   UNL     1       0.024  -2.071  -1.206  0.00  0.00    +0.001 A 
ATOM     25  C   UNL     1       0.039  -2.772  -0.014  0.00  0.00    +0.007 A 
ATOM     26  C   UNL     1       0.035  -2.092   1.188  0.00  0.00    -0.008 A 
ATOM     27  C   UNL     1       0.023  -0.705   1.199  0.00  0.00    +0.137 A 
ATOM     28  C   UNL     1       0.051  -2.856   2.487  0.00  0.00    +0.047 C 
ENDBRANCH  20  27
ENDBRANCH  18  20
ENDBRANCH  17  18
ENDBRANCH   1  17
TORSDOF 4
