REMARK  Name = ZINC54176646
REMARK  8 active torsions:
REMARK  status: ('A' for Active; 'I' for Inactive)
REMARK    1  A    between atoms: C_1  and  C_2
REMARK    2  A    between atoms: C_2  and  C_3
REMARK    3  A    between atoms: C_3  and  C_5
REMARK    4  A    between atoms: C_3  and  N_10
REMARK    5  A    between atoms: C_5  and  C_6
REMARK    6  A    between atoms: N_7  and  O_8
REMARK    7  A    between atoms: N_10  and  S_11
REMARK    8  A    between atoms: S_11  and  N_14
REMARK                            x       y       z     vdW  Elec       q    Type
REMARK                         _______ _______ _______ _____ _____    ______ ____
ROOT
ATOM      1  C   UNL     1       1.391  -1.085  -1.251  0.00  0.00    +0.084 C 
ENDROOT
BRANCH   1   3
ATOM      2  C   UNL     1       0.770  -0.314   1.043  0.00  0.00    +0.005 C 
ATOM      3  C   UNL     1       1.079  -1.537   0.177  0.00  0.00    +0.017 C 
ENDBRANCH   1   3
BRANCH   1   4
ATOM      4  N   UNL     1       2.597  -0.252  -1.247  0.00  0.00    -0.176 NA
ATOM      5  H   UNL     1       3.409  -0.577  -0.829  0.00  0.00    +0.149 HD
BRANCH   4   6
ATOM      6  S   UNL     1       2.572   1.245  -1.956  0.00  0.00    +0.097 S 
ATOM      7  O   UNL     1       3.837   1.420  -2.578  0.00  0.00    -0.141 OA
ATOM      8  O   UNL     1       1.350   1.332  -2.676  0.00  0.00    -0.141 OA
BRANCH   6   9
ATOM      9  N   UNL     1       2.484   2.362  -0.737  0.00  0.00    -0.167 NA
ATOM     10  C   UNL     1       1.228   3.072  -0.461  0.00  0.00    +0.110 C 
ATOM     11  C   UNL     1       0.879   2.898   1.021  0.00  0.00    +0.017 C 
ATOM     12  C   UNL     1       2.062   3.358   1.876  0.00  0.00    +0.003 C 
ATOM     13  C   UNL     1       3.286   2.495   1.564  0.00  0.00    +0.017 C 
ATOM     14  C   UNL     1       3.660   2.659   0.092  0.00  0.00    +0.110 C 
ENDBRANCH   6   9
ENDBRANCH   4   6
ENDBRANCH   1   4
BRANCH   1  15
ATOM     15  C   UNL     1       1.622  -2.311  -2.135  0.00  0.00    +0.095 C 
BRANCH  15  16
ATOM     16  C   UNL     1       1.808  -1.872  -3.565  0.00  0.00    +0.133 C 
ATOM     17  N   UNL     1       1.758  -0.617  -3.867  0.00  0.00    -0.077 NA
ATOM     18  N   UNL     1       2.033  -2.809  -4.550  0.00  0.00    -0.344 N 
ATOM     19  H   UNL     1       2.070  -3.751  -4.323  0.00  0.00    +0.144 HD
ATOM     20  H   UNL     1       2.152  -2.526  -5.470  0.00  0.00    +0.144 HD
BRANCH  17  21
ATOM     21  O   UNL     1       1.933  -0.204  -5.210  0.00  0.00    -0.408 OA
ATOM     22  H   UNL     1       1.879   0.753  -5.338  0.00  0.00    +0.328 HD
ENDBRANCH  17  21
ENDBRANCH  15  16
ENDBRANCH   1  15
TORSDOF 7
