REMARK  Name = ZINC17184529
REMARK  6 active torsions:
REMARK  status: ('A' for Active; 'I' for Inactive)
REMARK    1  A    between atoms: C_1  and  C_2
REMARK    2  A    between atoms: C_5  and  C_8
REMARK    3  A    between atoms: N_15  and  N_18
REMARK    4  A    between atoms: C_19  and  C_21
REMARK    5  A    between atoms: C_21  and  C_22
REMARK    6  A    between atoms: C_22  and  N_23
REMARK                            x       y       z     vdW  Elec       q    Type
REMARK                         _______ _______ _______ _____ _____    ______ ____
ROOT
ATOM      1  C   UNL     1       0.059  -4.255  -0.021  0.00  0.00    +0.004 A 
ATOM      2  C   UNL     1      -0.825  -4.953  -0.774  0.00  0.00    +0.056 A 
ATOM      3  S   UNL     1      -0.398  -6.651  -0.444  0.00  0.00    -0.076 S 
ATOM      4  C   UNL     1       0.945  -6.388   0.686  0.00  0.00    +0.116 A 
ATOM      5  C   UNL     1       1.034  -4.989   0.776  0.00  0.00    +0.081 A 
ATOM      6  C   UNL     1       2.061  -4.488   1.638  0.00  0.00    +0.280 A 
ATOM      7  O   UNL     1       2.214  -3.288   1.786  0.00  0.00    -0.265 OA
ATOM      8  N   UNL     1       2.855  -5.362   2.284  0.00  0.00    -0.212 N 
ATOM      9  C   UNL     1       2.699  -6.702   2.132  0.00  0.00    +0.223 A 
ATOM     10  N   UNL     1       1.764  -7.190   1.360  0.00  0.00    -0.228 NA
ENDROOT
BRANCH   1  15
ATOM     11  C   UNL     1      -0.018   1.503   0.010  0.00  0.00    +0.044 C 
ATOM     12  C   UNL     1       0.002  -0.004   0.002  0.00  0.00    -0.050 A 
ATOM     13  C   UNL     1       0.006  -0.686  -1.201  0.00  0.00    +0.004 A 
ATOM     14  C   UNL     1       0.024  -2.066  -1.215  0.00  0.00    +0.009 A 
ATOM     15  C   UNL     1       0.040  -2.772  -0.013  0.00  0.00    -0.017 A 
ATOM     16  C   UNL     1       0.036  -2.079   1.196  0.00  0.00    +0.009 A 
ATOM     17  C   UNL     1       0.023  -0.699   1.198  0.00  0.00    +0.004 A 
ENDBRANCH   1  15
BRANCH   8  18
ATOM     18  N   UNL     1       3.863  -4.880   3.129  0.00  0.00    -0.219 N 
ATOM     19  C   UNL     1       3.710  -4.945   4.466  0.00  0.00    +0.233 C 
ATOM     20  O   UNL     1       2.699  -5.422   4.938  0.00  0.00    -0.274 OA
ATOM     21  H   UNL     1       4.671  -4.499   2.752  0.00  0.00    +0.176 HD
BRANCH  19  22
ATOM     22  C   UNL     1       4.794  -4.427   5.375  0.00  0.00    +0.117 C 
BRANCH  22  23
ATOM     23  C   UNL     1       4.372  -4.619   6.833  0.00  0.00    +0.125 C 
BRANCH  23  24
ATOM     24  N   UNL     1       5.426  -4.114   7.717  0.00  0.00    -0.241 N 
ATOM     25  C   UNL     1       6.439  -4.880   8.160  0.00  0.00    +0.226 C 
ATOM     26  O   UNL     1       6.701  -6.003   7.788  0.00  0.00    -0.275 OA
ATOM     27  C   UNL     1       7.202  -4.080   9.215  0.00  0.00    +0.087 C 
ATOM     28  C   UNL     1       6.770  -4.577  10.581  0.00  0.00    +0.013 C 
ATOM     29  C   UNL     1       6.937  -3.523  11.666  0.00  0.00    +0.001 C 
ATOM     30  C   UNL     1       6.093  -2.300  11.288  0.00  0.00    +0.001 C 
ATOM     31  C   UNL     1       6.685  -1.685  10.025  0.00  0.00    +0.013 C 
ATOM     32  C   UNL     1       6.789  -2.656   8.872  0.00  0.00    +0.087 C 
ATOM     33  C   UNL     1       5.470  -2.842   8.154  0.00  0.00    +0.226 C 
ATOM     34  O   UNL     1       4.611  -2.000   8.003  0.00  0.00    -0.275 OA
ENDBRANCH  23  24
ENDBRANCH  22  23
ENDBRANCH  19  22
ENDBRANCH   8  18
TORSDOF 5
