REMARK  Name = ZINC39939406
REMARK  9 active torsions:
REMARK  status: ('A' for Active; 'I' for Inactive)
REMARK    1  A    between atoms: C_1  and  C_2
REMARK    2  A    between atoms: C_2  and  C_3
REMARK    3  A    between atoms: C_3  and  N_4
REMARK    4  A    between atoms: N_4  and  C_5
REMARK    5  A    between atoms: C_11  and  C_13
REMARK    6  A    between atoms: C_13  and  S_14
REMARK    7  A    between atoms: S_14  and  C_15
REMARK    8  A    between atoms: C_19  and  C_24
REMARK    9  A    between atoms: N_20  and  C_21
REMARK                            x       y       z     vdW  Elec       q    Type
REMARK                         _______ _______ _______ _____ _____    ______ ____
ROOT
ATOM      1  C   UNL     1      -3.941  -2.098   4.035  0.00  0.00    +0.237 C 
ATOM      2  N   UNL     1      -3.374  -1.249   5.097  0.00  0.00    -0.237 N 
ATOM      3  N   UNL     1      -3.478   0.072   4.647  0.00  0.00    -0.169 NA
ATOM      4  C   UNL     1      -4.029   0.129   3.464  0.00  0.00    +0.147 C 
ATOM      5  N   UNL     1      -4.356  -1.147   2.991  0.00  0.00    -0.282 N 
ATOM      6  H   UNL     1      -3.002  -1.547   5.941  0.00  0.00    +0.171 HD
ENDROOT
BRANCH   4   7
ATOM      7  C   UNL     1      -4.265   1.319   2.757  0.00  0.00    +0.022 C 
ATOM      8  C   UNL     1      -3.876   2.608   3.122  0.00  0.00    +0.006 A 
ATOM      9  C   UNL     1      -3.169   3.111   4.235  0.00  0.00    +0.010 A 
ATOM     10  C   UNL     1      -2.926   4.444   4.332  0.00  0.00    +0.001 A 
ATOM     11  C   UNL     1      -3.359   5.339   3.352  0.00  0.00    +0.002 A 
ATOM     12  C   UNL     1      -4.043   4.926   2.257  0.00  0.00    +0.026 A 
ATOM     13  C   UNL     1      -4.335   3.548   2.086  0.00  0.00    +0.043 A 
ATOM     14  N   UNL     1      -4.972   2.903   1.128  0.00  0.00    -0.380 N 
ATOM     15  C   UNL     1      -4.989   1.470   1.438  0.00  0.00    +0.152 C 
ATOM     16  H   UNL     1      -5.364   3.312   0.341  0.00  0.00    +0.160 HD
ENDBRANCH   4   7
BRANCH   5  17
ATOM     17  C   UNL     1      -4.987  -1.475   1.710  0.00  0.00    +0.078 C 
ATOM     18  C   UNL     1      -5.317  -2.944   1.440  0.00  0.00    +0.024 C 
ATOM     19  C   UNL     1      -4.160  -2.272   0.699  0.00  0.00    +0.024 C 
ENDBRANCH   5  17
BRANCH   1  20
ATOM     20  S   UNL     1      -2.683  -3.237   3.394  0.00  0.00    -0.109 S 
BRANCH  20  21
ATOM     21  C   UNL     1      -1.342  -2.146   2.845  0.00  0.00    +0.168 C 
BRANCH  21  23
ATOM     22  N   UNL     1       0.892  -2.375   1.810  0.00  0.00    -0.275 N 
ATOM     23  C   UNL     1      -0.218  -2.976   2.282  0.00  0.00    +0.229 C 
ATOM     24  O   UNL     1      -0.312  -4.185   2.254  0.00  0.00    -0.274 OA
BRANCH  22  25
ATOM     25  C   UNL     1       1.880  -3.131   1.184  0.00  0.00    +0.010 C 
ATOM     26  C   UNL     1       3.056  -3.188   1.745  0.00  0.00    -0.008 C 
ATOM     27  C   UNL     1       4.218  -3.953   1.181  0.00  0.00    +0.029 C 
ATOM     28  C   UNL     1       3.728  -4.963   0.141  0.00  0.00    +0.004 C 
ATOM     29  C   UNL     1       2.800  -4.238  -0.842  0.00  0.00    +0.006 C 
ATOM     30  C   UNL     1       1.526  -3.835  -0.093  0.00  0.00    +0.051 C 
ENDBRANCH  22  25
BRANCH  22  31
ATOM     31  C   UNL     1       1.060  -0.927   1.955  0.00  0.00    +0.113 C 
BRANCH  31  33
ATOM     32  C   UNL     1       0.692   1.289   0.862  0.00  0.00    +0.005 C 
ATOM     33  C   UNL     1       0.517  -0.223   0.710  0.00  0.00    +0.016 C 
ENDBRANCH  31  33
ENDBRANCH  22  31
ENDBRANCH  21  23
ENDBRANCH  20  21
ENDBRANCH   1  20
TORSDOF 8
