REMARK  Name = ZINC33766796
REMARK  12 active torsions:
REMARK  status: ('A' for Active; 'I' for Inactive)
REMARK    1  A    between atoms: C_1  and  C_2
REMARK    2  A    between atoms: C_2  and  C_3
REMARK    3  A    between atoms: C_3  and  C_4
REMARK    4  A    between atoms: C_4  and  C_5
REMARK    5  A    between atoms: C_5  and  N_6
REMARK    6  A    between atoms: C_10  and  C_11
REMARK    7  A    between atoms: C_12  and  N_23
REMARK    8  A    between atoms: C_17  and  C_22
REMARK    9  A    between atoms: N_23  and  C_24
REMARK   10  A    between atoms: C_24  and  C_25
REMARK   11  A    between atoms: C_25  and  C_26
REMARK   12  A    between atoms: C_25  and  C_27
REMARK                            x       y       z     vdW  Elec       q    Type
REMARK                         _______ _______ _______ _____ _____    ______ ____
ROOT
ATOM      1  C   UNL     1      -0.869   1.680   3.632  0.00  0.00    +0.081 A 
ATOM      2  C   UNL     1      -0.073   1.418   2.492  0.00  0.00    +0.134 A 
ATOM      3  N   UNL     1       1.009   0.662   2.611  0.00  0.00    -0.214 NA
ATOM      4  C   UNL     1       1.369   0.134   3.781  0.00  0.00    +0.142 A 
ATOM      5  C   UNL     1       2.528  -0.660   3.847  0.00  0.00    +0.047 A 
ATOM      6  C   UNL     1       2.903  -1.204   5.039  0.00  0.00    +0.008 A 
ATOM      7  C   UNL     1       2.131  -0.963   6.183  0.00  0.00    -0.034 A 
ATOM      8  C   UNL     1       1.020  -0.197   6.102  0.00  0.00    +0.099 A 
ATOM      9  N   UNL     1       0.635   0.351   4.915  0.00  0.00    -0.267 N 
ATOM     10  C   UNL     1      -0.480   1.111   4.868  0.00  0.00    +0.267 A 
ATOM     11  O   UNL     1      -1.139   1.308   5.875  0.00  0.00    -0.267 OA
ATOM     12  C   UNL     1       2.538  -1.559   7.506  0.00  0.00    +0.045 C 
ENDROOT
BRANCH   1  17
ATOM     13  N   UNL     1      -1.333   5.559   5.409  0.00  0.00    -0.255 N 
ATOM     14  C   UNL     1      -1.044   4.384   4.880  0.00  0.00    +0.258 C 
ATOM     15  O   UNL     1       0.069   3.901   4.997  0.00  0.00    -0.269 OA
ATOM     16  C   UNL     1      -2.069   3.697   4.168  0.00  0.00    +0.077 C 
ATOM     17  C   UNL     1      -2.027   2.487   3.538  0.00  0.00    +0.037 C 
ATOM     18  S   UNL     1      -3.423   4.854   4.320  0.00  0.00    -0.061 S 
ATOM     19  C   UNL     1      -2.568   6.095   5.279  0.00  0.00    +0.121 C 
ATOM     20  S   UNL     1      -3.159   7.587   5.876  0.00  0.00    -0.027 S 
BRANCH  13  21
ATOM     21  C   UNL     1      -0.302   6.293   6.147  0.00  0.00    +0.115 C 
BRANCH  21  22
ATOM     22  C   UNL     1       0.467   7.199   5.184  0.00  0.00    +0.019 C 
BRANCH  22  23
ATOM     23  C   UNL     1       1.544   7.965   5.954  0.00  0.00    +0.001 C 
BRANCH  23  25
ATOM     24  C   UNL     1       3.391   9.637   5.761  0.00  0.00    +0.004 C 
ATOM     25  C   UNL     1       2.314   8.871   4.991  0.00  0.00    -0.003 C 
ENDBRANCH  23  25
ENDBRANCH  22  23
ENDBRANCH  21  22
ENDBRANCH  13  21
ENDBRANCH   1  17
BRANCH   2  26
ATOM     26  N   UNL     1      -0.417   1.948   1.268  0.00  0.00    -0.328 N 
ATOM     27  H   UNL     1      -1.317   2.575   1.174  0.00  0.00    +0.147 HD
BRANCH  26  28
ATOM     28  C   UNL     1       0.414   1.678   0.093  0.00  0.00    +0.106 C 
BRANCH  28  29
ATOM     29  C   UNL     1      -0.186   2.379  -1.128  0.00  0.00    -0.000 C 
ATOM     30  C   UNL     1       0.747   2.201  -2.328  0.00  0.00    +0.009 C 
ATOM     31  C   UNL     1      -1.551   1.768  -1.448  0.00  0.00    +0.009 C 
ENDBRANCH  28  29
ENDBRANCH  26  28
ENDBRANCH   2  26
TORSDOF 8
