REMARK  Name = ZINC01341880
REMARK  9 active torsions:
REMARK  status: ('A' for Active; 'I' for Inactive)
REMARK    1  A    between atoms: C_1  and  C_2
REMARK    2  A    between atoms: C_7  and  C_8
REMARK    3  A    between atoms: C_8  and  C_10
REMARK    4  A    between atoms: C_8  and  N_20
REMARK    5  A    between atoms: N_12  and  C_13
REMARK    6  A    between atoms: C_13  and  C_14
REMARK    7  A    between atoms: N_20  and  C_21
REMARK    8  A    between atoms: C_30  and  C_32
REMARK    9  A    between atoms: C_32  and  N_33
REMARK                            x       y       z     vdW  Elec       q    Type
REMARK                         _______ _______ _______ _____ _____    ______ ____
ROOT
ATOM      1  N   UNL     1      -0.242  -4.621  -1.684  0.00  0.00    -0.254 N 
ATOM      2  C   UNL     1       0.586  -3.560  -1.753  0.00  0.00    +0.242 C 
ATOM      3  O   UNL     1       1.036  -3.211  -2.824  0.00  0.00    -0.273 OA
ENDROOT
BRANCH   1   4
ATOM      4  C   UNL     1      -0.841  -4.965  -0.465  0.00  0.00    +0.041 A 
ATOM      5  C   UNL     1      -0.077  -5.529   0.548  0.00  0.00    +0.027 A 
ATOM      6  C   UNL     1      -0.665  -5.862   1.754  0.00  0.00    +0.051 A 
ATOM      7  C   UNL     1      -2.019  -5.647   1.950  0.00  0.00    +0.166 A 
ATOM      8  C   UNL     1      -2.789  -5.086   0.934  0.00  0.00    +0.168 A 
ATOM      9  C   UNL     1      -2.198  -4.747  -0.272  0.00  0.00    +0.073 A 
ATOM     10  O   UNL     1      -4.077  -4.978   1.371  0.00  0.00    -0.453 OA
ATOM     11  C   UNL     1      -4.009  -5.098   2.804  0.00  0.00    +0.466 C 
ATOM     12  O   UNL     1      -2.827  -5.890   3.025  0.00  0.00    -0.453 OA
ENDBRANCH   1   4
BRANCH   1  13
ATOM     13  C   UNL     1      -0.517  -5.415  -2.884  0.00  0.00    +0.197 C 
BRANCH  13  20
ATOM     14  C   UNL     1      -1.935  -3.186  -4.053  0.00  0.00    +0.044 C 
ATOM     15  C   UNL     1      -2.684  -4.433  -3.660  0.00  0.00    -0.045 A 
ATOM     16  C   UNL     1      -4.050  -4.513  -3.863  0.00  0.00    +0.004 A 
ATOM     17  C   UNL     1      -4.738  -5.654  -3.498  0.00  0.00    +0.000 A 
ATOM     18  C   UNL     1      -4.060  -6.719  -2.933  0.00  0.00    +0.000 A 
ATOM     19  C   UNL     1      -2.694  -6.642  -2.735  0.00  0.00    +0.006 A 
ATOM     20  C   UNL     1      -2.006  -5.500  -3.101  0.00  0.00    -0.015 A 
ENDBRANCH  13  20
BRANCH  13  21
ATOM     21  C   UNL     1       0.044  -6.803  -2.708  0.00  0.00    +0.239 C 
ATOM     22  O   UNL     1       0.443  -7.162  -1.621  0.00  0.00    -0.273 OA
ATOM     23  N   UNL     1       0.103  -7.644  -3.759  0.00  0.00    -0.311 N 
ATOM     24  H   UNL     1      -0.147  -7.334  -4.644  0.00  0.00    +0.149 HD
BRANCH  23  25
ATOM     25  C   UNL     1       0.546  -9.027  -3.566  0.00  0.00    +0.135 C 
BRANCH  25  26
ATOM     26  C   UNL     1       0.522  -9.762  -4.908  0.00  0.00    +0.135 C 
ATOM     27  C   UNL     1       0.986 -11.219  -4.716  0.00  0.00    +0.035 C 
ATOM     28  C   UNL     1      -0.208 -12.068  -5.216  0.00  0.00    +0.031 C 
ATOM     29  C   UNL     1      -0.967 -11.060  -6.117  0.00  0.00    +0.160 C 
ATOM     30  O   UNL     1      -0.822  -9.806  -5.417  0.00  0.00    -0.375 OA
ENDBRANCH  25  26
ENDBRANCH  23  25
ENDBRANCH  13  21
ENDBRANCH   1  13
BRANCH   2  31
ATOM     31  C   UNL     1       0.953  -2.808  -0.500  0.00  0.00    +0.242 C 
BRANCH  31  32
ATOM     32  N   UNL     1       1.909  -1.748  -0.829  0.00  0.00    -0.235 N 
ATOM     33  C   UNL     1       1.612  -0.455  -1.188  0.00  0.00    +0.090 A 
ATOM     34  C   UNL     1       0.426   0.254  -1.355  0.00  0.00    +0.029 A 
ATOM     35  C   UNL     1       0.468   1.567  -1.730  0.00  0.00    +0.002 A 
ATOM     36  C   UNL     1       1.683   2.203  -1.946  0.00  0.00    +0.002 A 
ATOM     37  C   UNL     1       2.860   1.530  -1.788  0.00  0.00    +0.032 A 
ATOM     38  C   UNL     1       2.845   0.183  -1.405  0.00  0.00    +0.113 A 
ATOM     39  N   UNL     1       3.819  -0.721  -1.176  0.00  0.00    -0.129 NA
ATOM     40  N   UNL     1       3.308  -1.853  -0.839  0.00  0.00    -0.064 NA
ENDBRANCH  31  32
ENDBRANCH   2  31
TORSDOF 8
