REMARK  Name = ZINC00783651
REMARK  3 active torsions:
REMARK  status: ('A' for Active; 'I' for Inactive)
REMARK    1  A    between atoms: C_1  and  C_2
REMARK    2  A    between atoms: C_5  and  N_12
REMARK    3  A    between atoms: C_24  and  N_25
REMARK                            x       y       z     vdW  Elec       q    Type
REMARK                         _______ _______ _______ _____ _____    ______ ____
ROOT
ATOM      1  N   UNL     1       0.057  -4.198  -0.095  0.00  0.00    -0.202 N 
ATOM      2  C   UNL     1      -1.114  -4.862  -0.115  0.00  0.00    +0.258 C 
ATOM      3  O   UNL     1      -2.161  -4.242  -0.095  0.00  0.00    -0.269 OA
ATOM      4  C   UNL     1      -1.135  -6.330  -0.163  0.00  0.00    +0.046 A 
ATOM      5  C   UNL     1      -2.321  -7.051  -0.185  0.00  0.00    +0.014 A 
ATOM      6  C   UNL     1      -2.293  -8.438  -0.230  0.00  0.00    +0.001 A 
ATOM      7  C   UNL     1      -1.103  -9.131  -0.252  0.00  0.00    +0.010 A 
ATOM      8  C   UNL     1       0.114  -8.434  -0.231  0.00  0.00    +0.004 A 
ATOM      9  C   UNL     1       0.095  -7.026  -0.186  0.00  0.00    +0.008 A 
ATOM     10  C   UNL     1       1.307  -6.295  -0.163  0.00  0.00    +0.046 A 
ATOM     11  C   UNL     1       2.517  -6.982  -0.186  0.00  0.00    +0.015 A 
ATOM     12  C   UNL     1       2.536  -8.364  -0.231  0.00  0.00    +0.024 A 
ATOM     13  C   UNL     1       1.361  -9.101  -0.253  0.00  0.00    +0.032 A 
ATOM     14  C   UNL     1       1.245  -4.831  -0.121  0.00  0.00    +0.258 C 
ATOM     15  O   UNL     1       2.275  -4.183  -0.105  0.00  0.00    -0.269 OA
ENDROOT
BRANCH   1  20
ATOM     16  C   UNL     1      -0.018   1.503   0.010  0.00  0.00    +0.046 C 
ATOM     17  C   UNL     1       0.002  -0.004   0.002  0.00  0.00    -0.024 A 
ATOM     18  C   UNL     1       0.006  -0.678  -1.181  0.00  0.00    +0.007 A 
ATOM     19  C   UNL     1       0.024  -2.068  -1.218  0.00  0.00    +0.025 A 
ATOM     20  C   UNL     1       0.039  -2.802  -0.050  0.00  0.00    +0.054 A 
ATOM     21  C   UNL     1       0.036  -2.129   1.189  0.00  0.00    +0.022 A 
ATOM     22  C   UNL     1       0.023  -0.713   1.215  0.00  0.00    +0.076 A 
ATOM     23  N   UNL     1       0.026  -0.070   2.388  0.00  0.00    -0.255 NA
ATOM     24  C   UNL     1       0.045  -0.724   3.524  0.00  0.00    +0.111 A 
ATOM     25  C   UNL     1       0.065  -2.116   3.567  0.00  0.00    +0.020 A 
ATOM     26  C   UNL     1       0.051  -2.835   2.404  0.00  0.00    +0.013 A 
ENDBRANCH   1  20
BRANCH  13  27
ATOM     27  N   UNL     1       1.409 -10.482  -0.296  0.00  0.00    -0.357 N 
ATOM     28  H   UNL     1       0.587 -10.996  -0.311  0.00  0.00    +0.142 HD
ATOM     29  H   UNL     1       2.266 -10.937  -0.311  0.00  0.00    +0.142 HD
ENDBRANCH  13  27
TORSDOF 2
