REMARK  Name = ZINC67314218
REMARK  8 active torsions:
REMARK  status: ('A' for Active; 'I' for Inactive)
REMARK    1  A    between atoms: C_1  and  C_2
REMARK    2  A    between atoms: C_5  and  N_11
REMARK    3  A    between atoms: C_7  and  C_8
REMARK    4  A    between atoms: N_14  and  C_15
REMARK    5  A    between atoms: N_14  and  C_27
REMARK    6  A    between atoms: C_15  and  C_16
REMARK    7  A    between atoms: C_19  and  C_21
REMARK    8  A    between atoms: C_24  and  C_26
REMARK                            x       y       z     vdW  Elec       q    Type
REMARK                         _______ _______ _______ _____ _____    ______ ____
ROOT
ATOM      1  N   UNL     1      -0.114  -4.120  -0.483  0.00  0.00    -0.269 N 
ATOM      2  C   UNL     1       0.037  -4.587  -1.738  0.00  0.00    +0.307 C 
ATOM      3  O   UNL     1      -0.276  -3.894  -2.687  0.00  0.00    -0.252 OA
ATOM      4  N   UNL     1       0.535  -5.823  -1.942  0.00  0.00    -0.275 N 
ATOM      5  H   UNL     1       0.081  -4.693   0.275  0.00  0.00    +0.156 HD
ENDROOT
BRANCH   1  10
ATOM      6  C   UNL     1      -1.910   1.208   0.346  0.00  0.00    +0.044 C 
ATOM      7  C   UNL     1      -1.432  -0.204   0.129  0.00  0.00    -0.038 A 
ATOM      8  C   UNL     1      -1.900  -0.935  -0.944  0.00  0.00    +0.006 A 
ATOM      9  C   UNL     1      -1.465  -2.230  -1.148  0.00  0.00    +0.023 A 
ATOM     10  C   UNL     1      -0.551  -2.807  -0.273  0.00  0.00    +0.036 A 
ATOM     11  C   UNL     1      -0.074  -2.082   0.808  0.00  0.00    +0.036 A 
ATOM     12  C   UNL     1      -0.510  -0.772   1.010  0.00  0.00    +0.041 A 
BRANCH  12  13
ATOM     13  C   UNL     1      -0.001   0.010   2.157  0.00  0.00    +0.242 C 
ATOM     14  O   UNL     1      -0.297   1.183   2.272  0.00  0.00    -0.270 OA
ATOM     15  N   UNL     1       0.790  -0.578   3.076  0.00  0.00    -0.325 N 
ATOM     16  H   UNL     1       1.027  -1.515   2.984  0.00  0.00    +0.145 HD
ATOM     17  H   UNL     1       1.124  -0.065   3.828  0.00  0.00    +0.145 HD
ENDBRANCH  12  13
ENDBRANCH   1  10
BRANCH   4  18
ATOM     18  C   UNL     1       0.802  -6.702  -0.800  0.00  0.00    +0.078 C 
ATOM     19  C   UNL     1       1.405  -8.077  -1.094  0.00  0.00    +0.024 C 
ATOM     20  C   UNL     1      -0.058  -7.960  -0.662  0.00  0.00    +0.024 C 
ENDBRANCH   4  18
BRANCH   4  21
ATOM     21  C   UNL     1       0.809  -6.287  -3.304  0.00  0.00    +0.183 C 
BRANCH  21  22
ATOM     22  C   UNL     1       2.223  -5.929  -3.681  0.00  0.00    +0.123 A 
ATOM     23  C   UNL     1       3.308  -6.700  -3.488  0.00  0.00    +0.046 A 
ATOM     24  C   UNL     1       4.418  -5.979  -3.987  0.00  0.00    +0.045 A 
ATOM     25  C   UNL     1       3.944  -4.811  -4.455  0.00  0.00    +0.109 A 
ATOM     26  O   UNL     1       2.614  -4.788  -4.273  0.00  0.00    -0.463 OA
BRANCH  25  27
ATOM     27  C   UNL     1       4.766  -3.715  -5.084  0.00  0.00    +0.058 C 
ATOM     28  C   UNL     1       4.069  -2.382  -5.365  0.00  0.00    +0.015 C 
ATOM     29  C   UNL     1       4.431  -3.317  -6.522  0.00  0.00    -0.003 C 
ATOM     30  C   UNL     1       5.591  -2.902  -7.429  0.00  0.00    +0.008 C 
ENDBRANCH  25  27
ENDBRANCH  21  22
ENDBRANCH   4  21
TORSDOF 6
