REMARK  Name = ZINC06571251
REMARK  5 active torsions:
REMARK  status: ('A' for Active; 'I' for Inactive)
REMARK    1  A    between atoms: C_1  and  C_2
REMARK    2  A    between atoms: C_3  and  C_12
REMARK    3  A    between atoms: N_13  and  N_14
REMARK    4  A    between atoms: C_15  and  C_17
REMARK    5  A    between atoms: N_19  and  C_26
REMARK                            x       y       z     vdW  Elec       q    Type
REMARK                         _______ _______ _______ _____ _____    ______ ____
ROOT
ATOM      1  N   UNL     1      -2.108  -3.041   0.005  0.00  0.00    -0.203 N 
ATOM      2  C   UNL     1      -1.933  -4.377  -0.004  0.00  0.00    +0.265 C 
ATOM      3  O   UNL     1      -0.808  -4.843  -0.017  0.00  0.00    -0.268 OA
ATOM      4  H   UNL     1      -3.004  -2.669   0.015  0.00  0.00    +0.178 HD
ENDROOT
BRANCH   2   5
ATOM      5  C   UNL     1      -3.098  -5.271   0.002  0.00  0.00    +0.064 A 
ATOM      6  C   UNL     1      -4.411  -4.901   0.016  0.00  0.00    +0.099 A 
ATOM      7  N   UNL     1      -5.198  -6.004   0.017  0.00  0.00    -0.349 N 
ATOM      8  C   UNL     1      -4.425  -7.147   0.005  0.00  0.00    +0.050 A 
ATOM      9  C   UNL     1      -3.080  -6.745  -0.012  0.00  0.00    +0.012 A 
ATOM     10  C   UNL     1      -2.066  -7.700  -0.020  0.00  0.00    +0.011 A 
ATOM     11  C   UNL     1      -2.390  -9.039  -0.024  0.00  0.00    +0.001 A 
ATOM     12  C   UNL     1      -3.719  -9.437  -0.013  0.00  0.00    +0.002 A 
ATOM     13  C   UNL     1      -4.732  -8.503   0.001  0.00  0.00    +0.026 A 
ATOM     14  C   UNL     1      -6.663  -5.986   0.031  0.00  0.00    +0.149 C 
ENDBRANCH   2   5
BRANCH   1  16
ATOM     15  C   UNL     1      -1.166  -0.900   0.008  0.00  0.00    +0.140 C 
ATOM     16  N   UNL     1      -0.997  -2.188  -0.001  0.00  0.00    -0.187 NA
BRANCH  15  19
ATOM     17  C   UNL     1       1.810  -1.796  -0.025  0.00  0.00    +0.064 C 
ATOM     18  C   UNL     1       1.311  -0.374  -0.013  0.00  0.00    +0.023 A 
ATOM     19  C   UNL     1       0.002  -0.004   0.002  0.00  0.00    +0.023 A 
ATOM     20  C   UNL     1      -0.018   1.469   0.010  0.00  0.00    +0.009 A 
ATOM     21  C   UNL     1      -1.034   2.422   0.030  0.00  0.00    +0.010 A 
ATOM     22  C   UNL     1      -0.714   3.761   0.030  0.00  0.00    +0.001 A 
ATOM     23  C   UNL     1       0.615   4.164   0.019  0.00  0.00    +0.002 A 
ATOM     24  C   UNL     1       1.630   3.233   0.004  0.00  0.00    +0.026 A 
ATOM     25  C   UNL     1       1.327   1.875  -0.001  0.00  0.00    +0.047 A 
ATOM     26  N   UNL     1       2.103   0.736  -0.014  0.00  0.00    -0.358 N 
ATOM     27  H   UNL     1       3.072   0.725  -0.023  0.00  0.00    +0.166 HD
ENDBRANCH  15  19
ENDBRANCH   1  16
TORSDOF 3
