REMARK  Name = ZINC40981646
REMARK  12 active torsions:
REMARK  status: ('A' for Active; 'I' for Inactive)
REMARK    1  A    between atoms: C_1  and  C_2
REMARK    2  A    between atoms: C_2  and  C_3
REMARK    3  A    between atoms: C_3  and  S_4
REMARK    4  A    between atoms: S_4  and  C_5
REMARK    5  A    between atoms: C_10  and  C_27
REMARK    6  A    between atoms: C_12  and  C_16
REMARK    7  A    between atoms: C_13  and  C_15
REMARK    8  A    between atoms: N_18  and  C_19
REMARK    9  A    between atoms: C_22  and  C_26
REMARK   10  A    between atoms: C_24  and  C_25
REMARK   11  A    between atoms: C_30  and  O_33
REMARK   12  A    between atoms: O_33  and  C_34
REMARK                            x       y       z     vdW  Elec       q    Type
REMARK                         _______ _______ _______ _____ _____    ______ ____
ROOT
ATOM      1  C   UNL     1       1.454  -2.707   2.842  0.00  0.00    +0.210 A 
ATOM      2  N   UNL     1       2.011  -1.849   3.709  0.00  0.00    -0.187 NA
ATOM      3  C   UNL     1       2.627  -2.515   4.647  0.00  0.00    +0.219 A 
ATOM      4  N   UNL     1       2.478  -3.838   4.392  0.00  0.00    -0.220 N 
ATOM      5  N   UNL     1       1.712  -3.937   3.231  0.00  0.00    -0.141 NA
ATOM      6  C   UNL     1       3.045  -4.892   5.229  0.00  0.00    +0.177 C 
ATOM      7  C   UNL     1       3.532  -4.296   6.523  0.00  0.00    +0.060 C 
ATOM      8  C   UNL     1       3.656  -2.976   6.720  0.00  0.00    +0.018 C 
ATOM      9  N   UNL     1       3.334  -2.058   5.750  0.00  0.00    -0.287 N 
ATOM     10  C   UNL     1       4.164  -2.482   8.050  0.00  0.00    +0.061 C 
ATOM     11  H   UNL     1       3.591  -1.126   5.833  0.00  0.00    +0.155 HD
ENDROOT
BRANCH   6  12
ATOM     12  C   UNL     1       4.199  -5.540   4.508  0.00  0.00    -0.018 A 
ATOM     13  C   UNL     1       5.296  -4.783   4.142  0.00  0.00    +0.009 A 
ATOM     14  C   UNL     1       6.356  -5.374   3.481  0.00  0.00    +0.046 A 
ATOM     15  C   UNL     1       6.318  -6.729   3.185  0.00  0.00    +0.120 A 
ATOM     16  C   UNL     1       5.216  -7.486   3.554  0.00  0.00    +0.046 A 
ATOM     17  C   UNL     1       4.161  -6.891   4.219  0.00  0.00    +0.009 A 
BRANCH  15  18
ATOM     18  O   UNL     1       7.358  -7.313   2.534  0.00  0.00    -0.495 OA
ATOM     19  C   UNL     1       7.250  -8.711   2.262  0.00  0.00    +0.277 C 
ENDBRANCH  15  18
ENDBRANCH   6  12
BRANCH   7  20
ATOM     20  C   UNL     1       3.874  -5.171   7.581  0.00  0.00    +0.248 C 
ATOM     21  O   UNL     1       3.001  -5.653   8.279  0.00  0.00    -0.270 OA
ATOM     22  N   UNL     1       5.167  -5.471   7.816  0.00  0.00    -0.281 N 
ATOM     23  H   UNL     1       5.867  -5.037   7.302  0.00  0.00    +0.155 HD
BRANCH  22  24
ATOM     24  C   UNL     1       5.500  -6.406   8.800  0.00  0.00    +0.037 A 
ATOM     25  C   UNL     1       4.739  -6.499   9.959  0.00  0.00    +0.024 A 
ATOM     26  C   UNL     1       5.070  -7.424  10.929  0.00  0.00    +0.005 A 
ATOM     27  C   UNL     1       6.160  -8.257  10.749  0.00  0.00    -0.050 A 
ATOM     28  C   UNL     1       6.920  -8.167   9.597  0.00  0.00    +0.008 A 
ATOM     29  C   UNL     1       6.590  -7.248   8.620  0.00  0.00    -0.029 A 
ATOM     30  C   UNL     1       7.415  -7.155   7.363  0.00  0.00    +0.045 C 
ATOM     31  C   UNL     1       6.519  -9.265  11.810  0.00  0.00    +0.044 C 
ENDBRANCH  22  24
ENDBRANCH   7  20
BRANCH   1  32
ATOM     32  S   UNL     1       0.519  -2.260   1.417  0.00  0.00    -0.084 S 
BRANCH  32  33
ATOM     33  C   UNL     1       0.527  -0.446   1.439  0.00  0.00    +0.077 C 
BRANCH  33  35
ATOM     34  C   UNL     1      -0.255   1.612   0.256  0.00  0.00    +0.004 C 
ATOM     35  C   UNL     1      -0.261   0.082   0.238  0.00  0.00    +0.008 C 
ENDBRANCH  33  35
ENDBRANCH  32  33
ENDBRANCH   1  32
TORSDOF 7
