REMARK  Name = ZINC00933047
REMARK  8 active torsions:
REMARK  status: ('A' for Active; 'I' for Inactive)
REMARK    1  A    between atoms: C_1  and  C_2
REMARK    2  A    between atoms: C_11  and  S_12
REMARK    3  A    between atoms: S_12  and  C_13
REMARK    4  A    between atoms: C_13  and  C_14
REMARK    5  A    between atoms: N_16  and  C_17
REMARK    6  A    between atoms: C_20  and  S_23
REMARK    7  A    between atoms: S_23  and  N_26
REMARK    8  A    between atoms: N_26  and  C_27
REMARK                            x       y       z     vdW  Elec       q    Type
REMARK                         _______ _______ _______ _____ _____    ______ ____
ROOT
ATOM      1  C   UNL     1       2.368  -6.180  -0.051  0.00  0.00    +0.227 C 
ATOM      2  O   UNL     1       1.474  -6.999  -0.040  0.00  0.00    -0.275 OA
ATOM      3  N   UNL     1       3.654  -6.585  -0.066  0.00  0.00    -0.285 N 
ATOM      4  H   UNL     1       4.367  -5.933  -0.142  0.00  0.00    +0.155 HD
ENDROOT
BRANCH   3   5
ATOM      5  C   UNL     1       3.959  -7.948   0.030  0.00  0.00    +0.034 A 
ATOM      6  C   UNL     1       5.097  -8.360   0.709  0.00  0.00    +0.025 A 
ATOM      7  C   UNL     1       5.393  -9.705   0.807  0.00  0.00    +0.030 A 
ATOM      8  C   UNL     1       4.562 -10.641   0.219  0.00  0.00    +0.105 A 
ATOM      9  C   UNL     1       3.430 -10.234  -0.464  0.00  0.00    +0.030 A 
ATOM     10  C   UNL     1       3.126  -8.890  -0.560  0.00  0.00    +0.025 A 
BRANCH   8  11
ATOM     11  S   UNL     1       4.946 -12.357   0.339  0.00  0.00    +0.059 S 
ATOM     12  O   UNL     1       5.761 -12.510   1.493  0.00  0.00    -0.153 OA
ATOM     13  O   UNL     1       3.722 -13.059   0.172  0.00  0.00    -0.153 OA
BRANCH  11  14
ATOM     14  N   UNL     1       5.893 -12.739  -0.964  0.00  0.00    -0.187 NA
ATOM     15  H   UNL     1       5.565 -13.356  -1.638  0.00  0.00    +0.148 HD
BRANCH  14  16
ATOM     16  C   UNL     1       7.226 -12.147  -1.100  0.00  0.00    +0.077 C 
ATOM     17  C   UNL     1       7.143 -10.903  -1.987  0.00  0.00    +0.020 C 
ATOM     18  C   UNL     1       8.536 -10.284  -2.129  0.00  0.00    +0.002 C 
ATOM     19  C   UNL     1       9.484 -11.303  -2.765  0.00  0.00    +0.000 C 
ATOM     20  C   UNL     1       9.566 -12.546  -1.877  0.00  0.00    +0.002 C 
ATOM     21  C   UNL     1       8.174 -13.165  -1.736  0.00  0.00    +0.020 C 
ENDBRANCH  14  16
ENDBRANCH  11  14
ENDBRANCH   8  11
ENDBRANCH   3   5
BRANCH   1  22
ATOM     22  C   UNL     1       2.042  -4.709  -0.048  0.00  0.00    +0.171 C 
BRANCH  22  23
ATOM     23  S   UNL     1       0.245  -4.489  -0.027  0.00  0.00    -0.096 S 
BRANCH  23  34
ATOM     24  C   UNL     1      -2.358  -2.947   0.001  0.00  0.00    +0.046 C 
ATOM     25  C   UNL     1      -1.105  -2.111  -0.014  0.00  0.00    -0.018 A 
ATOM     26  C   UNL     1      -1.192  -0.750  -0.014  0.00  0.00    +0.016 A 
ATOM     27  C   UNL     1       0.003  -0.004  -0.029  0.00  0.00    +0.004 A 
ATOM     28  C   UNL     1      -0.017   1.400  -0.030  0.00  0.00    +0.059 A 
ATOM     29  C   UNL     1       1.159   2.097  -0.046  0.00  0.00    +0.163 A 
ATOM     30  C   UNL     1       2.388   1.422  -0.058  0.00  0.00    +0.164 A 
ATOM     31  C   UNL     1       2.434   0.056  -0.057  0.00  0.00    +0.077 A 
ATOM     32  C   UNL     1       1.243  -0.688  -0.043  0.00  0.00    +0.076 A 
ATOM     33  N   UNL     1       1.267  -2.026  -0.042  0.00  0.00    -0.240 NA
ATOM     34  C   UNL     1       0.152  -2.729  -0.028  0.00  0.00    +0.101 A 
ATOM     35  O   UNL     1       3.559   2.118  -0.068  0.00  0.00    -0.485 OA
ATOM     36  C   UNL     1       3.486   3.496  -0.449  0.00  0.00    +0.270 C 
ATOM     37  C   UNL     1       2.319   4.143   0.307  0.00  0.00    +0.270 C 
ATOM     38  O   UNL     1       1.115   3.459  -0.055  0.00  0.00    -0.485 OA
ENDBRANCH  23  34
ENDBRANCH  22  23
ENDBRANCH   1  22
TORSDOF 7
