REMARK  Name = ZINC06485562
REMARK  2 active torsions:
REMARK  status: ('A' for Active; 'I' for Inactive)
REMARK    1  A    between atoms: C_6  and  S_7
REMARK    2  A    between atoms: S_7  and  C_10
REMARK                            x       y       z     vdW  Elec       q    Type
REMARK                         _______ _______ _______ _____ _____    ______ ____
ROOT
ATOM      1  S   UNL     1      -1.506  -0.915   0.011  0.00  0.00    +0.025 S 
ATOM      2  O   UNL     1      -1.205  -2.194   0.553  0.00  0.00    -0.164 OA
ATOM      3  O   UNL     1      -2.492  -0.062   0.576  0.00  0.00    -0.164 OA
ENDROOT
BRANCH   1   9
ATOM      4  C   UNL     1      -0.017   1.383   0.010  0.00  0.00    +0.029 A 
ATOM      5  C   UNL     1       1.142   2.115   0.003  0.00  0.00    +0.031 A 
ATOM      6  C   UNL     1       2.402   1.473  -0.013  0.00  0.00    +0.080 A 
ATOM      7  C   UNL     1       2.382   0.060  -0.021  0.00  0.00    +0.043 A 
ATOM      8  C   UNL     1       1.217  -0.665  -0.013  0.00  0.00    +0.044 A 
ATOM      9  C   UNL     1       0.002  -0.004   0.002  0.00  0.00    +0.095 A 
ATOM     10  S   UNL     1       4.113  -0.343  -0.039  0.00  0.00    -0.053 S 
ATOM     11  C   UNL     1       4.734   1.333  -0.036  0.00  0.00    +0.157 A 
ATOM     12  N   UNL     1       3.627   2.042  -0.022  0.00  0.00    -0.225 NA
ATOM     13  N   UNL     1       6.042   1.771  -0.046  0.00  0.00    -0.337 N 
ATOM     14  H   UNL     1       6.769   1.129  -0.056  0.00  0.00    +0.144 HD
ATOM     15  H   UNL     1       6.235   2.722  -0.043  0.00  0.00    +0.144 HD
ENDBRANCH   1   9
BRANCH   1  16
ATOM     16  C   UNL     1      -1.968  -1.175  -1.669  0.00  0.00    +0.095 A 
ATOM     17  C   UNL     1      -2.766  -0.251  -2.327  0.00  0.00    +0.029 A 
ATOM     18  C   UNL     1      -3.139  -0.429  -3.634  0.00  0.00    +0.031 A 
ATOM     19  C   UNL     1      -2.719  -1.570  -4.356  0.00  0.00    +0.080 A 
ATOM     20  C   UNL     1      -1.908  -2.490  -3.653  0.00  0.00    +0.043 A 
ATOM     21  C   UNL     1      -1.535  -2.300  -2.347  0.00  0.00    +0.044 A 
ATOM     22  S   UNL     1      -1.606  -3.741  -4.878  0.00  0.00    -0.053 S 
ATOM     23  C   UNL     1      -2.543  -2.991  -6.202  0.00  0.00    +0.157 A 
ATOM     24  N   UNL     1      -2.996  -1.894  -5.638  0.00  0.00    -0.225 NA
ATOM     25  N   UNL     1      -2.741  -3.448  -7.489  0.00  0.00    -0.337 N 
ATOM     26  H   UNL     1      -2.342  -4.285  -7.773  0.00  0.00    +0.144 HD
ATOM     27  H   UNL     1      -3.279  -2.933  -8.109  0.00  0.00    +0.144 HD
ENDBRANCH   1  16
TORSDOF 2
