REMARK  Name = ZINC59819722
REMARK  7 active torsions:
REMARK  status: ('A' for Active; 'I' for Inactive)
REMARK    1  A    between atoms: C_1  and  C_2
REMARK    2  A    between atoms: C_2  and  C_23
REMARK    3  A    between atoms: N_3  and  N_4
REMARK    4  A    between atoms: C_7  and  S_10
REMARK    5  A    between atoms: S_10  and  C_11
REMARK    6  A    between atoms: C_11  and  C_12
REMARK    7  A    between atoms: C_15  and  C_17
REMARK                            x       y       z     vdW  Elec       q    Type
REMARK                         _______ _______ _______ _____ _____    ______ ____
ROOT
ATOM      1  N   UNL     1       0.024   0.035   2.340  0.00  0.00    -0.205 N 
ATOM      2  C   UNL     1       0.044  -0.663   3.533  0.00  0.00    +0.232 A 
ATOM      3  N   UNL     1       0.069  -1.973   3.664  0.00  0.00    -0.186 NA
ATOM      4  C   UNL     1       0.085  -2.295   4.962  0.00  0.00    +0.211 A 
ATOM      5  N   UNL     1       0.070  -1.194   5.675  0.00  0.00    -0.144 NA
ATOM      6  N   UNL     1       0.049  -0.121   4.770  0.00  0.00    -0.245 N 
ATOM      7  H   UNL     1       0.011   1.005   2.345  0.00  0.00    +0.177 HD
ATOM      8  H   UNL     1       0.038   0.824   4.990  0.00  0.00    +0.192 HD
ENDROOT
BRANCH   1  11
ATOM      9  C   UNL     1      -0.018   1.503   0.010  0.00  0.00    +0.068 C 
ATOM     10  C   UNL     1       0.002  -0.004   0.002  0.00  0.00    +0.063 C 
ATOM     11  N   UNL     1       0.022  -0.659   1.123  0.00  0.00    -0.184 NA
BRANCH  10  12
ATOM     12  C   UNL     1      -0.000  -0.734  -1.279  0.00  0.00    -0.002 A 
ATOM     13  C   UNL     1      -0.015  -0.032  -2.487  0.00  0.00    +0.011 A 
ATOM     14  C   UNL     1      -0.017  -0.722  -3.681  0.00  0.00    +0.016 A 
ATOM     15  C   UNL     1      -0.003  -2.106  -3.685  0.00  0.00    +0.018 A 
ATOM     16  C   UNL     1       0.012  -2.808  -2.492  0.00  0.00    +0.016 A 
ATOM     17  C   UNL     1       0.019  -2.131  -1.290  0.00  0.00    +0.011 A 
ATOM     18 BR   UNL     1      -0.006  -3.043  -5.328  0.00  0.00    -0.050 Br
ENDBRANCH  10  12
ENDBRANCH   1  11
BRANCH   4  19
ATOM     19  S   UNL     1       0.118  -3.934   5.609  0.00  0.00    -0.075 S 
BRANCH  19  20
ATOM     20  C   UNL     1       0.127  -3.695   7.407  0.00  0.00    +0.175 C 
BRANCH  20  21
ATOM     21  C   UNL     1       0.156  -5.037   8.092  0.00  0.00    +0.228 A 
ATOM     22  N   UNL     1       1.223  -5.701   8.439  0.00  0.00    -0.111 NA
ATOM     23  N   UNL     1       0.878  -6.806   9.001  0.00  0.00    -0.107 NA
ATOM     24  C   UNL     1      -0.432  -6.886   9.031  0.00  0.00    +0.248 A 
ATOM     25  O   UNL     1      -0.913  -5.763   8.460  0.00  0.00    -0.419 OA
BRANCH  24  26
ATOM     26  C   UNL     1      -1.230  -7.996   9.593  0.00  0.00    +0.038 A 
ATOM     27  C   UNL     1      -2.624  -7.948   9.550  0.00  0.00    +0.013 A 
ATOM     28  C   UNL     1      -3.364  -8.988  10.075  0.00  0.00    +0.001 A 
ATOM     29  C   UNL     1      -2.726 -10.076  10.643  0.00  0.00    +0.000 A 
ATOM     30  C   UNL     1      -1.344 -10.130  10.688  0.00  0.00    +0.001 A 
ATOM     31  C   UNL     1      -0.593  -9.100  10.162  0.00  0.00    +0.013 A 
ENDBRANCH  24  26
ENDBRANCH  20  21
ENDBRANCH  19  20
ENDBRANCH   4  19
TORSDOF 6
