REMARK  Name = ZINC35329123
REMARK  15 active torsions:
REMARK  status: ('A' for Active; 'I' for Inactive)
REMARK    1  A    between atoms: C_1  and  C_2
REMARK    2  A    between atoms: C_2  and  N_3
REMARK    3  A    between atoms: N_3  and  C_4
REMARK    4  A    between atoms: N_3  and  C_6
REMARK    5  A    between atoms: C_4  and  C_5
REMARK    6  A    between atoms: C_6  and  C_7
REMARK    7  A    between atoms: C_7  and  C_8
REMARK    8  A    between atoms: C_8  and  C_9
REMARK    9  A    between atoms: C_9  and  C_11
REMARK   10  A    between atoms: C_9  and  N_12
REMARK   11  A    between atoms: C_13  and  C_15
REMARK   12  A    between atoms: C_19  and  N_21
REMARK   13  A    between atoms: N_21  and  C_22
REMARK   14  A    between atoms: N_32  and  C_33
REMARK   15  A    between atoms: C_33  and  C_34
REMARK                            x       y       z     vdW  Elec       q    Type
REMARK                         _______ _______ _______ _____ _____    ______ ____
ROOT
ATOM      1  C   UNL     1      -5.651  -2.062  -4.250  0.00  0.00    +0.038 A 
ATOM      2  C   UNL     1      -4.926  -1.820  -5.418  0.00  0.00    +0.013 A 
ATOM      3  C   UNL     1      -5.576  -1.387  -6.556  0.00  0.00    +0.003 A 
ATOM      4  C   UNL     1      -6.944  -1.190  -6.544  0.00  0.00    +0.023 A 
ATOM      5  C   UNL     1      -7.675  -1.429  -5.386  0.00  0.00    +0.029 A 
ATOM      6  C   UNL     1      -7.032  -1.870  -4.239  0.00  0.00    +0.036 A 
ENDROOT
BRANCH   1   8
ATOM      7  N   UNL     1      -3.622  -2.711  -3.042  0.00  0.00    -0.309 N 
ATOM      8  C   UNL     1      -4.957  -2.526  -3.029  0.00  0.00    +0.244 C 
ATOM      9  O   UNL     1      -5.591  -2.741  -2.014  0.00  0.00    -0.270 OA
ATOM     10  H   UNL     1      -3.117  -2.539  -3.852  0.00  0.00    +0.149 HD
BRANCH   7  11
ATOM     11  C   UNL     1      -2.935  -3.171  -1.833  0.00  0.00    +0.070 C 
ATOM     12  C   UNL     1      -2.998  -4.698  -1.760  0.00  0.00    +0.028 C 
BRANCH  11  13
ATOM     13  C   UNL     1      -1.473  -2.722  -1.876  0.00  0.00    +0.020 C 
BRANCH  13  14
ATOM     14  C   UNL     1      -1.406  -1.194  -1.823  0.00  0.00    -0.017 C 
BRANCH  14  15
ATOM     15  C   UNL     1       0.056  -0.746  -1.865  0.00  0.00    -0.079 C 
BRANCH  15  16
ATOM     16  N   UNL     1       0.120   0.721  -1.815  0.00  0.00    +0.379 N 
ATOM     17  H   UNL     1      -0.442   1.108  -2.558  0.00  0.00    -0.082 HD
BRANCH  16  19
ATOM     18  C   UNL     1      -0.460   2.717  -0.521  0.00  0.00    -0.017 C 
ATOM     19  C   UNL     1      -0.393   1.189  -0.520  0.00  0.00    -0.082 C 
ENDBRANCH  16  19
BRANCH  16  20
ATOM     20  C   UNL     1       1.514   1.156  -1.976  0.00  0.00    -0.082 C 
ATOM     21  C   UNL     1       2.001   0.795  -3.381  0.00  0.00    -0.017 C 
ENDBRANCH  16  20
ENDBRANCH  15  16
ENDBRANCH  14  15
ENDBRANCH  13  14
ENDBRANCH  11  13
ENDBRANCH   7  11
ENDBRANCH   1   8
BRANCH   5  22
ATOM     22  N   UNL     1      -9.058  -1.228  -5.379  0.00  0.00    -0.322 N 
ATOM     23  H   UNL     1      -9.511  -0.948  -6.189  0.00  0.00    +0.148 HD
BRANCH  22  24
ATOM     24  C   UNL     1      -9.822  -1.441  -4.147  0.00  0.00    +0.194 C 
ATOM     25  C   UNL     1     -10.833  -0.337  -3.967  0.00  0.00    +0.003 A 
ATOM     26  C   UNL     1     -10.723   1.027  -3.824  0.00  0.00    +0.008 A 
ATOM     27  C   UNL     1     -11.862   1.800  -3.672  0.00  0.00    +0.000 A 
ATOM     28  C   UNL     1     -13.111   1.206  -3.665  0.00  0.00    +0.001 A 
ATOM     29  C   UNL     1     -13.233  -0.161  -3.808  0.00  0.00    +0.013 A 
ATOM     30  C   UNL     1     -12.089  -0.948  -3.961  0.00  0.00    +0.043 A 
ATOM     31  C   UNL     1     -11.898  -2.401  -4.132  0.00  0.00    +0.249 C 
ATOM     32  O   UNL     1     -12.795  -3.220  -4.170  0.00  0.00    -0.270 OA
ATOM     33  N   UNL     1     -10.588  -2.690  -4.239  0.00  0.00    -0.271 N 
BRANCH  33  34
ATOM     34  C   UNL     1     -10.020  -4.028  -4.418  0.00  0.00    +0.145 C 
BRANCH  34  35
ATOM     35  C   UNL     1      -9.744  -4.641  -3.070  0.00  0.00    -0.030 A 
ATOM     36  C   UNL     1      -8.517  -4.448  -2.462  0.00  0.00    +0.008 A 
ATOM     37  C   UNL     1      -8.262  -5.009  -1.225  0.00  0.00    +0.038 A 
ATOM     38  C   UNL     1      -9.236  -5.765  -0.594  0.00  0.00    +0.123 A 
ATOM     39  C   UNL     1     -10.464  -5.958  -1.204  0.00  0.00    +0.038 A 
ATOM     40  C   UNL     1     -10.718  -5.391  -2.439  0.00  0.00    +0.008 A 
ATOM     41  F   UNL     1      -8.988  -6.314   0.615  0.00  0.00    -0.205 F 
ENDBRANCH  34  35
ENDBRANCH  33  34
ENDBRANCH  22  24
ENDBRANCH   5  22
TORSDOF 12
