REMARK  Name = ZINC38897938
REMARK  7 active torsions:
REMARK  status: ('A' for Active; 'I' for Inactive)
REMARK    1  A    between atoms: C_1  and  C_2
REMARK    2  A    between atoms: C_3  and  C_19
REMARK    3  A    between atoms: C_8  and  S_10
REMARK    4  A    between atoms: S_10  and  C_11
REMARK    5  A    between atoms: C_11  and  C_12
REMARK    6  A    between atoms: C_19  and  C_20
REMARK    7  A    between atoms: N_22  and  C_23
REMARK                            x       y       z     vdW  Elec       q    Type
REMARK                         _______ _______ _______ _____ _____    ______ ____
ROOT
ATOM      1  C   UNL     1      -0.026   1.503   0.029  0.00  0.00    +0.066 C 
ATOM      2  C   UNL     1      -0.001  -0.003   0.011  0.00  0.00    +0.050 A 
ATOM      3  C   UNL     1      -1.173  -0.704   0.004  0.00  0.00    +0.047 A 
ATOM      4  C   UNL     1      -1.125  -2.109  -0.013  0.00  0.00    +0.256 A 
ATOM      5  O   UNL     1      -2.153  -2.765  -0.019  0.00  0.00    -0.267 OA
ATOM      6  N   UNL     1       0.080  -2.717  -0.022  0.00  0.00    -0.302 N 
ATOM      7  H   UNL     1       0.136  -3.685  -0.034  0.00  0.00    +0.171 HD
ATOM      8  C   UNL     1       1.216  -1.966  -0.015  0.00  0.00    +0.169 A 
ATOM      9  N   UNL     1       1.162  -0.648  -0.004  0.00  0.00    -0.228 NA
ENDROOT
BRANCH   8  10
ATOM     10  S   UNL     1       2.785  -2.769  -0.026  0.00  0.00    -0.083 S 
BRANCH  10  11
ATOM     11  C   UNL     1       3.977  -1.402  -0.012  0.00  0.00    +0.112 C 
BRANCH  11  12
ATOM     12  C   UNL     1       5.378  -1.958  -0.021  0.00  0.00    -0.037 A 
ATOM     13  C   UNL     1       6.020  -2.232   1.173  0.00  0.00    +0.007 A 
ATOM     14  C   UNL     1       7.304  -2.741   1.166  0.00  0.00    +0.038 A 
ATOM     15  C   UNL     1       7.949  -2.978  -0.036  0.00  0.00    +0.123 A 
ATOM     16  C   UNL     1       7.305  -2.703  -1.231  0.00  0.00    +0.038 A 
ATOM     17  C   UNL     1       6.019  -2.198  -1.222  0.00  0.00    +0.007 A 
ATOM     18  F   UNL     1       9.204  -3.476  -0.044  0.00  0.00    -0.205 F 
ENDBRANCH  11  12
ENDBRANCH  10  11
ENDBRANCH   8  10
BRANCH   3  19
ATOM     19  C   UNL     1      -2.496   0.018   0.016  0.00  0.00    +0.138 C 
BRANCH  19  20
ATOM     20  C   UNL     1      -2.999   0.167  -1.397  0.00  0.00    +0.222 C 
ATOM     21  O   UNL     1      -2.347  -0.270  -2.322  0.00  0.00    -0.275 OA
ATOM     22  N   UNL     1      -4.173   0.785  -1.633  0.00  0.00    -0.285 N 
ATOM     23  H   UNL     1      -4.727   1.074  -0.890  0.00  0.00    +0.155 HD
BRANCH  22  24
ATOM     24  C   UNL     1      -4.595   1.010  -2.950  0.00  0.00    +0.037 A 
ATOM     25  C   UNL     1      -5.296   2.166  -3.267  0.00  0.00    +0.027 A 
ATOM     26  C   UNL     1      -5.712   2.387  -4.565  0.00  0.00    +0.051 A 
ATOM     27  C   UNL     1      -5.431   1.457  -5.556  0.00  0.00    +0.162 A 
ATOM     28  C   UNL     1      -4.728   0.301  -5.241  0.00  0.00    +0.164 A 
ATOM     29  C   UNL     1      -4.307   0.080  -3.939  0.00  0.00    +0.072 A 
ATOM     30  O   UNL     1      -4.436  -0.620  -6.201  0.00  0.00    -0.485 OA
ATOM     31  C   UNL     1      -5.189  -0.543  -7.416  0.00  0.00    +0.270 C 
ATOM     32  C   UNL     1      -5.231   0.924  -7.865  0.00  0.00    +0.270 C 
ATOM     33  O   UNL     1      -5.853   1.692  -6.829  0.00  0.00    -0.485 OA
ENDBRANCH  22  24
ENDBRANCH  19  20
ENDBRANCH   3  19
TORSDOF 6
