REMARK  Name = ZINC36044993
REMARK  9 active torsions:
REMARK  status: ('A' for Active; 'I' for Inactive)
REMARK    1  A    between atoms: C_1  and  C_2
REMARK    2  A    between atoms: C_5  and  N_8
REMARK    3  A    between atoms: C_10  and  C_34
REMARK    4  A    between atoms: C_14  and  C_16
REMARK    5  A    between atoms: C_16  and  N_17
REMARK    6  A    between atoms: N_17  and  C_18
REMARK    7  A    between atoms: C_18  and  C_19
REMARK    8  A    between atoms: C_25  and  C_27
REMARK    9  A    between atoms: C_32  and  C_33
REMARK                            x       y       z     vdW  Elec       q    Type
REMARK                         _______ _______ _______ _____ _____    ______ ____
ROOT
ATOM      1  N   UNL     1      -0.548  -5.195  -0.287  0.00  0.00    -0.287 N 
ATOM      2  C   UNL     1      -1.142  -6.227  -0.973  0.00  0.00    +0.122 A 
ATOM      3  C   UNL     1      -0.438  -7.349  -0.679  0.00  0.00    +0.091 A 
ATOM      4  N   UNL     1       0.560  -7.008   0.165  0.00  0.00    -0.214 NA
ATOM      5  C   UNL     1       0.505  -5.721   0.400  0.00  0.00    +0.207 A 
ATOM      6  N   UNL     1       1.374  -5.010   1.217  0.00  0.00    -0.254 N 
ATOM      7  C   UNL     1       2.382  -5.647   1.845  0.00  0.00    +0.237 C 
ATOM      8  O   UNL     1       2.530  -6.842   1.696  0.00  0.00    -0.274 OA
ATOM      9  H   UNL     1       1.256  -4.054   1.336  0.00  0.00    +0.158 HD
ENDROOT
BRANCH   1  14
ATOM     10  C   UNL     1      -2.166   0.245  -0.329  0.00  0.00    +0.044 C 
ATOM     11  C   UNL     1      -1.736  -1.199  -0.318  0.00  0.00    -0.050 A 
ATOM     12  C   UNL     1      -1.569  -1.878  -1.511  0.00  0.00    +0.005 A 
ATOM     13  C   UNL     1      -1.176  -3.202  -1.504  0.00  0.00    +0.026 A 
ATOM     14  C   UNL     1      -0.948  -3.851  -0.298  0.00  0.00    +0.049 A 
ATOM     15  C   UNL     1      -1.116  -3.166   0.898  0.00  0.00    +0.026 A 
ATOM     16  C   UNL     1      -1.504  -1.841   0.885  0.00  0.00    +0.005 A 
ENDBRANCH   1  14
BRANCH   3  17
ATOM     17  C   UNL     1      -0.716  -8.712  -1.194  0.00  0.00    +0.002 A 
ATOM     18  C   UNL     1      -1.781  -8.926  -2.068  0.00  0.00    +0.010 A 
ATOM     19  C   UNL     1      -2.035 -10.196  -2.544  0.00  0.00    +0.001 A 
ATOM     20  C   UNL     1      -1.236 -11.256  -2.155  0.00  0.00    +0.000 A 
ATOM     21  C   UNL     1      -0.178 -11.050  -1.287  0.00  0.00    +0.001 A 
ATOM     22  C   UNL     1       0.089  -9.783  -0.810  0.00  0.00    +0.010 A 
ENDBRANCH   3  17
BRANCH   7  23
ATOM     23  C   UNL     1       3.325  -4.876   2.732  0.00  0.00    +0.204 C 
BRANCH  23  24
ATOM     24  N   UNL     1       4.325  -5.789   3.293  0.00  0.00    -0.286 N 
ATOM     25  C   UNL     1       4.088  -6.409   4.466  0.00  0.00    +0.247 C 
ATOM     26  O   UNL     1       3.011  -6.279   5.015  0.00  0.00    -0.270 OA
BRANCH  25  27
ATOM     27  C   UNL     1       5.137  -7.247   5.084  0.00  0.00    +0.040 A 
ATOM     28  C   UNL     1       5.652  -8.346   4.395  0.00  0.00    +0.013 A 
ATOM     29  C   UNL     1       6.631  -9.124   4.977  0.00  0.00    +0.001 A 
ATOM     30  C   UNL     1       7.102  -8.817   6.242  0.00  0.00    +0.000 A 
ATOM     31  C   UNL     1       6.595  -7.729   6.930  0.00  0.00    +0.004 A 
ATOM     32  C   UNL     1       5.620  -6.940   6.357  0.00  0.00    -0.038 A 
ATOM     33  C   UNL     1       5.073  -5.752   7.106  0.00  0.00    +0.044 C 
ENDBRANCH  25  27
BRANCH  24  34
ATOM     34  C   UNL     1       5.581  -6.028   2.579  0.00  0.00    +0.140 C 
BRANCH  34  35
ATOM     35  C   UNL     1       6.668  -5.108   3.138  0.00  0.00    +0.136 C 
ATOM     36  C   UNL     1       7.999  -5.320   2.373  0.00  0.00    +0.035 C 
ATOM     37  C   UNL     1       8.694  -3.951   2.605  0.00  0.00    +0.031 C 
ATOM     38  C   UNL     1       7.499  -2.974   2.613  0.00  0.00    +0.160 C 
ATOM     39  O   UNL     1       6.321  -3.732   2.916  0.00  0.00    -0.375 OA
ENDBRANCH  34  35
ENDBRANCH  24  34
ENDBRANCH  23  24
ENDBRANCH   7  23
TORSDOF 7
