REMARK  Name = ZINC02642514
REMARK  14 active torsions:
REMARK  status: ('A' for Active; 'I' for Inactive)
REMARK    1  A    between atoms: C_1  and  C_2
REMARK    2  A    between atoms: C_2  and  N_3
REMARK    3  A    between atoms: N_3  and  C_4
REMARK    4  A    between atoms: N_3  and  S_10
REMARK    5  A    between atoms: S_10  and  C_13
REMARK    6  A    between atoms: C_17  and  C_19
REMARK    7  A    between atoms: C_19  and  O_21
REMARK    8  A    between atoms: O_21  and  C_22
REMARK    9  A    between atoms: C_22  and  C_23
REMARK   10  A    between atoms: C_23  and  C_25
REMARK   11  A    between atoms: C_26  and  C_35
REMARK   12  A    between atoms: C_27  and  C_32
REMARK   13  A    between atoms: C_28  and  C_31
REMARK   14  A    between atoms: C_32  and  C_34
REMARK                            x       y       z     vdW  Elec       q    Type
REMARK                         _______ _______ _______ _____ _____    ______ ____
ROOT
ATOM      1  C   UNL     1      -2.744  -1.571   2.073  0.00  0.00    +0.110 A 
ATOM      2  C   UNL     1      -2.757  -0.731   3.174  0.00  0.00    +0.030 A 
ATOM      3  C   UNL     1      -3.877  -0.657   3.982  0.00  0.00    +0.023 A 
ATOM      4  C   UNL     1      -4.991  -1.421   3.696  0.00  0.00    +0.055 A 
ATOM      5  C   UNL     1      -4.984  -2.271   2.586  0.00  0.00    +0.079 A 
ATOM      6  C   UNL     1      -3.851  -2.336   1.772  0.00  0.00    +0.045 A 
ATOM      7 CL   UNL     1      -6.395  -1.328   4.712  0.00  0.00    -0.083 Cl
ENDROOT
BRANCH   1   8
ATOM      8  S   UNL     1      -1.312  -1.657   1.051  0.00  0.00    +0.075 S 
ATOM      9  O   UNL     1      -1.435  -2.843   0.278  0.00  0.00    -0.150 OA
ATOM     10  O   UNL     1      -0.195  -1.409   1.894  0.00  0.00    -0.150 OA
BRANCH   8  11
ATOM     11  N   UNL     1      -1.392  -0.390  -0.013  0.00  0.00    -0.203 N 
BRANCH  11  12
ATOM     12  C   UNL     1      -1.913  -0.585  -1.294  0.00  0.00    +0.051 A 
ATOM     13  C   UNL     1      -3.268  -0.836  -1.464  0.00  0.00    +0.025 A 
ATOM     14  C   UNL     1      -3.780  -1.029  -2.732  0.00  0.00    +0.002 A 
ATOM     15  C   UNL     1      -2.944  -0.972  -3.832  0.00  0.00    +0.000 A 
ATOM     16  C   UNL     1      -1.594  -0.722  -3.667  0.00  0.00    +0.002 A 
ATOM     17  C   UNL     1      -1.077  -0.523  -2.402  0.00  0.00    +0.025 A 
ENDBRANCH  11  12
BRANCH  11  19
ATOM     18  C   UNL     1      -2.097   1.766   0.902  0.00  0.00    +0.026 C 
ATOM     19  C   UNL     1      -0.918   0.936   0.391  0.00  0.00    +0.128 C 
ENDBRANCH  11  19
ENDBRANCH   8  11
ENDBRANCH   1   8
BRANCH   5  20
ATOM     20  C   UNL     1      -6.171  -3.092   2.273  0.00  0.00    +0.341 C 
ATOM     21  O   UNL     1      -7.156  -3.030   2.981  0.00  0.00    -0.245 OA
BRANCH  20  22
ATOM     22  O   UNL     1      -6.161  -3.909   1.202  0.00  0.00    -0.453 OA
BRANCH  22  23
ATOM     23  C   UNL     1      -7.343  -4.674   0.959  0.00  0.00    +0.313 C 
BRANCH  23  24
ATOM     24  C   UNL     1      -7.148  -5.523  -0.271  0.00  0.00    +0.217 C 
ATOM     25  O   UNL     1      -6.098  -5.478  -0.879  0.00  0.00    -0.287 OA
BRANCH  24  26
ATOM     26  C   UNL     1      -8.188  -6.374  -0.716  0.00  0.00    +0.090 A 
ATOM     27  C   UNL     1      -8.140  -7.203  -1.815  0.00  0.00    -0.012 A 
ATOM     28  C   UNL     1      -9.389  -7.863  -1.884  0.00  0.00    +0.041 A 
ATOM     29  C   UNL     1     -10.150  -7.407  -0.818  0.00  0.00    +0.024 A 
ATOM     30  N   UNL     1      -9.425  -6.522  -0.120  0.00  0.00    -0.355 N 
ATOM     31  H   UNL     1      -9.723  -6.056   0.676  0.00  0.00    +0.166 HD
ATOM     32  C   UNL     1     -11.557  -7.839  -0.494  0.00  0.00    +0.064 C 
ATOM     33  C   UNL     1      -6.981  -7.373  -2.762  0.00  0.00    +0.047 C 
BRANCH  28  34
ATOM     34  C   UNL     1      -9.801  -8.844  -2.893  0.00  0.00    +0.162 C 
ATOM     35  O   UNL     1     -10.420  -8.484  -3.871  0.00  0.00    -0.292 OA
ATOM     36  C   UNL     1      -9.454 -10.300  -2.713  0.00  0.00    +0.091 C 
ENDBRANCH  28  34
ENDBRANCH  24  26
ENDBRANCH  23  24
ENDBRANCH  22  23
ENDBRANCH  20  22
ENDBRANCH   5  20
TORSDOF 10
