REMARK  Name = ZINC19225938
REMARK  7 active torsions:
REMARK  status: ('A' for Active; 'I' for Inactive)
REMARK    1  A    between atoms: C_1  and  C_2
REMARK    2  A    between atoms: C_2  and  C_17
REMARK    3  A    between atoms: N_5  and  C_9
REMARK    4  A    between atoms: C_9  and  C_10
REMARK    5  A    between atoms: C_23  and  C_25
REMARK    6  A    between atoms: C_25  and  C_26
REMARK    7  A    between atoms: C_26  and  C_27
REMARK                            x       y       z     vdW  Elec       q    Type
REMARK                         _______ _______ _______ _____ _____    ______ ____
ROOT
ATOM      1  C   UNL     1      -3.470   3.138   1.108  0.00  0.00    +0.024 C 
ATOM      2  C   UNL     1      -3.314   1.618   1.194  0.00  0.00    +0.025 C 
ATOM      3  C   UNL     1      -2.461   1.129   0.020  0.00  0.00    +0.108 C 
ATOM      4  N   UNL     1      -1.191   1.867   0.018  0.00  0.00    -0.301 N 
ATOM      5  C   UNL     1      -1.227   3.335   0.032  0.00  0.00    +0.108 C 
ATOM      6  C   UNL     1      -2.093   3.800   1.201  0.00  0.00    +0.025 C 
ATOM      7  C   UNL     1      -0.014   1.209   0.009  0.00  0.00    +0.216 C 
ATOM      8  O   UNL     1       0.002  -0.004   0.002  0.00  0.00    -0.276 OA
ENDROOT
BRANCH   1  10
ATOM      9  C   UNL     1      -5.729   2.968   2.199  0.00  0.00    +0.042 C 
ATOM     10  C   UNL     1      -4.350   3.627   2.260  0.00  0.00    +0.113 C 
ATOM     11  C   UNL     1      -4.479   5.137   2.229  0.00  0.00    +0.247 C 
ATOM     12  O   UNL     1      -4.958   5.813   1.344  0.00  0.00    -0.273 OA
ATOM     13  N   UNL     1      -3.946   5.569   3.393  0.00  0.00    -0.220 N 
ATOM     14  C   UNL     1      -3.508   4.552   4.144  0.00  0.00    +0.310 C 
ATOM     15  O   UNL     1      -2.991   4.691   5.235  0.00  0.00    -0.252 OA
ATOM     16  N   UNL     1      -3.703   3.358   3.556  0.00  0.00    -0.285 N 
ATOM     17  H   UNL     1      -3.482   2.323   3.856  0.00  0.00    +0.151 HD
BRANCH  13  18
ATOM     18  C   UNL     1      -3.860   6.978   3.785  0.00  0.00    +0.153 C 
BRANCH  18  19
ATOM     19  C   UNL     1      -2.554   7.555   3.302  0.00  0.00    -0.029 A 
ATOM     20  C   UNL     1      -1.436   7.506   4.113  0.00  0.00    +0.008 A 
ATOM     21  C   UNL     1      -0.236   8.030   3.670  0.00  0.00    +0.038 A 
ATOM     22  C   UNL     1      -0.158   8.614   2.417  0.00  0.00    +0.123 A 
ATOM     23  C   UNL     1      -1.280   8.668   1.608  0.00  0.00    +0.038 A 
ATOM     24  C   UNL     1      -2.477   8.138   2.051  0.00  0.00    +0.008 A 
ATOM     25  F   UNL     1       1.012   9.132   1.984  0.00  0.00    -0.205 F 
ENDBRANCH  18  19
ENDBRANCH  13  18
ENDBRANCH   1  10
BRANCH   7  26
ATOM     26  C   UNL     1       1.280   1.980   0.001  0.00  0.00    +0.100 C 
BRANCH  26  27
ATOM     27  C   UNL     1       2.457   1.002  -0.016  0.00  0.00    +0.046 C 
BRANCH  27  28
ATOM     28  C   UNL     1       3.751   1.773  -0.024  0.00  0.00    -0.022 A 
ATOM     29  C   UNL     1       4.478   2.101  -1.104  0.00  0.00    +0.087 A 
ATOM     30  N   UNL     1       5.589   2.803  -0.723  0.00  0.00    -0.360 N 
ATOM     31  H   UNL     1       6.300   3.162  -1.481  0.00  0.00    +0.165 HD
ATOM     32  C   UNL     1       5.609   2.940   0.647  0.00  0.00    +0.047 A 
ATOM     33  C   UNL     1       4.459   2.300   1.145  0.00  0.00    +0.003 A 
ATOM     34  C   UNL     1       4.212   2.280   2.519  0.00  0.00    +0.010 A 
ATOM     35  C   UNL     1       5.091   2.882   3.375  0.00  0.00    +0.001 A 
ATOM     36  C   UNL     1       6.228   3.514   2.889  0.00  0.00    +0.002 A 
ATOM     37  C   UNL     1       6.490   3.546   1.537  0.00  0.00    +0.026 A 
ENDBRANCH  27  28
ENDBRANCH  26  27
ENDBRANCH   7  26
TORSDOF 6
