REMARK  Name = ZINC31913804
REMARK  5 active torsions:
REMARK  status: ('A' for Active; 'I' for Inactive)
REMARK    1  A    between atoms: C_1  and  C_2
REMARK    2  A    between atoms: C_2  and  C_3
REMARK    3  A    between atoms: C_3  and  C_5
REMARK    4  A    between atoms: C_3  and  O_24
REMARK    5  A    between atoms: C_6  and  C_14
REMARK                            x       y       z     vdW  Elec       q    Type
REMARK                         _______ _______ _______ _____ _____    ______ ____
ROOT
ATOM      1  C   UNL     1      -4.747  -0.361   0.621  0.00  0.00    +0.079 A 
ATOM      2  C   UNL     1      -3.730  -0.419  -0.283  0.00  0.00    +0.096 A 
ATOM      3  N   UNL     1      -3.903  -1.513  -1.042  0.00  0.00    -0.227 NA
ATOM      4  C   UNL     1      -4.992  -2.151  -0.641  0.00  0.00    +0.139 A 
ATOM      5  N   UNL     1      -5.545  -1.449   0.400  0.00  0.00    -0.300 N 
ATOM      6  C   UNL     1      -6.689  -1.889   1.000  0.00  0.00    +0.093 A 
ATOM      7  C   UNL     1      -7.295  -3.019   0.581  0.00  0.00    +0.018 A 
ATOM      8  C   UNL     1      -6.754  -3.761  -0.482  0.00  0.00    +0.005 A 
ATOM      9  C   UNL     1      -5.614  -3.334  -1.090  0.00  0.00    +0.047 A 
ENDROOT
BRANCH   2  10
ATOM     10  C   UNL     1      -2.623   0.561  -0.411  0.00  0.00    +0.006 A 
ATOM     11  C   UNL     1      -2.888   1.927  -0.334  0.00  0.00    +0.014 A 
ATOM     12  C   UNL     1      -1.858   2.837  -0.459  0.00  0.00    +0.050 A 
ATOM     13  C   UNL     1      -0.556   2.397  -0.653  0.00  0.00    +0.162 A 
ATOM     14  C   UNL     1      -0.286   1.034  -0.728  0.00  0.00    +0.163 A 
ATOM     15  C   UNL     1      -1.317   0.118  -0.608  0.00  0.00    +0.059 A 
ATOM     16  O   UNL     1       0.985   0.586  -0.917  0.00  0.00    -0.485 OA
ATOM     17  C   UNL     1       1.937   1.537  -1.407  0.00  0.00    +0.270 C 
ATOM     18  C   UNL     1       1.782   2.832  -0.598  0.00  0.00    +0.270 C 
ATOM     19  O   UNL     1       0.444   3.312  -0.774  0.00  0.00    -0.485 OA
ENDBRANCH   2  10
BRANCH   1  20
ATOM     20  C   UNL     1      -4.955   0.703   1.668  0.00  0.00    +0.163 C 
BRANCH  20  22
ATOM     21  C   UNL     1      -4.698   1.251   4.092  0.00  0.00    +0.007 C 
ATOM     22  C   UNL     1      -4.604   0.139   3.046  0.00  0.00    +0.034 C 
ENDBRANCH  20  22
BRANCH  20  23
ATOM     23  O   UNL     1      -6.321   1.121   1.658  0.00  0.00    -0.386 OA
ATOM     24  H   UNL     1      -6.757   1.556   0.747  0.00  0.00    +0.210 HD
ENDBRANCH  20  23
ENDBRANCH   1  20
TORSDOF 4
