REMARK  Name = ZINC08265729
REMARK  8 active torsions:
REMARK  status: ('A' for Active; 'I' for Inactive)
REMARK    1  A    between atoms: C_1  and  C_2
REMARK    2  A    between atoms: C_5  and  C_8
REMARK    3  A    between atoms: C_8  and  C_10
REMARK    4  A    between atoms: C_8  and  N_47
REMARK    5  A    between atoms: C_16  and  C_17
REMARK    6  A    between atoms: C_16  and  N_47
REMARK    7  A    between atoms: N_19  and  C_20
REMARK    8  A    between atoms: C_21  and  C_25
REMARK                            x       y       z     vdW  Elec       q    Type
REMARK                         _______ _______ _______ _____ _____    ______ ____
ROOT
ATOM      1  N   UNL     1      -0.709   1.566   1.217  0.00  0.00    +0.392 N 
ATOM      2  H   UNL     1      -0.723   2.592   1.214  0.00  0.00    -0.084 HD
ATOM      3  H   UNL     1      -1.672   1.210   1.216  0.00  0.00    -0.084 HD
ENDROOT
BRANCH   1   4
ATOM      4  C   UNL     1      -0.016   1.091   2.429  0.00  0.00    -0.009 C 
BRANCH   4   9
ATOM      5  C   UNL     1      -3.781   0.889   6.809  0.00  0.00    +0.044 C 
ATOM      6  C   UNL     1      -2.799   0.942   5.667  0.00  0.00    -0.050 A 
ATOM      7  C   UNL     1      -1.858  -0.060   5.517  0.00  0.00    +0.003 A 
ATOM      8  C   UNL     1      -0.958  -0.012   4.470  0.00  0.00    +0.002 A 
ATOM      9  C   UNL     1      -0.998   1.038   3.571  0.00  0.00    -0.057 A 
ATOM     10  C   UNL     1      -1.935   2.043   3.724  0.00  0.00    +0.002 A 
ATOM     11  C   UNL     1      -2.839   1.992   4.769  0.00  0.00    +0.003 A 
ENDBRANCH   4   9
BRANCH   4  12
ATOM     12  C   UNL     1       1.103   2.040   2.773  0.00  0.00    -0.057 A 
ATOM     13  C   UNL     1       0.923   3.403   2.628  0.00  0.00    +0.002 A 
ATOM     14  C   UNL     1       1.949   4.273   2.947  0.00  0.00    +0.000 A 
ATOM     15  C   UNL     1       3.158   3.780   3.402  0.00  0.00    +0.000 A 
ATOM     16  C   UNL     1       3.339   2.417   3.542  0.00  0.00    +0.000 A 
ATOM     17  C   UNL     1       2.312   1.546   3.227  0.00  0.00    +0.002 A 
ENDBRANCH   4  12
ENDBRANCH   1   4
BRANCH   1  18
ATOM     18  C   UNL     1      -0.013   1.086   0.008  0.00  0.00    +0.016 C 
BRANCH  18  19
ATOM     19  C   UNL     1      -0.742   1.585  -1.213  0.00  0.00    +0.201 C 
ATOM     20  O   UNL     1      -1.736   2.268  -1.088  0.00  0.00    -0.278 OA
ATOM     21  N   UNL     1      -0.288   1.272  -2.443  0.00  0.00    -0.281 N 
ATOM     22  H   UNL     1       0.507   0.726  -2.543  0.00  0.00    +0.155 HD
BRANCH  21  23
ATOM     23  C   UNL     1      -0.959   1.732  -3.566  0.00  0.00    +0.084 A 
ATOM     24  C   UNL     1      -0.646   1.522  -4.904  0.00  0.00    +0.065 A 
ATOM     25  C   UNL     1      -1.528   2.120  -5.878  0.00  0.00    +0.022 A 
ATOM     26  C   UNL     1      -2.567   2.835  -5.410  0.00  0.00    +0.048 A 
ATOM     27  S   UNL     1      -2.385   2.712  -3.642  0.00  0.00    -0.081 S 
BRANCH  24  28
ATOM     28  C   UNL     1       0.519   0.730  -5.307  0.00  0.00    +0.244 C 
ATOM     29  O   UNL     1       1.241   0.236  -4.460  0.00  0.00    -0.270 OA
ATOM     30  N   UNL     1       0.792   0.547  -6.614  0.00  0.00    -0.325 N 
ATOM     31  H   UNL     1       0.217   0.941  -7.289  0.00  0.00    +0.145 HD
ATOM     32  H   UNL     1       1.563   0.023  -6.880  0.00  0.00    +0.145 HD
ENDBRANCH  24  28
ENDBRANCH  21  23
ENDBRANCH  18  19
ENDBRANCH   1  18
TORSDOF 7
