REMARK  Name = ZINC38717128
REMARK  3 active torsions:
REMARK  status: ('A' for Active; 'I' for Inactive)
REMARK    1  A    between atoms: C_7  and  N_13
REMARK    2  A    between atoms: C_14  and  C_16
REMARK    3  A    between atoms: N_18  and  C_19
REMARK                            x       y       z     vdW  Elec       q    Type
REMARK                         _______ _______ _______ _____ _____    ______ ____
ROOT
ATOM      1  N   UNL     1       1.794   0.288   6.057  0.00  0.00    -0.305 N 
ATOM      2  C   UNL     1       0.735   0.204   6.886  0.00  0.00    +0.299 C 
ATOM      3  O   UNL     1      -0.392   0.246   6.437  0.00  0.00    -0.265 OA
ATOM      4  H   UNL     1       2.695   0.254   6.416  0.00  0.00    +0.149 HD
ENDROOT
BRANCH   1  11
ATOM      5  C   UNL     1      -0.019   1.526   0.010  0.00  0.00    -0.000 C 
ATOM      6  C   UNL     1       1.417   2.055  -0.000  0.00  0.00    +0.000 C 
ATOM      7  C   UNL     1       1.608   3.035   1.159  0.00  0.00    +0.000 C 
ATOM      8  C   UNL     1       2.819   2.610   1.992  0.00  0.00    +0.000 C 
ATOM      9  C   UNL     1       2.410   2.487   3.461  0.00  0.00    +0.002 C 
ATOM     10  C   UNL     1       2.806   1.106   3.986  0.00  0.00    +0.022 C 
ATOM     11  C   UNL     1       1.586   0.429   4.614  0.00  0.00    +0.073 C 
ATOM     12  C   UNL     1       1.392  -0.954   3.989  0.00  0.00    +0.022 C 
ATOM     13  C   UNL     1      -0.040  -1.080   3.465  0.00  0.00    +0.002 C 
ATOM     14  C   UNL     1      -0.010  -1.509   1.997  0.00  0.00    +0.000 C 
ATOM     15  C   UNL     1      -0.843  -0.532   1.163  0.00  0.00    +0.000 C 
ATOM     16  C   UNL     1       0.002  -0.004   0.002  0.00  0.00    +0.000 C 
ENDBRANCH   1  11
BRANCH   2  17
ATOM     17  C   UNL     1       0.947   0.060   8.358  0.00  0.00    +0.299 C 
ATOM     18  O   UNL     1       2.074   0.018   8.807  0.00  0.00    -0.265 OA
ATOM     19  N   UNL     1      -0.112  -0.023   9.187  0.00  0.00    -0.305 N 
ATOM     20  H   UNL     1      -1.013   0.010   8.828  0.00  0.00    +0.149 HD
BRANCH  19  21
ATOM     21  C   UNL     1       0.096  -0.165  10.630  0.00  0.00    +0.073 C 
ATOM     22  C   UNL     1       0.223   1.227  11.285  0.00  0.00    +0.022 C 
ATOM     23  C   UNL     1      -1.206   1.538  11.795  0.00  0.00    +0.002 C 
ATOM     24  C   UNL     1      -1.697   0.158  12.299  0.00  0.00    +0.002 C 
ATOM     25  C   UNL     1      -1.125  -0.844  11.275  0.00  0.00    +0.022 C 
ENDBRANCH  19  21
ENDBRANCH   2  17
TORSDOF 3
