REMARK  Name = ZINC57312004
REMARK  14 active torsions:
REMARK  status: ('A' for Active; 'I' for Inactive)
REMARK    1  A    between atoms: C_1  and  C_2
REMARK    2  A    between atoms: C_2  and  N_3
REMARK    3  A    between atoms: N_3  and  C_4
REMARK    4  A    between atoms: N_3  and  C_6
REMARK    5  A    between atoms: C_4  and  C_5
REMARK    6  A    between atoms: C_6  and  C_7
REMARK    7  A    between atoms: C_7  and  C_8
REMARK    8  A    between atoms: C_8  and  C_9
REMARK    9  A    between atoms: C_9  and  C_11
REMARK   10  A    between atoms: C_9  and  N_12
REMARK   11  A    between atoms: C_13  and  C_15
REMARK   12  A    between atoms: C_17  and  C_33
REMARK   13  A    between atoms: C_21  and  C_32
REMARK   14  A    between atoms: N_23  and  C_24
REMARK                            x       y       z     vdW  Elec       q    Type
REMARK                         _______ _______ _______ _____ _____    ______ ____
ROOT
ATOM      1  C   UNL     1       1.920  -2.981   7.632  0.00  0.00    +0.051 A 
ATOM      2  C   UNL     1       0.537  -2.852   7.574  0.00  0.00    +0.042 A 
ATOM      3  C   UNL     1      -0.182  -2.668   8.759  0.00  0.00    +0.077 A 
ATOM      4  N   UNL     1       0.425  -2.615   9.933  0.00  0.00    -0.227 NA
ATOM      5  C   UNL     1       1.739  -2.732  10.047  0.00  0.00    +0.160 A 
ATOM      6  C   UNL     1       2.539  -2.925   8.902  0.00  0.00    +0.054 A 
ATOM      7  C   UNL     1       3.876  -3.019   9.341  0.00  0.00    +0.070 A 
ATOM      8  N   UNL     1       3.898  -2.901  10.638  0.00  0.00    -0.174 NA
ATOM      9  N   UNL     1       2.596  -2.714  11.117  0.00  0.00    -0.241 N 
ATOM     10  C   UNL     1       5.079  -3.224   8.456  0.00  0.00    +0.068 C 
ENDROOT
BRANCH   9  11
ATOM     11  C   UNL     1       2.214  -2.542  12.521  0.00  0.00    +0.132 C 
ATOM     12  C   UNL     1       2.922  -1.307  13.104  0.00  0.00    +0.051 C 
ATOM     13  C   UNL     1       2.784  -1.300  14.646  0.00  0.00    +0.168 C 
ATOM     14  S   UNL     1       2.639  -3.089  15.047  0.00  0.00    -0.029 S 
ATOM     15  O   UNL     1       1.367  -3.329  15.633  0.00  0.00    -0.174 OA
ATOM     16  O   UNL     1       3.814  -3.506  15.730  0.00  0.00    -0.174 OA
ATOM     17  C   UNL     1       2.656  -3.786  13.342  0.00  0.00    +0.192 C 
ENDBRANCH   9  11
BRANCH   3  18
ATOM     18  C   UNL     1      -1.657  -2.530   8.698  0.00  0.00    +0.036 A 
ATOM     19  C   UNL     1      -2.315  -2.589   7.471  0.00  0.00    +0.013 A 
ATOM     20  C   UNL     1      -3.688  -2.459   7.420  0.00  0.00    +0.001 A 
ATOM     21  C   UNL     1      -4.413  -2.271   8.584  0.00  0.00    +0.003 A 
ATOM     22  C   UNL     1      -3.767  -2.212   9.805  0.00  0.00    +0.039 A 
ATOM     23  C   UNL     1      -2.393  -2.346   9.870  0.00  0.00    +0.133 A 
ATOM     24  F   UNL     1      -1.763  -2.295  11.064  0.00  0.00    -0.205 F 
ENDBRANCH   3  18
BRANCH   1  26
ATOM     25  N   UNL     1       2.246  -3.954   5.408  0.00  0.00    -0.309 N 
ATOM     26  C   UNL     1       2.719  -3.177   6.403  0.00  0.00    +0.245 C 
ATOM     27  O   UNL     1       3.802  -2.637   6.289  0.00  0.00    -0.270 OA
ATOM     28  H   UNL     1       1.382  -4.385   5.499  0.00  0.00    +0.149 HD
BRANCH  25  29
ATOM     29  C   UNL     1       3.038  -4.148   4.191  0.00  0.00    +0.070 C 
ATOM     30  C   UNL     1       4.037  -5.287   4.408  0.00  0.00    +0.028 C 
BRANCH  29  31
ATOM     31  C   UNL     1       2.107  -4.501   3.029  0.00  0.00    +0.020 C 
BRANCH  31  32
ATOM     32  C   UNL     1       1.191  -3.313   2.731  0.00  0.00    -0.017 C 
BRANCH  32  33
ATOM     33  C   UNL     1       0.260  -3.666   1.568  0.00  0.00    -0.079 C 
BRANCH  33  34
ATOM     34  N   UNL     1      -0.702  -2.575   1.363  0.00  0.00    +0.379 N 
ATOM     35  H   UNL     1      -1.185  -2.385   2.229  0.00  0.00    -0.082 HD
BRANCH  34  37
ATOM     36  C   UNL     1      -0.973  -0.200   0.832  0.00  0.00    -0.017 C 
ATOM     37  C   UNL     1       0.011  -1.368   0.925  0.00  0.00    -0.082 C 
ENDBRANCH  34  37
BRANCH  34  38
ATOM     38  C   UNL     1      -1.676  -2.968   0.336  0.00  0.00    -0.082 C 
ATOM     39  C   UNL     1      -2.526  -4.129   0.857  0.00  0.00    -0.017 C 
ENDBRANCH  34  38
ENDBRANCH  33  34
ENDBRANCH  32  33
ENDBRANCH  31  32
ENDBRANCH  29  31
ENDBRANCH  25  29
ENDBRANCH   1  26
TORSDOF 10
