REMARK  Name = ZINC39722617
REMARK  5 active torsions:
REMARK  status: ('A' for Active; 'I' for Inactive)
REMARK    1  A    between atoms: C_6  and  C_7
REMARK    2  A    between atoms: C_11  and  C_16
REMARK    3  A    between atoms: C_16  and  S_17
REMARK    4  A    between atoms: S_17  and  C_18
REMARK    5  A    between atoms: N_32  and  C_33
REMARK                            x       y       z     vdW  Elec       q    Type
REMARK                         _______ _______ _______ _____ _____    ______ ____
ROOT
ATOM      1  C   UNL     1       7.300  -3.267  -0.087  0.00  0.00    +0.255 C 
ATOM      2  N   UNL     1       7.985  -2.876  -1.322  0.00  0.00    -0.243 NA
ATOM      3  C   UNL     1       9.256  -2.702  -1.312  0.00  0.00    +0.107 C 
ATOM      4  C   UNL     1      10.091  -2.737  -0.068  0.00  0.00    +0.069 C 
ATOM      5  C   UNL     1      11.411  -2.757  -0.204  0.00  0.00    -0.042 C 
ATOM      6  C   UNL     1      11.921  -2.924  -1.646  0.00  0.00    +0.079 C 
ATOM      7  S   UNL     1      10.439  -2.404  -2.598  0.00  0.00    -0.098 S 
ATOM      8  C   UNL     1      13.039  -1.867  -1.713  0.00  0.00    +0.019 C 
ATOM      9  C   UNL     1      13.752  -2.045  -0.350  0.00  0.00    +0.006 C 
ATOM     10  C   UNL     1      12.711  -2.662   0.589  0.00  0.00    +0.033 C 
ATOM     11  C   UNL     1       9.338  -2.729   1.229  0.00  0.00    +0.252 C 
ATOM     12  O   UNL     1       9.893  -2.581   2.300  0.00  0.00    -0.270 OA
ATOM     13  N   UNL     1       8.002  -2.893   1.127  0.00  0.00    -0.264 N 
ENDROOT
BRANCH  13  14
ATOM     14  C   UNL     1       7.202  -2.681   2.335  0.00  0.00    +0.079 C 
ATOM     15  C   UNL     1       7.441  -1.260   2.885  0.00  0.00    +0.022 C 
ATOM     16  C   UNL     1       7.418  -1.438   4.423  0.00  0.00    +0.002 C 
ATOM     17  C   UNL     1       8.135  -2.797   4.620  0.00  0.00    +0.002 C 
ATOM     18  C   UNL     1       7.643  -3.659   3.438  0.00  0.00    +0.022 C 
ENDBRANCH  13  14
BRANCH   1  19
ATOM     19  S   UNL     1       5.661  -2.489  -0.066  0.00  0.00    -0.107 S 
BRANCH  19  20
ATOM     20  C   UNL     1       6.020  -0.711  -0.060  0.00  0.00    +0.147 C 
BRANCH  20  28
ATOM     21  C   UNL     1      -0.017   1.396   0.010  0.00  0.00    +0.016 A 
ATOM     22  C   UNL     1       1.150   2.107   0.002  0.00  0.00    +0.016 A 
ATOM     23  C   UNL     1       2.371   1.436  -0.013  0.00  0.00    +0.065 A 
ATOM     24  C   UNL     1       2.408   0.024  -0.021  0.00  0.00    +0.079 A 
ATOM     25  C   UNL     1       1.210  -0.693  -0.013  0.00  0.00    +0.043 A 
ATOM     26  C   UNL     1       0.002  -0.004   0.002  0.00  0.00    +0.065 A 
ATOM     27  N   UNL     1       3.611  -0.603  -0.036  0.00  0.00    -0.233 NA
ATOM     28  C   UNL     1       4.726   0.063  -0.043  0.00  0.00    +0.120 A 
ATOM     29  N   UNL     1       4.787   1.420  -0.036  0.00  0.00    -0.310 N 
ATOM     30  H   UNL     1       5.650   1.862  -0.042  0.00  0.00    +0.170 HD
ATOM     31  C   UNL     1       3.654   2.160  -0.022  0.00  0.00    +0.259 A 
ATOM     32  O   UNL     1       3.694   3.376  -0.016  0.00  0.00    -0.267 OA
BRANCH  26  33
ATOM     33  C   UNL     1      -1.271  -0.755   0.011  0.00  0.00    +0.387 C 
ATOM     34  O   UNL     1      -2.335  -0.154   0.024  0.00  0.00    -0.241 OA
ATOM     35  O   UNL     1      -1.259  -1.978   0.004  0.00  0.00    -0.241 OA
ENDBRANCH  26  33
ENDBRANCH  20  28
ENDBRANCH  19  20
ENDBRANCH   1  19
TORSDOF 5
