REMARK  Name = ZINC59262196
REMARK  8 active torsions:
REMARK  status: ('A' for Active; 'I' for Inactive)
REMARK    1  A    between atoms: C_1  and  C_2
REMARK    2  A    between atoms: C_2  and  C_3
REMARK    3  A    between atoms: C_2  and  C_4
REMARK    4  A    between atoms: C_4  and  C_5
REMARK    5  A    between atoms: C_5  and  S_6
REMARK    6  A    between atoms: S_6  and  C_7
REMARK    7  A    between atoms: C_10  and  C_18
REMARK    8  A    between atoms: N_11  and  C_12
REMARK                            x       y       z     vdW  Elec       q    Type
REMARK                         _______ _______ _______ _____ _____    ______ ____
ROOT
ATOM      1  C   UNL     1      -2.929  -4.430  -0.269  0.00  0.00    +0.196 A 
ATOM      2  N   UNL     1      -1.794  -5.087  -0.365  0.00  0.00    -0.122 NA
ATOM      3  N   UNL     1      -2.020  -6.348  -0.469  0.00  0.00    -0.128 NA
ATOM      4  C   UNL     1      -3.313  -6.576  -0.444  0.00  0.00    +0.169 A 
ATOM      5  N   UNL     1      -3.936  -5.354  -0.309  0.00  0.00    -0.270 N 
ENDROOT
BRANCH   5   6
ATOM      6  C   UNL     1      -5.314  -5.110  -0.232  0.00  0.00    +0.051 A 
ATOM      7  C   UNL     1      -6.044  -5.577   0.853  0.00  0.00    +0.026 A 
ATOM      8  C   UNL     1      -7.402  -5.334   0.926  0.00  0.00    +0.002 A 
ATOM      9  C   UNL     1      -8.034  -4.627  -0.080  0.00  0.00    +0.000 A 
ATOM     10  C   UNL     1      -7.310  -4.161  -1.162  0.00  0.00    +0.002 A 
ATOM     11  C   UNL     1      -5.951  -4.396  -1.238  0.00  0.00    +0.026 A 
ENDBRANCH   5   6
BRANCH   4  12
ATOM     12  C   UNL     1      -3.974  -7.894  -0.538  0.00  0.00    +0.022 A 
ATOM     13  C   UNL     1      -5.343  -7.994  -0.818  0.00  0.00    +0.031 A 
ATOM     14  C   UNL     1      -5.919  -9.245  -0.896  0.00  0.00    +0.111 A 
ATOM     15  N   UNL     1      -5.199 -10.335  -0.711  0.00  0.00    -0.263 NA
ATOM     16  C   UNL     1      -3.908 -10.286  -0.445  0.00  0.00    +0.111 A 
ATOM     17  C   UNL     1      -3.249  -9.078  -0.354  0.00  0.00    +0.031 A 
ENDBRANCH   4  12
BRANCH   1  18
ATOM     18  S   UNL     1      -3.118  -2.686  -0.108  0.00  0.00    -0.086 S 
BRANCH  18  19
ATOM     19  C   UNL     1      -1.416  -2.058  -0.121  0.00  0.00    +0.078 C 
BRANCH  19  20
ATOM     20  C   UNL     1      -1.433  -0.534   0.013  0.00  0.00    +0.014 C 
BRANCH  20  22
ATOM     21  C   UNL     1      -0.019   1.526   0.010  0.00  0.00    +0.007 C 
ATOM     22  C   UNL     1       0.002  -0.004   0.002  0.00  0.00    -0.016 C 
ATOM     23  C   UNL     1       0.742  -0.511   1.242  0.00  0.00    +0.007 C 
ENDBRANCH  20  22
ENDBRANCH  19  20
ENDBRANCH  18  19
ENDBRANCH   1  18
TORSDOF 6
