REMARK  Name = ZINC39672905
REMARK  8 active torsions:
REMARK  status: ('A' for Active; 'I' for Inactive)
REMARK    1  A    between atoms: C_1  and  C_2
REMARK    2  A    between atoms: C_2  and  C_3
REMARK    3  A    between atoms: C_3  and  C_5
REMARK    4  A    between atoms: C_3  and  C_11
REMARK    5  A    between atoms: C_15  and  C_24
REMARK    6  A    between atoms: N_26  and  C_27
REMARK    7  A    between atoms: C_27  and  C_28
REMARK    8  A    between atoms: C_28  and  N_34
REMARK                            x       y       z     vdW  Elec       q    Type
REMARK                         _______ _______ _______ _____ _____    ______ ____
ROOT
ATOM      1  C   UNL     1      -0.225   0.035   3.074  0.00  0.00    +0.223 C 
ATOM      2  O   UNL     1      -0.465  -0.663   4.036  0.00  0.00    -0.275 OA
ATOM      3  N   UNL     1      -0.448   1.363   3.131  0.00  0.00    -0.300 N 
ATOM      4  C   UNL     1      -0.130   2.382   2.104  0.00  0.00    +0.121 C 
ATOM      5  C   UNL     1      -1.335   3.349   2.128  0.00  0.00    +0.100 C 
ATOM      6  C   UNL     1      -1.944   3.183   3.530  0.00  0.00    -0.004 C 
ATOM      7  C   UNL     1      -1.072   2.132   4.234  0.00  0.00    +0.115 C 
ATOM      8  C   UNL     1      -3.381   2.682   3.426  0.00  0.00    -0.010 C 
ATOM      9  C   UNL     1      -3.984   2.579   4.830  0.00  0.00    -0.082 C 
ATOM     10  N   UNL     1      -3.949   3.896   5.478  0.00  0.00    +0.379 N 
ATOM     11  C   UNL     1      -2.558   4.328   5.658  0.00  0.00    -0.082 C 
ATOM     12  C   UNL     1      -1.895   4.505   4.289  0.00  0.00    -0.010 C 
ATOM     13  H   UNL     1      -4.436   4.565   4.901  0.00  0.00    -0.086 HD
ATOM     14  H   UNL     1      -4.401   3.838   6.378  0.00  0.00    -0.086 HD
ENDROOT
BRANCH   5  15
ATOM     15  C   UNL     1      -0.873   4.769   1.919  0.00  0.00    +0.218 C 
ATOM     16  O   UNL     1       0.258   5.088   2.218  0.00  0.00    -0.275 OA
ATOM     17  N   UNL     1      -1.717   5.683   1.401  0.00  0.00    -0.313 N 
ATOM     18  H   UNL     1      -2.622   5.427   1.162  0.00  0.00    +0.149 HD
BRANCH  17  19
ATOM     19  C   UNL     1      -1.268   7.062   1.198  0.00  0.00    +0.126 C 
BRANCH  19  20
ATOM     20  C   UNL     1      -2.444   7.917   0.720  0.00  0.00    +0.038 C 
ATOM     21  C   UNL     1      -1.959   9.340   0.439  0.00  0.00    +0.024 C 
ATOM     22  C   UNL     1      -1.378   9.943   1.720  0.00  0.00    +0.002 C 
ATOM     23  C   UNL     1      -2.458   9.977   2.803  0.00  0.00    +0.000 C 
ATOM     24  C   UNL     1      -2.943   8.553   3.084  0.00  0.00    +0.002 C 
ATOM     25  C   UNL     1      -3.524   7.950   1.804  0.00  0.00    +0.024 C 
BRANCH  20  26
ATOM     26  N   UNL     1      -3.002   7.338  -0.509  0.00  0.00    -0.291 NA
ATOM     27  C   UNL     1      -1.952   7.130  -1.517  0.00  0.00    +0.113 C 
ATOM     28  C   UNL     1      -2.564   6.472  -2.756  0.00  0.00    +0.175 C 
ATOM     29  O   UNL     1      -3.631   7.289  -3.246  0.00  0.00    -0.377 OA
ATOM     30  C   UNL     1      -4.671   7.511  -2.290  0.00  0.00    +0.175 C 
ATOM     31  C   UNL     1      -4.080   8.180  -1.046  0.00  0.00    +0.113 C 
ENDBRANCH  20  26
ENDBRANCH  19  20
ENDBRANCH  17  19
ENDBRANCH   5  15
BRANCH   1  32
ATOM     32  C   UNL     1       0.324  -0.583   1.813  0.00  0.00    +0.105 C 
BRANCH  32  33
ATOM     33  C   UNL     1       1.823  -0.691   1.918  0.00  0.00    -0.036 A 
ATOM     34  C   UNL     1       2.393  -1.443   2.928  0.00  0.00    +0.004 A 
ATOM     35  C   UNL     1       3.769  -1.542   3.024  0.00  0.00    +0.000 A 
ATOM     36  C   UNL     1       4.574  -0.890   2.110  0.00  0.00    +0.000 A 
ATOM     37  C   UNL     1       4.004  -0.139   1.099  0.00  0.00    +0.000 A 
ATOM     38  C   UNL     1       2.629  -0.043   1.000  0.00  0.00    +0.004 A 
ENDBRANCH  32  33
BRANCH  32  40
ATOM     39  C   UNL     1      -1.786  -1.859   1.408  0.00  0.00    +0.005 C 
ATOM     40  C   UNL     1      -0.276  -1.978   1.627  0.00  0.00    +0.014 C 
ENDBRANCH  32  40
ENDBRANCH   1  32
TORSDOF 7
