REMARK  Name = ZINC59487763
REMARK  13 active torsions:
REMARK  status: ('A' for Active; 'I' for Inactive)
REMARK    1  A    between atoms: C_1  and  C_2
REMARK    2  A    between atoms: C_2  and  C_3
REMARK    3  A    between atoms: C_2  and  C_4
REMARK    4  A    between atoms: C_2  and  C_5
REMARK    5  A    between atoms: N_7  and  C_8
REMARK    6  A    between atoms: C_10  and  C_21
REMARK    7  A    between atoms: C_12  and  N_14
REMARK    8  A    between atoms: C_15  and  C_17
REMARK    9  A    between atoms: C_17  and  C_18
REMARK   10  A    between atoms: C_17  and  C_19
REMARK   11  A    between atoms: C_17  and  C_20
REMARK   12  A    between atoms: N_23  and  C_24
REMARK   13  A    between atoms: C_24  and  C_25
REMARK                            x       y       z     vdW  Elec       q    Type
REMARK                         _______ _______ _______ _____ _____    ______ ____
ROOT
ATOM      1  C   UNL     1       1.427  -2.322  -2.617  0.00  0.00    +0.036 A 
ATOM      2  C   UNL     1       1.958  -1.448  -3.554  0.00  0.00    +0.036 A 
ATOM      3  C   UNL     1       2.515  -1.945  -4.732  0.00  0.00    +0.040 A 
ATOM      4  C   UNL     1       2.536  -3.321  -4.964  0.00  0.00    +0.036 A 
ATOM      5  C   UNL     1       2.003  -4.189  -4.023  0.00  0.00    +0.036 A 
ATOM      6  C   UNL     1       1.455  -3.691  -2.849  0.00  0.00    +0.046 A 
ENDROOT
BRANCH   1   9
ATOM      7  C   UNL     1       0.198  -0.655  -1.446  0.00  0.00    +0.223 C 
ATOM      8  O   UNL     1       0.151   0.007  -2.462  0.00  0.00    -0.275 OA
ATOM      9  N   UNL     1       0.868  -1.824  -1.435  0.00  0.00    -0.285 N 
ATOM     10  H   UNL     1       0.963  -2.320  -0.607  0.00  0.00    +0.155 HD
BRANCH   7  12
ATOM     11  C   UNL     1      -1.173   1.171  -0.480  0.00  0.00    +0.020 C 
ATOM     12  C   UNL     1      -0.493  -0.170  -0.198  0.00  0.00    +0.039 C 
ATOM     13  C   UNL     1       0.538   0.006   0.919  0.00  0.00    +0.020 C 
ATOM     14  C   UNL     1      -1.544  -1.194   0.234  0.00  0.00    +0.020 C 
ENDBRANCH   7  12
ENDBRANCH   1   9
BRANCH   5  15
ATOM     15  N   UNL     1       2.023  -5.569  -4.255  0.00  0.00    -0.285 N 
ATOM     16  C   UNL     1       1.003  -6.339  -3.827  0.00  0.00    +0.223 C 
ATOM     17  O   UNL     1       0.109  -5.850  -3.169  0.00  0.00    -0.275 OA
ATOM     18  H   UNL     1       2.772  -5.971  -4.723  0.00  0.00    +0.155 HD
BRANCH  16  19
ATOM     19  C   UNL     1       0.973  -7.807  -4.167  0.00  0.00    +0.039 C 
ATOM     20  C   UNL     1      -0.281  -8.444  -3.566  0.00  0.00    +0.020 C 
ATOM     21  C   UNL     1       0.954  -7.978  -5.687  0.00  0.00    +0.020 C 
ATOM     22  C   UNL     1       2.217  -8.488  -3.592  0.00  0.00    +0.020 C 
ENDBRANCH  16  19
ENDBRANCH   5  15
BRANCH   3  23
ATOM     23  C   UNL     1       3.082  -1.016  -5.734  0.00  0.00    +0.244 C 
ATOM     24  O   UNL     1       3.063   0.182  -5.530  0.00  0.00    -0.270 OA
ATOM     25  N   UNL     1       3.620  -1.498  -6.871  0.00  0.00    -0.309 N 
ATOM     26  H   UNL     1       3.635  -2.455  -7.034  0.00  0.00    +0.149 HD
BRANCH  25  27
ATOM     27  C   UNL     1       4.181  -0.578  -7.864  0.00  0.00    +0.136 C 
BRANCH  27  28
ATOM     28  C   UNL     1       4.722  -1.377  -9.051  0.00  0.00    +0.135 C 
ATOM     29  C   UNL     1       5.353  -0.424 -10.098  0.00  0.00    +0.035 C 
ATOM     30  C   UNL     1       6.349  -1.382 -10.806  0.00  0.00    +0.031 C 
ATOM     31  C   UNL     1       6.798  -2.301  -9.650  0.00  0.00    +0.160 C 
ATOM     32  O   UNL     1       5.794  -2.235  -8.628  0.00  0.00    -0.375 OA
ENDBRANCH  27  28
ENDBRANCH  25  27
ENDBRANCH   3  23
TORSDOF 7
