REMARK  Name = ZINC66600326
REMARK  5 active torsions:
REMARK  status: ('A' for Active; 'I' for Inactive)
REMARK    1  A    between atoms: C_1  and  C_2
REMARK    2  A    between atoms: C_2  and  C_7
REMARK    3  A    between atoms: C_7  and  N_8
REMARK    4  A    between atoms: C_14  and  C_17
REMARK    5  A    between atoms: N_19  and  C_20
REMARK                            x       y       z     vdW  Elec       q    Type
REMARK                         _______ _______ _______ _____ _____    ______ ____
ROOT
ATOM      1  N   UNL     1      -2.118  -0.054  -1.217  0.00  0.00    -0.299 N 
ATOM      2  C   UNL     1      -3.397  -0.406  -1.450  0.00  0.00    +0.302 C 
ATOM      3  O   UNL     1      -3.951  -1.204  -0.719  0.00  0.00    -0.253 OA
ATOM      4  N   UNL     1      -4.064   0.126  -2.494  0.00  0.00    -0.286 N 
ATOM      5  C   UNL     1      -3.376   1.001  -3.453  0.00  0.00    +0.110 C 
ATOM      6  C   UNL     1      -4.153   2.316  -3.567  0.00  0.00    +0.032 C 
ATOM      7  C   UNL     1      -5.610   2.013  -3.925  0.00  0.00    +0.078 C 
ATOM      8  C   UNL     1      -6.245   1.171  -2.817  0.00  0.00    +0.032 C 
ATOM      9  C   UNL     1      -5.490  -0.162  -2.697  0.00  0.00    +0.110 C 
ATOM     10  H   UNL     1      -1.653   0.525  -1.841  0.00  0.00    +0.150 HD
ENDROOT
BRANCH   7  11
ATOM     11  C   UNL     1      -6.370   3.306  -4.072  0.00  0.00    +0.216 C 
ATOM     12  O   UNL     1      -5.803   4.365  -3.906  0.00  0.00    -0.276 OA
ATOM     13  N   UNL     1      -7.681   3.285  -4.387  0.00  0.00    -0.312 N 
ATOM     14  H   UNL     1      -8.134   2.438  -4.520  0.00  0.00    +0.149 HD
BRANCH  13  15
ATOM     15  C   UNL     1      -8.420   4.542  -4.530  0.00  0.00    +0.073 C 
ATOM     16  C   UNL     1      -8.908   5.005  -3.156  0.00  0.00    +0.022 C 
ATOM     17  C   UNL     1      -9.680   6.317  -3.304  0.00  0.00    +0.002 C 
ATOM     18  C   UNL     1     -10.882   6.101  -4.226  0.00  0.00    +0.000 C 
ATOM     19  C   UNL     1     -10.393   5.638  -5.600  0.00  0.00    +0.002 C 
ATOM     20  C   UNL     1      -9.621   4.325  -5.452  0.00  0.00    +0.022 C 
ENDBRANCH  13  15
ENDBRANCH   7  11
BRANCH   1  21
ATOM     21  C   UNL     1      -1.429  -0.545  -0.021  0.00  0.00    +0.112 C 
BRANCH  21  23
ATOM     22  C   UNL     1      -0.020   1.528   0.011  0.00  0.00    +0.013 C 
ATOM     23  C   UNL     1       0.001  -0.002   0.004  0.00  0.00    -0.016 C 
ATOM     24  C   UNL     1       0.783  -0.513  -1.223  0.00  0.00    +0.008 C 
ATOM     25  C   UNL     1       2.213  -0.765  -0.684  0.00  0.00    +0.001 C 
ATOM     26  C   UNL     1       1.949  -1.335   0.732  0.00  0.00    +0.001 C 
ATOM     27  C   UNL     1       0.742  -0.524   1.247  0.00  0.00    +0.008 C 
ENDBRANCH  21  23
ENDBRANCH   1  21
TORSDOF 4
