REMARK  Name = ZINC35874061
REMARK  6 active torsions:
REMARK  status: ('A' for Active; 'I' for Inactive)
REMARK    1  A    between atoms: C_1  and  C_2
REMARK    2  A    between atoms: C_2  and  C_3
REMARK    3  A    between atoms: N_7  and  C_27
REMARK    4  A    between atoms: C_11  and  N_16
REMARK    5  A    between atoms: C_17  and  C_19
REMARK    6  A    between atoms: C_19  and  C_20
REMARK                            x       y       z     vdW  Elec       q    Type
REMARK                         _______ _______ _______ _____ _____    ______ ____
ROOT
ATOM      1  C   UNL     1       0.807  -0.526   1.276  0.00  0.00    +0.259 C 
ATOM      2  C   UNL     1       1.060  -1.994   1.438  0.00  0.00    +0.257 C 
ATOM      3  O   UNL     1       2.211  -2.314   1.228  0.00  0.00    -0.272 OA
ATOM      4  N   UNL     1       0.310  -2.970   1.752  0.00  0.00    -0.287 N 
ATOM      5  C   UNL     1      -1.001  -3.050   2.303  0.00  0.00    +0.147 C 
ATOM      6  C   UNL     1      -1.711  -1.785   2.678  0.00  0.00    +0.013 A 
ATOM      7  C   UNL     1      -3.016  -2.009   3.143  0.00  0.00    +0.032 A 
ATOM      8  C   UNL     1      -3.847  -0.962   3.486  0.00  0.00    +0.034 A 
ATOM      9  C   UNL     1      -3.376   0.338   3.354  0.00  0.00    +0.027 A 
ATOM     10  C   UNL     1      -2.094   0.546   2.918  0.00  0.00    +0.048 A 
ATOM     11  C   UNL     1      -1.229  -0.530   2.601  0.00  0.00    +0.126 A 
ATOM     12  O   UNL     1       0.018  -0.037   2.341  0.00  0.00    -0.479 OA
ENDROOT
BRANCH   4  13
ATOM     13  C   UNL     1       0.916  -4.279   1.495  0.00  0.00    +0.107 C 
ATOM     14  C   UNL     1      -0.007  -5.093   0.591  0.00  0.00    +0.027 C 
ATOM     15  C   UNL     1       0.534  -6.525   0.512  0.00  0.00    +0.007 C 
ATOM     16  C   UNL     1       0.325  -7.194   1.869  0.00  0.00    +0.035 C 
ATOM     17  C   UNL     1       0.869  -6.329   2.975  0.00  0.00    -0.042 A 
ATOM     18  C   UNL     1       1.136  -4.990   2.805  0.00  0.00    -0.024 A 
ATOM     19  C   UNL     1       1.631  -4.247   3.869  0.00  0.00    +0.006 A 
ATOM     20  C   UNL     1       1.858  -4.842   5.093  0.00  0.00    +0.000 A 
ATOM     21  C   UNL     1       1.593  -6.188   5.263  0.00  0.00    +0.000 A 
ATOM     22  C   UNL     1       1.101  -6.926   4.207  0.00  0.00    +0.004 A 
ENDBRANCH   4  13
BRANCH   8  23
ATOM     23  N   UNL     1      -5.144  -1.206   3.958  0.00  0.00    -0.285 N 
ATOM     24  C   UNL     1      -5.683  -0.401   4.895  0.00  0.00    +0.222 C 
ATOM     25  O   UNL     1      -5.078   0.582   5.270  0.00  0.00    -0.275 OA
ATOM     26  H   UNL     1      -5.653  -1.955   3.611  0.00  0.00    +0.155 HD
BRANCH  24  27
ATOM     27  C   UNL     1      -7.036  -0.720   5.475  0.00  0.00    +0.131 C 
BRANCH  27  28
ATOM     28  C   UNL     1      -7.406   0.328   6.493  0.00  0.00    -0.038 A 
ATOM     29  C   UNL     1      -7.049   0.161   7.818  0.00  0.00    +0.007 A 
ATOM     30  C   UNL     1      -7.388   1.122   8.752  0.00  0.00    +0.038 A 
ATOM     31  C   UNL     1      -8.085   2.252   8.360  0.00  0.00    +0.123 A 
ATOM     32  C   UNL     1      -8.442   2.418   7.032  0.00  0.00    +0.038 A 
ATOM     33  C   UNL     1      -8.098   1.458   6.099  0.00  0.00    +0.007 A 
ATOM     34  F   UNL     1      -8.417   3.191   9.272  0.00  0.00    -0.205 F 
ENDBRANCH  27  28
ENDBRANCH  24  27
ENDBRANCH   8  23
BRANCH   1  36
ATOM     35  C   UNL     1      -0.061   1.222  -0.284  0.00  0.00    +0.008 C 
ATOM     36  C   UNL     1       0.077  -0.283  -0.046  0.00  0.00    +0.051 C 
ENDBRANCH   1  36
TORSDOF 5
