REMARK  Name = ZINC63360693
REMARK  8 active torsions:
REMARK  status: ('A' for Active; 'I' for Inactive)
REMARK    1  A    between atoms: C_1  and  N_2
REMARK    2  A    between atoms: N_2  and  C_3
REMARK    3  A    between atoms: N_2  and  C_4
REMARK    4  A    between atoms: C_4  and  C_10
REMARK    5  A    between atoms: C_10  and  N_11
REMARK    6  A    between atoms: N_14  and  C_15
REMARK    7  A    between atoms: C_15  and  C_16
REMARK    8  A    between atoms: C_21  and  N_22
REMARK                            x       y       z     vdW  Elec       q    Type
REMARK                         _______ _______ _______ _____ _____    ______ ____
ROOT
ATOM      1  N   UNL     1       0.046   1.308  -2.681  0.00  0.00    -0.301 N 
ATOM      2  C   UNL     1      -0.417   1.901  -3.799  0.00  0.00    +0.300 C 
ATOM      3  O   UNL     1      -0.829   1.224  -4.721  0.00  0.00    -0.253 OA
ATOM      4  N   UNL     1      -0.424   3.246  -3.895  0.00  0.00    -0.295 N 
ATOM      5  H   UNL     1       0.374   1.849  -1.946  0.00  0.00    +0.150 HD
ATOM      6  H   UNL     1      -0.096   3.786  -3.160  0.00  0.00    +0.151 HD
ENDROOT
BRANCH   1   7
ATOM      7  C   UNL     1       0.054  -0.153  -2.576  0.00  0.00    +0.094 C 
BRANCH   7   8
ATOM      8  C   UNL     1       0.754  -0.568  -1.281  0.00  0.00    -0.050 C 
ATOM      9  C   UNL     1       0.877  -2.092  -1.233  0.00  0.00    -0.010 C 
ATOM     10  C   UNL     1      -0.518  -2.718  -1.282  0.00  0.00    -0.001 C 
ATOM     11  C   UNL     1      -1.336  -2.235  -0.082  0.00  0.00    -0.000 C 
ATOM     12  C   UNL     1      -1.459  -0.711  -0.130  0.00  0.00    -0.001 C 
ATOM     13  C   UNL     1      -0.064  -0.084  -0.081  0.00  0.00    -0.010 C 
BRANCH   8  15
ATOM     14  C   UNL     1       2.780  -0.393  -0.007  0.00  0.00    -0.096 C 
ATOM     15  N   UNL     1       2.094   0.033  -1.234  0.00  0.00    +0.381 N 
ATOM     16  C   UNL     1       2.867  -0.403  -2.405  0.00  0.00    -0.096 C 
ATOM     17  H   UNL     1       2.011   1.039  -1.241  0.00  0.00    -0.082 HD
ENDBRANCH   8  15
ENDBRANCH   7   8
ENDBRANCH   1   7
BRANCH   4  18
ATOM     18  C   UNL     1      -0.928   3.890  -5.111  0.00  0.00    +0.143 C 
BRANCH  18  19
ATOM     19  C   UNL     1      -0.827   5.387  -4.964  0.00  0.00    -0.005 A 
ATOM     20  C   UNL     1      -1.943   6.124  -4.618  0.00  0.00    +0.007 A 
ATOM     21  C   UNL     1      -1.851   7.497  -4.483  0.00  0.00    +0.000 A 
ATOM     22  C   UNL     1      -0.643   8.137  -4.694  0.00  0.00    +0.002 A 
ATOM     23  C   UNL     1       0.475   7.405  -5.041  0.00  0.00    +0.028 A 
ATOM     24  C   UNL     1       0.388   6.025  -5.171  0.00  0.00    +0.070 A 
BRANCH  24  25
ATOM     25  N   UNL     1       1.523   5.279  -5.517  0.00  0.00    -0.240 N 
ATOM     26  C   UNL     1       2.762   5.772  -5.740  0.00  0.00    +0.114 A 
ATOM     27  C   UNL     1       3.571   4.731  -6.046  0.00  0.00    +0.041 A 
ATOM     28  C   UNL     1       2.802   3.563  -6.008  0.00  0.00    +0.135 A 
ATOM     29  N   UNL     1       1.576   3.889  -5.686  0.00  0.00    -0.175 NA
ENDBRANCH  24  25
ENDBRANCH  18  19
ENDBRANCH   4  18
TORSDOF 6
