REMARK  Name = ZINC63478638
REMARK  7 active torsions:
REMARK  status: ('A' for Active; 'I' for Inactive)
REMARK    1  A    between atoms: C_1  and  C_2
REMARK    2  A    between atoms: C_2  and  C_4
REMARK    3  A    between atoms: C_2  and  N_18
REMARK    4  A    between atoms: N_6  and  C_7
REMARK    5  A    between atoms: C_7  and  C_8
REMARK    6  A    between atoms: C_8  and  C_9
REMARK    7  A    between atoms: C_22  and  C_23
REMARK                            x       y       z     vdW  Elec       q    Type
REMARK                         _______ _______ _______ _____ _____    ______ ____
ROOT
ATOM      1  C   UNL     1       0.577  -0.688  -1.538  0.00  0.00    +0.234 C 
ATOM      2  O   UNL     1      -0.175  -1.224  -2.325  0.00  0.00    -0.274 OA
ATOM      3  N   UNL     1       1.863  -0.468  -1.878  0.00  0.00    -0.313 N 
ATOM      4  H   UNL     1       2.464  -0.039  -1.249  0.00  0.00    +0.149 HD
ENDROOT
BRANCH   1   6
ATOM      5  C   UNL     1       0.245   1.246  -0.022  0.00  0.00    +0.038 C 
ATOM      6  C   UNL     1       0.073  -0.266  -0.182  0.00  0.00    +0.165 C 
BRANCH   6   7
ATOM      7  N   UNL     1      -1.345  -0.612  -0.059  0.00  0.00    -0.244 N 
ATOM      8  C   UNL     1      -1.728  -1.435   0.903  0.00  0.00    +0.259 C 
ATOM      9  O   UNL     1      -0.932  -1.913   1.690  0.00  0.00    -0.269 OA
ATOM     10  C   UNL     1      -3.167  -1.745   0.976  0.00  0.00    +0.080 C 
ATOM     11  C   UNL     1      -3.839  -2.548   1.848  0.00  0.00    +0.066 C 
ATOM     12  S   UNL     1      -3.787  -0.778  -0.394  0.00  0.00    -0.061 S 
ATOM     13  C   UNL     1      -2.232  -0.080  -0.925  0.00  0.00    +0.121 C 
ATOM     14  S   UNL     1      -1.937   1.000  -2.220  0.00  0.00    -0.027 S 
BRANCH  11  15
ATOM     15  C   UNL     1      -3.163  -3.116   2.951  0.00  0.00    +0.129 A 
ATOM     16  C   UNL     1      -3.695  -4.009   3.860  0.00  0.00    +0.049 A 
ATOM     17  C   UNL     1      -2.673  -4.302   4.777  0.00  0.00    +0.042 A 
ATOM     18  C   UNL     1      -1.584  -3.596   4.401  0.00  0.00    +0.195 A 
ATOM     19  O   UNL     1      -1.879  -2.889   3.301  0.00  0.00    -0.463 OA
ENDBRANCH  11  15
ENDBRANCH   6   7
ENDBRANCH   1   6
BRANCH   3  20
ATOM     20  C   UNL     1       2.352  -0.878  -3.196  0.00  0.00    +0.108 C 
BRANCH  20  21
ATOM     21  C   UNL     1       3.833  -0.517  -3.325  0.00  0.00    +0.052 C 
BRANCH  21  22
ATOM     22  C   UNL     1       4.337  -0.939  -4.681  0.00  0.00    -0.040 C 
ATOM     23  C   UNL     1       4.430  -0.169  -5.790  0.00  0.00    -0.001 A 
ATOM     24  C   UNL     1       4.101   1.237  -6.055  0.00  0.00    +0.010 A 
ATOM     25  C   UNL     1       4.308   1.737  -7.294  0.00  0.00    +0.001 A 
ATOM     26  C   UNL     1       4.826   0.947  -8.330  0.00  0.00    +0.002 A 
ATOM     27  C   UNL     1       5.152  -0.352  -8.164  0.00  0.00    +0.026 A 
ATOM     28  C   UNL     1       4.976  -0.981  -6.901  0.00  0.00    +0.043 A 
ATOM     29  N   UNL     1       5.213  -2.205  -6.495  0.00  0.00    -0.380 N 
ATOM     30  C   UNL     1       4.847  -2.306  -5.077  0.00  0.00    +0.144 C 
ATOM     31  H   UNL     1       5.572  -2.922  -7.039  0.00  0.00    +0.160 HD
ENDBRANCH  21  22
ENDBRANCH  20  21
ENDBRANCH   3  20
TORSDOF 6
