REMARK  Name = ZINC33733569
REMARK  11 active torsions:
REMARK  status: ('A' for Active; 'I' for Inactive)
REMARK    1  A    between atoms: C_1  and  C_2
REMARK    2  A    between atoms: C_2  and  O_3
REMARK    3  A    between atoms: O_3  and  C_4
REMARK    4  A    between atoms: C_4  and  C_5
REMARK    5  A    between atoms: C_5  and  C_6
REMARK    6  A    between atoms: C_6  and  N_7
REMARK    7  A    between atoms: N_7  and  C_8
REMARK    8  A    between atoms: C_8  and  C_9
REMARK    9  A    between atoms: C_9  and  C_10
REMARK   10  A    between atoms: C_15  and  N_18
REMARK   11  A    between atoms: C_29  and  C_31
REMARK                            x       y       z     vdW  Elec       q    Type
REMARK                         _______ _______ _______ _____ _____    ______ ____
ROOT
ATOM      1  C   UNL     1      -5.294   5.459   0.018  0.00  0.00    +0.217 C 
ATOM      2  O   UNL     1      -5.828   5.837  -1.004  0.00  0.00    -0.276 OA
ATOM      3  N   UNL     1      -4.116   4.807  -0.039  0.00  0.00    -0.301 N 
ATOM      4  C   UNL     1      -3.466   4.546  -1.331  0.00  0.00    +0.110 C 
ATOM      5  C   UNL     1      -3.166   3.048  -1.438  0.00  0.00    +0.044 C 
ATOM      6  C   UNL     1      -2.347   2.607  -0.222  0.00  0.00    +0.095 C 
ATOM      7  C   UNL     1      -3.157   2.848   1.054  0.00  0.00    +0.044 C 
ATOM      8  C   UNL     1      -3.457   4.344   1.190  0.00  0.00    +0.110 C 
ENDROOT
BRANCH   6   9
ATOM      9  N   UNL     1      -2.030   1.182  -0.338  0.00  0.00    -0.289 N 
ATOM     10  C   UNL     1      -0.751   0.632  -0.386  0.00  0.00    +0.070 A 
ATOM     11  C   UNL     1       0.522   1.180  -0.342  0.00  0.00    +0.028 A 
ATOM     12  C   UNL     1       1.628   0.355  -0.406  0.00  0.00    +0.002 A 
ATOM     13  C   UNL     1       1.471  -1.016  -0.515  0.00  0.00    +0.002 A 
ATOM     14  C   UNL     1       0.207  -1.571  -0.560  0.00  0.00    +0.028 A 
ATOM     15  C   UNL     1      -0.910  -0.750  -0.496  0.00  0.00    +0.067 A 
ATOM     16  N   UNL     1      -2.280  -0.998  -0.517  0.00  0.00    -0.306 N 
ATOM     17  H   UNL     1      -2.651  -2.030  -0.599  0.00  0.00    +0.170 HD
ATOM     18  C   UNL     1      -2.925   0.180  -0.423  0.00  0.00    +0.328 A 
ATOM     19  O   UNL     1      -4.135   0.317  -0.413  0.00  0.00    -0.247 OA
ENDBRANCH   6   9
BRANCH   1  20
ATOM     20  C   UNL     1      -5.948   5.719   1.350  0.00  0.00    +0.115 C 
BRANCH  20  21
ATOM     21  C   UNL     1      -7.264   6.470   1.135  0.00  0.00    +0.117 C 
BRANCH  21  22
ATOM     22  N   UNL     1      -7.900   6.722   2.430  0.00  0.00    -0.296 N 
ATOM     23  C   UNL     1      -8.701   5.789   2.981  0.00  0.00    +0.266 C 
ATOM     24  O   UNL     1      -9.306   6.036   4.005  0.00  0.00    -0.268 OA
BRANCH  23  25
ATOM     25  C   UNL     1      -8.845   4.463   2.337  0.00  0.00    +0.144 A 
ATOM     26  C   UNL     1      -9.768   3.542   2.831  0.00  0.00    +0.143 A 
ATOM     27  N   UNL     1      -9.893   2.361   2.254  0.00  0.00    -0.259 NA
ATOM     28  C   UNL     1      -9.144   2.052   1.210  0.00  0.00    +0.130 A 
ATOM     29  C   UNL     1      -8.224   2.966   0.716  0.00  0.00    +0.131 A 
ATOM     30  N   UNL     1      -8.098   4.149   1.282  0.00  0.00    -0.247 NA
ENDBRANCH  23  25
BRANCH  22  31
ATOM     31  C   UNL     1      -7.664   7.989   3.127  0.00  0.00    +0.110 C 
BRANCH  31  32
ATOM     32  C   UNL     1      -8.719   9.011   2.698  0.00  0.00    +0.047 C 
BRANCH  32  33
ATOM     33  C   UNL     1      -8.473  10.334   3.426  0.00  0.00    +0.161 C 
BRANCH  33  34
ATOM     34  O   UNL     1      -9.458  11.289   3.026  0.00  0.00    -0.380 OA
BRANCH  34  36
ATOM     35  C   UNL     1     -10.419  13.502   3.151  0.00  0.00    +0.034 C 
ATOM     36  C   UNL     1      -9.318  12.566   3.651  0.00  0.00    +0.156 C 
ENDBRANCH  34  36
ENDBRANCH  33  34
ENDBRANCH  32  33
ENDBRANCH  31  32
ENDBRANCH  22  31
ENDBRANCH  21  22
ENDBRANCH  20  21
ENDBRANCH   1  20
TORSDOF 10
