REMARK  Name = ZINC56725414
REMARK  10 active torsions:
REMARK  status: ('A' for Active; 'I' for Inactive)
REMARK    1  A    between atoms: C_1  and  C_2
REMARK    2  A    between atoms: C_2  and  N_3
REMARK    3  A    between atoms: N_3  and  C_4
REMARK    4  A    between atoms: C_4  and  C_6
REMARK    5  A    between atoms: C_4  and  C_7
REMARK    6  A    between atoms: N_18  and  C_19
REMARK    7  A    between atoms: C_22  and  O_26
REMARK    8  A    between atoms: C_24  and  C_25
REMARK    9  A    between atoms: O_26  and  C_27
REMARK   10  A    between atoms: C_27  and  C_28
REMARK                            x       y       z     vdW  Elec       q    Type
REMARK                         _______ _______ _______ _____ _____    ______ ____
ROOT
ATOM      1  N   UNL     1       0.690  -0.461  -1.208  0.00  0.00    -0.276 N 
ATOM      2  C   UNL     1      -0.013  -0.701  -2.333  0.00  0.00    +0.307 C 
ATOM      3  O   UNL     1       0.556  -1.100  -3.330  0.00  0.00    -0.252 OA
ATOM      4  N   UNL     1      -1.345  -0.498  -2.351  0.00  0.00    -0.269 N 
ATOM      5  H   UNL     1      -1.810  -0.258  -1.535  0.00  0.00    +0.156 HD
ENDROOT
BRANCH   4   6
ATOM      6  C   UNL     1      -2.057  -0.633  -3.550  0.00  0.00    +0.038 A 
ATOM      7  C   UNL     1      -1.409  -0.463  -4.767  0.00  0.00    +0.027 A 
ATOM      8  C   UNL     1      -2.112  -0.597  -5.948  0.00  0.00    +0.047 A 
ATOM      9  C   UNL     1      -3.465  -0.902  -5.919  0.00  0.00    +0.122 A 
ATOM     10  C   UNL     1      -4.113  -1.072  -4.705  0.00  0.00    +0.050 A 
ATOM     11  C   UNL     1      -3.410  -0.944  -3.523  0.00  0.00    -0.026 A 
ATOM     12  C   UNL     1      -4.113  -1.136  -2.204  0.00  0.00    +0.046 C 
BRANCH   9  13
ATOM     13  O   UNL     1      -4.157  -1.033  -7.083  0.00  0.00    -0.483 OA
BRANCH  13  14
ATOM     14  C   UNL     1      -3.426  -0.843  -8.296  0.00  0.00    +0.324 C 
BRANCH  14  15
ATOM     15  C   UNL     1      -4.351  -1.026  -9.473  0.00  0.00    +0.248 C 
ATOM     16  O   UNL     1      -5.519  -1.293  -9.290  0.00  0.00    -0.272 OA
ATOM     17  N   UNL     1      -3.878  -0.894 -10.728  0.00  0.00    -0.327 N 
ATOM     18  H   UNL     1      -2.943  -0.681 -10.874  0.00  0.00    +0.145 HD
ATOM     19  H   UNL     1      -4.473  -1.012 -11.485  0.00  0.00    +0.145 HD
ENDBRANCH  14  15
ENDBRANCH  13  14
ENDBRANCH   9  13
ENDBRANCH   4   6
BRANCH   1  21
ATOM     20  C   UNL     1      -0.019   1.550  -0.010  0.00  0.00    +0.024 C 
ATOM     21  C   UNL     1       0.005   0.020  -0.005  0.00  0.00    +0.107 C 
ENDBRANCH   1  21
BRANCH   1  22
ATOM     22  C   UNL     1       2.138  -0.682  -1.187  0.00  0.00    +0.140 C 
ATOM     23  C   UNL     1       2.850   0.632  -0.858  0.00  0.00    +0.036 C 
BRANCH  22  24
ATOM     24  C   UNL     1       2.474  -1.712  -0.140  0.00  0.00    +0.126 A 
ATOM     25  C   UNL     1       3.394  -2.676  -0.280  0.00  0.00    +0.055 A 
ATOM     26  C   UNL     1       3.384  -3.437   0.976  0.00  0.00    +0.020 A 
ATOM     27  C   UNL     1       4.091  -4.539   1.453  0.00  0.00    +0.011 A 
ATOM     28  C   UNL     1       3.833  -5.018   2.708  0.00  0.00    +0.001 A 
ATOM     29  C   UNL     1       2.873  -4.413   3.507  0.00  0.00    +0.004 A 
ATOM     30  C   UNL     1       2.164  -3.323   3.052  0.00  0.00    +0.047 A 
ATOM     31  C   UNL     1       2.411  -2.820   1.780  0.00  0.00    +0.135 A 
ATOM     32  O   UNL     1       1.899  -1.792   1.073  0.00  0.00    -0.458 OA
ENDBRANCH  22  24
ENDBRANCH   1  22
TORSDOF 7
