REMARK  Name = ZINC19881068
REMARK  7 active torsions:
REMARK  status: ('A' for Active; 'I' for Inactive)
REMARK    1  A    between atoms: C_4  and  C_7
REMARK    2  A    between atoms: C_7  and  C_9
REMARK    3  A    between atoms: C_9  and  N_11
REMARK    4  A    between atoms: C_9  and  N_23
REMARK    5  A    between atoms: N_11  and  C_12
REMARK    6  A    between atoms: C_13  and  C_21
REMARK    7  A    between atoms: C_24  and  C_26
REMARK                            x       y       z     vdW  Elec       q    Type
REMARK                         _______ _______ _______ _____ _____    ______ ____
ROOT
ATOM      1  C   UNL     1      -2.868   4.023  -0.245  0.00  0.00    +0.232 C 
ENDROOT
BRANCH   1   2
ATOM      2  N   UNL     1      -1.718   3.119  -0.325  0.00  0.00    -0.287 N 
ATOM      3  C   UNL     1      -1.903   1.820  -0.632  0.00  0.00    +0.246 C 
ATOM      4  O   UNL     1      -3.023   1.398  -0.842  0.00  0.00    -0.270 OA
ATOM      5  H   UNL     1      -0.704   3.501  -0.135  0.00  0.00    +0.151 HD
BRANCH   3   6
ATOM      6  C   UNL     1      -0.742   0.908  -0.712  0.00  0.00    +0.037 A 
ATOM      7  C   UNL     1       0.546   1.391  -0.477  0.00  0.00    +0.014 A 
ATOM      8  C   UNL     1       1.626   0.537  -0.560  0.00  0.00    +0.021 A 
ATOM      9  C   UNL     1       1.433  -0.798  -0.875  0.00  0.00    +0.041 A 
ATOM     10  C   UNL     1       0.157  -1.284  -1.109  0.00  0.00    +0.021 A 
ATOM     11  C   UNL     1      -0.930  -0.439  -1.030  0.00  0.00    +0.014 A 
ATOM     12 CL   UNL     1       2.797  -1.868  -0.976  0.00  0.00    -0.084 Cl
ENDBRANCH   3   6
ENDBRANCH   1   2
BRANCH   1  13
ATOM     13  C   UNL     1      -2.547   5.309  -0.962  0.00  0.00    +0.201 C 
ATOM     14  O   UNL     1      -1.573   5.376  -1.681  0.00  0.00    -0.288 OA
BRANCH  13  18
ATOM     15  C   UNL     1      -5.051   8.697  -0.463  0.00  0.00    +0.000 A 
ATOM     16  C   UNL     1      -3.870   8.813  -1.176  0.00  0.00    +0.001 A 
ATOM     17  C   UNL     1      -3.051   7.716  -1.343  0.00  0.00    +0.011 A 
ATOM     18  C   UNL     1      -3.416   6.485  -0.789  0.00  0.00    +0.021 A 
ATOM     19  C   UNL     1      -4.613   6.375  -0.074  0.00  0.00    +0.011 A 
ATOM     20  C   UNL     1      -5.418   7.482   0.088  0.00  0.00    +0.001 A 
ENDBRANCH  13  18
ENDBRANCH   1  13
BRANCH   1  21
ATOM     21  N   UNL     1      -3.168   4.309   1.160  0.00  0.00    -0.313 N 
ATOM     22  H   UNL     1      -2.526   4.995   1.731  0.00  0.00    +0.149 HD
BRANCH  21  23
ATOM     23  C   UNL     1      -4.259   3.714   1.769  0.00  0.00    +0.085 A 
ATOM     24  C   UNL     1      -4.698   3.854   3.079  0.00  0.00    +0.083 A 
ATOM     25  C   UNL     1      -5.886   3.114   3.471  0.00  0.00    -0.018 A 
ATOM     26  C   UNL     1      -6.435   2.352   2.501  0.00  0.00    -0.004 A 
ATOM     27  S   UNL     1      -5.405   2.609   1.085  0.00  0.00    -0.077 S 
ATOM     28  C   UNL     1      -7.650   1.482   2.615  0.00  0.00    +0.043 C 
ATOM     29  C   UNL     1      -7.970   1.290   4.104  0.00  0.00    +0.005 C 
ATOM     30  C   UNL     1      -7.935   2.656   4.796  0.00  0.00    +0.005 C 
ATOM     31  C   UNL     1      -6.494   3.166   4.867  0.00  0.00    +0.037 C 
BRANCH  24  32
ATOM     32  C   UNL     1      -4.008   4.698   4.007  0.00  0.00    +0.102 C 
ATOM     33  N   UNL     1      -3.461   5.367   4.744  0.00  0.00    -0.191 NA
ENDBRANCH  24  32
ENDBRANCH  21  23
ENDBRANCH   1  21
TORSDOF 7
