REMARK  Name = ZINC51148840
REMARK  8 active torsions:
REMARK  status: ('A' for Active; 'I' for Inactive)
REMARK    1  A    between atoms: C_1  and  C_2
REMARK    2  A    between atoms: C_4  and  C_21
REMARK    3  A    between atoms: C_6  and  O_8
REMARK    4  A    between atoms: O_8  and  C_9
REMARK    5  A    between atoms: C_9  and  C_10
REMARK    6  A    between atoms: C_13  and  N_19
REMARK    7  A    between atoms: C_14  and  N_16
REMARK    8  A    between atoms: N_19  and  N_20
REMARK                            x       y       z     vdW  Elec       q    Type
REMARK                         _______ _______ _______ _____ _____    ______ ____
ROOT
ATOM      1  C   UNL     1      -0.028  -2.751   4.927  0.00  0.00    -0.008 A 
ATOM      2  C   UNL     1      -1.161  -3.423   5.348  0.00  0.00    +0.009 A 
ATOM      3  C   UNL     1      -1.056  -4.453   6.261  0.00  0.00    +0.027 A 
ATOM      4  C   UNL     1       0.191  -4.815   6.757  0.00  0.00    +0.071 A 
ATOM      5  C   UNL     1       1.327  -4.138   6.332  0.00  0.00    +0.148 A 
ATOM      6  C   UNL     1       1.214  -3.111   5.414  0.00  0.00    +0.041 A 
ENDROOT
BRANCH   5   7
ATOM      7  N   UNL     1       2.657  -4.519   6.857  0.00  0.00    +0.058 N 
ATOM      8  O   UNL     1       2.776  -4.856   8.012  0.00  0.00    -0.126 OA
ATOM      9  O   UNL     1       3.623  -4.495   6.131  0.00  0.00    -0.126 OA
ENDBRANCH   5   7
BRANCH   4  10
ATOM     10  N   UNL     1       0.301  -5.856   7.681  0.00  0.00    -0.281 N 
ATOM     11  H   UNL     1       1.177  -6.161   7.966  0.00  0.00    +0.166 HD
BRANCH  10  12
ATOM     12  N   UNL     1      -0.824  -6.446   8.183  0.00  0.00    -0.256 NA
ATOM     13  H   UNL     1      -1.409  -6.798   7.441  0.00  0.00    +0.140 HD
ATOM     14  H   UNL     1      -0.587  -7.179   8.835  0.00  0.00    +0.140 HD
ENDBRANCH  10  12
ENDBRANCH   4  10
BRANCH   1  15
ATOM     15  C   UNL     1      -0.148  -1.627   3.930  0.00  0.00    +0.264 C 
BRANCH  15  16
ATOM     16  O   UNL     1      -0.045  -2.152   2.605  0.00  0.00    -0.487 OA
BRANCH  16  22
ATOM     17  C   UNL     1      -0.602   2.453   1.087  0.00  0.00    +0.044 C 
ATOM     18  C   UNL     1      -0.405   0.987   0.801  0.00  0.00    -0.047 A 
ATOM     19  C   UNL     1      -0.314   0.544  -0.505  0.00  0.00    +0.007 A 
ATOM     20  C   UNL     1      -0.132  -0.801  -0.771  0.00  0.00    -0.047 A 
ATOM     21  C   UNL     1      -0.043  -1.706   0.268  0.00  0.00    +0.049 A 
ATOM     22  C   UNL     1      -0.134  -1.264   1.581  0.00  0.00    +0.121 A 
ATOM     23  C   UNL     1      -0.310   0.086   1.845  0.00  0.00    +0.049 A 
ATOM     24  C   UNL     1      -0.034  -1.280  -2.197  0.00  0.00    +0.044 C 
ENDBRANCH  16  22
ENDBRANCH  15  16
ENDBRANCH   1  15
TORSDOF 6
