REMARK  Name = ZINC06239436
REMARK  12 active torsions:
REMARK  status: ('A' for Active; 'I' for Inactive)
REMARK    1  A    between atoms: C_1  and  O_2
REMARK    2  A    between atoms: O_2  and  C_3
REMARK    3  A    between atoms: C_7  and  C_17
REMARK    4  A    between atoms: C_14  and  O_15
REMARK    5  A    between atoms: O_15  and  C_16
REMARK    6  A    between atoms: C_17  and  N_18
REMARK    7  A    between atoms: N_18  and  C_19
REMARK    8  A    between atoms: N_18  and  C_29
REMARK    9  A    between atoms: C_19  and  C_20
REMARK   10  A    between atoms: C_29  and  N_31
REMARK   11  A    between atoms: N_31  and  C_32
REMARK   12  A    between atoms: C_32  and  C_33
REMARK                            x       y       z     vdW  Elec       q    Type
REMARK                         _______ _______ _______ _____ _____    ______ ____
ROOT
ATOM      1  N   UNL     1      -0.617   1.682   1.198  0.00  0.00    -0.304 N 
ENDROOT
BRANCH   1   2
ATOM      2  C   UNL     1      -1.519   0.988   1.919  0.00  0.00    +0.134 C 
ATOM      3  S   UNL     1      -1.849  -0.647   1.531  0.00  0.00    -0.019 S 
BRANCH   2   4
ATOM      4  N   UNL     1      -2.162   1.580   2.945  0.00  0.00    -0.324 N 
ATOM      5  H   UNL     1      -1.975   2.506   3.164  0.00  0.00    +0.148 HD
BRANCH   4   6
ATOM      6  C   UNL     1      -3.143   0.825   3.728  0.00  0.00    +0.134 C 
BRANCH   6   7
ATOM      7  C   UNL     1      -3.721   1.723   4.823  0.00  0.00    +0.135 C 
ATOM      8  C   UNL     1      -4.755   0.937   5.654  0.00  0.00    +0.035 C 
ATOM      9  C   UNL     1      -4.206   1.001   7.100  0.00  0.00    +0.031 C 
ATOM     10  C   UNL     1      -3.263   2.229   7.036  0.00  0.00    +0.160 C 
ATOM     11  O   UNL     1      -2.676   2.134   5.720  0.00  0.00    -0.375 OA
ENDBRANCH   6   7
ENDBRANCH   4   6
ENDBRANCH   2   4
ENDBRANCH   1   2
BRANCH   1  12
ATOM     12  C   UNL     1       0.004   1.073   0.019  0.00  0.00    +0.147 C 
BRANCH  12  17
ATOM     13  C   UNL     1       3.880  -3.451   1.730  0.00  0.00    +0.162 A 
ATOM     14  C   UNL     1       2.669  -2.901   1.371  0.00  0.00    +0.059 A 
ATOM     15  C   UNL     1       2.588  -1.534   1.077  0.00  0.00    +0.003 A 
ATOM     16  C   UNL     1       1.317  -0.918   0.697  0.00  0.00    +0.020 A 
ATOM     17  C   UNL     1       1.297   0.410   0.418  0.00  0.00    +0.035 A 
ATOM     18  C   UNL     1       2.479   1.172   0.506  0.00  0.00    +0.254 A 
ATOM     19  O   UNL     1       2.438   2.364   0.256  0.00  0.00    -0.268 OA
ATOM     20  N   UNL     1       3.652   0.617   0.860  0.00  0.00    -0.322 N 
ATOM     21  H   UNL     1       4.447   1.171   0.910  0.00  0.00    +0.169 HD
ATOM     22  C   UNL     1       3.742  -0.729   1.150  0.00  0.00    +0.053 A 
ATOM     23  C   UNL     1       4.955  -1.299   1.515  0.00  0.00    +0.075 A 
ATOM     24  C   UNL     1       5.024  -2.650   1.803  0.00  0.00    +0.163 A 
BRANCH  13  26
ATOM     25  C   UNL     1       2.757  -5.539   1.923  0.00  0.00    +0.277 C 
ATOM     26  O   UNL     1       3.963  -4.778   2.016  0.00  0.00    -0.491 OA
ENDBRANCH  13  26
BRANCH  24  27
ATOM     27  O   UNL     1       6.212  -3.203   2.159  0.00  0.00    -0.491 OA
ATOM     28  C   UNL     1       7.343  -2.331   2.214  0.00  0.00    +0.277 C 
ENDBRANCH  24  27
ENDBRANCH  12  17
ENDBRANCH   1  12
BRANCH   1  29
ATOM     29  C   UNL     1      -0.257   3.046   1.593  0.00  0.00    +0.142 C 
BRANCH  29  30
ATOM     30  C   UNL     1      -1.109   4.030   0.833  0.00  0.00    -0.026 A 
ATOM     31  C   UNL     1      -0.729   4.439  -0.431  0.00  0.00    +0.009 A 
ATOM     32  C   UNL     1      -1.509   5.338  -1.134  0.00  0.00    +0.050 A 
ATOM     33  C   UNL     1      -2.669   5.840  -0.567  0.00  0.00    +0.166 A 
ATOM     34  C   UNL     1      -3.050   5.432   0.709  0.00  0.00    +0.167 A 
ATOM     35  C   UNL     1      -2.265   4.527   1.405  0.00  0.00    +0.054 A 
ATOM     36  O   UNL     1      -4.215   6.062   1.039  0.00  0.00    -0.453 OA
ATOM     37  C   UNL     1      -4.328   7.166   0.122  0.00  0.00    +0.466 C 
ATOM     38  O   UNL     1      -3.596   6.725  -1.037  0.00  0.00    -0.453 OA
ENDBRANCH  29  30
ENDBRANCH   1  29
TORSDOF 10
