REMARK  Name = ZINC06876126
REMARK  8 active torsions:
REMARK  status: ('A' for Active; 'I' for Inactive)
REMARK    1  A    between atoms: C_1  and  C_2
REMARK    2  A    between atoms: C_2  and  O_3
REMARK    3  A    between atoms: O_3  and  C_4
REMARK    4  A    between atoms: C_7  and  C_10
REMARK    5  A    between atoms: C_13  and  S_25
REMARK    6  A    between atoms: N_14  and  N_15
REMARK    7  A    between atoms: N_15  and  N_16
REMARK    8  A    between atoms: C_17  and  C_18
REMARK                            x       y       z     vdW  Elec       q    Type
REMARK                         _______ _______ _______ _____ _____    ______ ____
ROOT
ATOM      1  C   UNL     1       4.581   8.232   0.066  0.00  0.00    +0.183 A 
ATOM      2  N   UNL     1       4.039   9.427   0.108  0.00  0.00    -0.127 NA
ATOM      3  N   UNL     1       2.803   9.361  -0.236  0.00  0.00    -0.121 NA
ATOM      4  C   UNL     1       2.480   8.121  -0.524  0.00  0.00    +0.207 A 
ATOM      5  N   UNL     1       3.598   7.358  -0.338  0.00  0.00    -0.201 N 
ENDROOT
BRANCH   1   9
ATOM      6  C   UNL     1       8.608   7.249   0.998  0.00  0.00    +0.121 A 
ATOM      7  C   UNL     1       8.255   8.571   0.761  0.00  0.00    +0.046 A 
ATOM      8  C   UNL     1       6.950   8.894   0.458  0.00  0.00    +0.015 A 
ATOM      9  C   UNL     1       5.982   7.890   0.390  0.00  0.00    +0.021 A 
ATOM     10  C   UNL     1       6.340   6.563   0.635  0.00  0.00    +0.015 A 
ATOM     11  C   UNL     1       7.648   6.248   0.932  0.00  0.00    +0.046 A 
BRANCH   6  12
ATOM     12  O   UNL     1       9.896   6.935   1.296  0.00  0.00    -0.492 OA
BRANCH  12  14
ATOM     13  C   UNL     1      11.678   5.399   1.848  0.00  0.00    +0.048 C 
ATOM     14  C   UNL     1      10.190   5.556   1.530  0.00  0.00    +0.225 C 
ENDBRANCH  12  14
ENDBRANCH   6  12
ENDBRANCH   1   9
BRANCH   5  15
ATOM     15  N   UNL     1       3.720   5.974  -0.524  0.00  0.00    -0.170 N 
ATOM     16  H   UNL     1       4.547   5.602  -0.868  0.00  0.00    +0.196 HD
BRANCH  15  17
ATOM     17  N   UNL     1       2.647   5.129  -0.212  0.00  0.00    -0.174 NA
ATOM     18  C   UNL     1       2.735   3.856  -0.449  0.00  0.00    +0.141 C 
BRANCH  18  19
ATOM     19  C   UNL     1       1.671   2.945   0.013  0.00  0.00    +0.013 A 
ATOM     20  C   UNL     1       1.704   1.593  -0.335  0.00  0.00    +0.011 A 
ATOM     21  C   UNL     1       0.707   0.746   0.101  0.00  0.00    +0.001 A 
ATOM     22  C   UNL     1      -0.330   1.235   0.878  0.00  0.00    +0.001 A 
ATOM     23  C   UNL     1      -0.368   2.571   1.231  0.00  0.00    +0.020 A 
ATOM     24  C   UNL     1       0.624   3.431   0.802  0.00  0.00    +0.050 A 
ATOM     25 CL   UNL     1       0.571   5.110   1.240  0.00  0.00    -0.083 Cl
ENDBRANCH  18  19
ENDBRANCH  15  17
ENDBRANCH   5  15
BRANCH   4  26
ATOM     26  S   UNL     1       0.899   7.547  -1.051  0.00  0.00    -0.102 S 
ATOM     27  H   UNL     1       0.254   7.429   0.197  0.00  0.00    +0.110 HD
ENDBRANCH   4  26
TORSDOF 7
