REMARK  Name = ZINC34835249
REMARK  13 active torsions:
REMARK  status: ('A' for Active; 'I' for Inactive)
REMARK    1  A    between atoms: C_1  and  C_2
REMARK    2  A    between atoms: C_2  and  C_3
REMARK    3  A    between atoms: C_3  and  C_5
REMARK    4  A    between atoms: C_3  and  N_6
REMARK    5  A    between atoms: N_6  and  C_7
REMARK    6  A    between atoms: C_7  and  C_8
REMARK    7  A    between atoms: C_9  and  C_27
REMARK    8  A    between atoms: N_11  and  C_21
REMARK    9  A    between atoms: C_12  and  N_13
REMARK   10  A    between atoms: N_16  and  C_19
REMARK   11  A    between atoms: C_19  and  C_20
REMARK   12  A    between atoms: N_30  and  C_31
REMARK   13  A    between atoms: C_36  and  C_37
REMARK                            x       y       z     vdW  Elec       q    Type
REMARK                         _______ _______ _______ _____ _____    ______ ____
ROOT
ATOM      1  C   UNL     1       2.255   2.287  -1.755  0.00  0.00    +0.032 A 
ATOM      2  C   UNL     1       0.928   2.670  -1.535  0.00  0.00    +0.067 A 
ATOM      3  N   UNL     1       0.922   3.694  -0.720  0.00  0.00    -0.170 NA
ATOM      4  N   UNL     1       2.247   4.004  -0.389  0.00  0.00    -0.218 N 
ATOM      5  C   UNL     1       3.055   3.119  -1.034  0.00  0.00    +0.130 A 
ATOM      6  C   UNL     1      -0.289   2.015  -2.135  0.00  0.00    +0.068 C 
ENDROOT
BRANCH   5   7
ATOM      7  N   UNL     1       4.445   3.076  -0.971  0.00  0.00    -0.318 N 
ATOM      8  C   UNL     1       5.247   4.300  -1.112  0.00  0.00    +0.088 C 
ATOM      9  C   UNL     1       6.242   4.366   0.052  0.00  0.00    -0.060 C 
ATOM     10  N   UNL     1       7.029   3.127   0.092  0.00  0.00    +0.382 N 
ATOM     11  C   UNL     1       6.152   1.986   0.386  0.00  0.00    -0.060 C 
ATOM     12  C   UNL     1       5.153   1.804  -0.756  0.00  0.00    +0.088 C 
ATOM     13  H   UNL     1       7.476   2.985  -0.801  0.00  0.00    -0.082 HD
BRANCH  10  14
ATOM     14  C   UNL     1       8.056   3.235   1.138  0.00  0.00    -0.082 C 
ATOM     15  C   UNL     1       8.955   1.998   1.098  0.00  0.00    -0.017 C 
ENDBRANCH  10  14
ENDBRANCH   5   7
BRANCH   4  16
ATOM     16  C   UNL     1       2.666   5.038   0.461  0.00  0.00    +0.067 A 
ATOM     17  C   UNL     1       3.586   4.780   1.468  0.00  0.00    +0.028 A 
ATOM     18  C   UNL     1       3.997   5.801   2.303  0.00  0.00    +0.002 A 
ATOM     19  C   UNL     1       3.493   7.078   2.137  0.00  0.00    +0.000 A 
ATOM     20  C   UNL     1       2.576   7.337   1.135  0.00  0.00    +0.002 A 
ATOM     21  C   UNL     1       2.166   6.322   0.292  0.00  0.00    +0.028 A 
ENDBRANCH   4  16
BRANCH   1  22
ATOM     22  C   UNL     1       2.716   1.150  -2.631  0.00  0.00    +0.150 C 
BRANCH  22  23
ATOM     23  N   UNL     1       3.018   1.658  -3.971  0.00  0.00    -0.278 N 
ATOM     24  C   UNL     1       2.108   1.537  -4.958  0.00  0.00    +0.307 C 
ATOM     25  O   UNL     1       1.001   1.098  -4.714  0.00  0.00    -0.252 OA
ATOM     26  N   UNL     1       2.426   1.901  -6.216  0.00  0.00    -0.269 N 
ATOM     27  H   UNL     1       3.329   2.190  -6.424  0.00  0.00    +0.156 HD
BRANCH  26  28
ATOM     28  C   UNL     1       1.454   1.864  -7.223  0.00  0.00    +0.038 A 
ATOM     29  C   UNL     1       0.216   1.288  -6.973  0.00  0.00    +0.023 A 
ATOM     30  C   UNL     1      -0.741   1.253  -7.967  0.00  0.00    +0.002 A 
ATOM     31  C   UNL     1      -0.467   1.791  -9.212  0.00  0.00    +0.000 A 
ATOM     32  C   UNL     1       0.765   2.365  -9.464  0.00  0.00    +0.005 A 
ATOM     33  C   UNL     1       1.724   2.408  -8.471  0.00  0.00    -0.029 A 
ATOM     34  C   UNL     1       3.065   3.039  -8.745  0.00  0.00    +0.045 C 
ENDBRANCH  26  28
BRANCH  23  35
ATOM     35  C   UNL     1       4.309   2.297  -4.239  0.00  0.00    +0.075 C 
ATOM     36  C   UNL     1       5.110   1.438  -5.219  0.00  0.00    +0.028 C 
BRANCH  35  38
ATOM     37  C   UNL     1       3.365   4.573  -3.827  0.00  0.00    +0.006 C 
ATOM     38  C   UNL     1       4.076   3.682  -4.847  0.00  0.00    +0.019 C 
ENDBRANCH  35  38
ENDBRANCH  23  35
ENDBRANCH  22  23
ENDBRANCH   1  22
TORSDOF 8
