REMARK  Name = ZINC13783422
REMARK  8 active torsions:
REMARK  status: ('A' for Active; 'I' for Inactive)
REMARK    1  A    between atoms: C_1  and  C_2
REMARK    2  A    between atoms: C_4  and  O_32
REMARK    3  A    between atoms: C_12  and  O_20
REMARK    4  A    between atoms: C_14  and  C_15
REMARK    5  A    between atoms: C_14  and  O_19
REMARK    6  A    between atoms: C_15  and  C_17
REMARK    7  A    between atoms: C_17  and  O_18
REMARK    8  A    between atoms: C_29  and  C_30
REMARK                            x       y       z     vdW  Elec       q    Type
REMARK                         _______ _______ _______ _____ _____    ______ ____
ROOT
ATOM      1  C   UNL     1      -2.732   0.785  -2.902  0.00  0.00    +0.015 C 
ATOM      2  C   UNL     1      -1.419   1.163  -3.590  0.00  0.00    +0.012 C 
ATOM      3  C   UNL     1      -0.698  -0.064  -4.156  0.00  0.00    +0.044 C 
ATOM      4  C   UNL     1      -1.440  -0.609  -5.372  0.00  0.00    +0.154 C 
ATOM      5  C   UNL     1      -1.440   0.460  -6.471  0.00  0.00    +0.153 C 
ATOM      6  C   UNL     1      -2.208   1.679  -5.964  0.00  0.00    +0.034 C 
ATOM      7  C   UNL     1      -1.615   2.224  -4.686  0.00  0.00    +0.007 C 
ATOM      8  C   UNL     1      -0.201   2.798  -4.889  0.00  0.00    +0.039 C 
ATOM      9  C   UNL     1       0.367   2.870  -3.453  0.00  0.00    +0.154 C 
ATOM     10  C   UNL     1      -0.425   1.850  -2.615  0.00  0.00    +0.157 C 
ATOM     11  C   UNL     1      -2.229   2.772  -7.036  0.00  0.00    +0.011 C 
ATOM     12  C   UNL     1      -2.978   2.269  -8.274  0.00  0.00    +0.032 C 
ATOM     13  C   UNL     1      -2.322   0.978  -8.725  0.00  0.00    -0.053 C 
ATOM     14  C   UNL     1      -1.939   0.858  -9.988  0.00  0.00    +0.051 C 
ATOM     15  C   UNL     1      -1.280  -0.371 -10.456  0.00  0.00    +0.179 C 
ATOM     16  O   UNL     1      -0.961  -0.501 -11.623  0.00  0.00    -0.288 OA
ATOM     17  C   UNL     1      -1.016  -1.442  -9.479  0.00  0.00    +0.047 C 
ATOM     18  C   UNL     1      -1.414  -1.303  -8.225  0.00  0.00    -0.009 C 
ATOM     19  C   UNL     1      -2.142  -0.110  -7.708  0.00  0.00    +0.044 C 
ATOM     20  C   UNL     1      -3.532  -0.582  -7.277  0.00  0.00    +0.023 C 
ATOM     21  F   UNL     1      -0.124   0.824  -6.777  0.00  0.00    -0.238 F 
ENDROOT
BRANCH  10  22
ATOM     22  C   UNL     1      -1.181   2.556  -1.519  0.00  0.00    +0.193 C 
ATOM     23  O   UNL     1      -2.246   3.074  -1.756  0.00  0.00    -0.292 OA
BRANCH  22  24
ATOM     24  C   UNL     1      -0.608   2.616  -0.126  0.00  0.00    +0.233 C 
BRANCH  24  25
ATOM     25  O   UNL     1      -1.503   3.333   0.727  0.00  0.00    -0.387 OA
ATOM     26  H   UNL     1      -1.197   3.411   1.641  0.00  0.00    +0.210 HD
ENDBRANCH  24  25
ENDBRANCH  22  24
ENDBRANCH  10  22
BRANCH  10  27
ATOM     27  O   UNL     1       0.461   0.880  -2.053  0.00  0.00    -0.378 OA
ATOM     28  H   UNL     1       1.115   1.250  -1.444  0.00  0.00    +0.211 HD
ENDBRANCH  10  27
BRANCH   9  29
ATOM     29  O   UNL     1       0.189   4.184  -2.921  0.00  0.00    -0.388 OA
ATOM     30  H   UNL     1       0.664   4.873  -3.407  0.00  0.00    +0.210 HD
ENDBRANCH   9  29
BRANCH   4  31
ATOM     31  O   UNL     1      -0.783  -1.787  -5.846  0.00  0.00    -0.389 OA
ATOM     32  H   UNL     1      -0.740  -2.501  -5.196  0.00  0.00    +0.210 HD
ENDBRANCH   4  31
TORSDOF 6
