REMARK  Name = ZINC33121256
REMARK  13 active torsions:
REMARK  status: ('A' for Active; 'I' for Inactive)
REMARK    1  A    between atoms: C_1  and  C_2
REMARK    2  A    between atoms: C_2  and  C_3
REMARK    3  A    between atoms: C_3  and  C_4
REMARK    4  A    between atoms: C_4  and  N_5
REMARK    5  A    between atoms: N_5  and  C_6
REMARK    6  A    between atoms: C_7  and  C_9
REMARK    7  A    between atoms: C_11  and  N_21
REMARK    8  A    between atoms: C_14  and  N_15
REMARK    9  A    between atoms: N_21  and  S_22
REMARK   10  A    between atoms: S_22  and  C_25
REMARK   11  A    between atoms: C_27  and  C_33
REMARK   12  A    between atoms: C_28  and  C_32
REMARK   13  A    between atoms: C_30  and  C_31
REMARK                            x       y       z     vdW  Elec       q    Type
REMARK                         _______ _______ _______ _____ _____    ______ ____
ROOT
ATOM      1  C   UNL     1       0.398  -2.244   0.896  0.00  0.00    +0.060 A 
ATOM      2  C   UNL     1      -0.355  -3.125   0.116  0.00  0.00    +0.039 A 
ATOM      3  C   UNL     1       0.110  -4.407  -0.119  0.00  0.00    +0.049 A 
ATOM      4  C   UNL     1       1.325  -4.820   0.420  0.00  0.00    +0.026 A 
ATOM      5  C   UNL     1       2.074  -3.957   1.192  0.00  0.00    +0.026 A 
ATOM      6  C   UNL     1       1.624  -2.666   1.432  0.00  0.00    +0.042 A 
ENDROOT
BRANCH   6   7
ATOM      7  N   UNL     1       2.384  -1.794   2.206  0.00  0.00    -0.333 N 
ATOM      8  C   UNL     1       3.478  -2.507   2.881  0.00  0.00    +0.086 C 
ATOM      9  C   UNL     1       4.239  -1.531   3.782  0.00  0.00    -0.063 C 
ATOM     10  N   UNL     1       4.758  -0.422   2.970  0.00  0.00    +0.381 N 
ATOM     11  C   UNL     1       3.665   0.290   2.295  0.00  0.00    -0.063 C 
ATOM     12  C   UNL     1       2.903  -0.685   1.394  0.00  0.00    +0.086 C 
ATOM     13  H   UNL     1       5.296   0.286   3.618  0.00  0.00    -0.086 HD
ATOM     14  H   UNL     1       5.447  -0.817   2.208  0.00  0.00    -0.086 HD
ENDBRANCH   6   7
BRANCH   1  17
ATOM     15  N   UNL     1      -0.329  -0.043   0.118  0.00  0.00    -0.301 N 
ATOM     16  C   UNL     1      -0.204  -0.528  -1.259  0.00  0.00    +0.132 C 
ATOM     17  C   UNL     1      -0.091  -0.876   1.150  0.00  0.00    +0.248 C 
ATOM     18  O   UNL     1      -0.279  -0.500   2.291  0.00  0.00    -0.270 OA
BRANCH  15  19
ATOM     19  C   UNL     1      -0.712   1.348   0.373  0.00  0.00    +0.108 C 
BRANCH  19  20
ATOM     20  C   UNL     1      -2.236   1.447   0.471  0.00  0.00    +0.019 C 
BRANCH  20  22
ATOM     21  C   UNL     1      -4.160   2.998   0.836  0.00  0.00    +0.004 C 
ATOM     22  C   UNL     1      -2.637   2.899   0.737  0.00  0.00    -0.002 C 
ENDBRANCH  20  22
ENDBRANCH  19  20
ENDBRANCH  15  19
ENDBRANCH   1  17
BRANCH   3  23
ATOM     23  N   UNL     1      -0.644  -5.290  -0.901  0.00  0.00    -0.216 N 
ATOM     24  H   UNL     1      -1.727  -5.387  -0.733  0.00  0.00    +0.174 HD
BRANCH  23  25
ATOM     25  S   UNL     1       0.095  -6.190  -2.079  0.00  0.00    +0.073 S 
ATOM     26  O   UNL     1      -0.924  -6.964  -2.698  0.00  0.00    -0.150 OA
ATOM     27  O   UNL     1       0.925  -5.298  -2.810  0.00  0.00    -0.150 OA
BRANCH  25  28
ATOM     28  C   UNL     1       1.169  -7.328  -1.268  0.00  0.00    +0.112 A 
ATOM     29  C   UNL     1       2.535  -7.255  -1.473  0.00  0.00    +0.032 A 
ATOM     30  C   UNL     1       3.378  -8.145  -0.834  0.00  0.00    -0.046 A 
ATOM     31  C   UNL     1       2.855  -9.113   0.002  0.00  0.00    -0.047 A 
ATOM     32  C   UNL     1       1.489  -9.189   0.203  0.00  0.00    +0.009 A 
ATOM     33  C   UNL     1       0.646  -8.296  -0.433  0.00  0.00    -0.024 A 
ATOM     34  C   UNL     1      -0.842  -8.379  -0.214  0.00  0.00    +0.046 C 
ATOM     35  C   UNL     1       3.773 -10.086   0.695  0.00  0.00    +0.044 C 
ATOM     36  C   UNL     1       4.866  -8.062  -1.053  0.00  0.00    +0.044 C 
ENDBRANCH  25  28
ENDBRANCH  23  25
ENDBRANCH   3  23
TORSDOF 8
