REMARK  Name = ZINC23576153
REMARK  7 active torsions:
REMARK  status: ('A' for Active; 'I' for Inactive)
REMARK    1  A    between atoms: C_3  and  C_6
REMARK    2  A    between atoms: N_8  and  C_9
REMARK    3  A    between atoms: C_12  and  C_14
REMARK    4  A    between atoms: C_14  and  O_16
REMARK    5  A    between atoms: O_16  and  C_17
REMARK    6  A    between atoms: C_17  and  C_18
REMARK    7  A    between atoms: N_20  and  C_21
REMARK                            x       y       z     vdW  Elec       q    Type
REMARK                         _______ _______ _______ _____ _____    ______ ____
ROOT
ATOM      1  O   UNL     1      -2.403   1.002   0.016  0.00  0.00    -0.451 OA
ENDROOT
BRANCH   1   2
ATOM      2  C   UNL     1      -3.657   1.500   0.018  0.00  0.00    +0.346 C 
ATOM      3  O   UNL     1      -3.833   2.705   0.016  0.00  0.00    -0.244 OA
BRANCH   2   7
ATOM      4  C   UNL     1      -6.505  -1.404   0.028  0.00  0.00    +0.073 A 
ATOM      5  C   UNL     1      -7.003  -0.118   0.027  0.00  0.00    +0.032 A 
ATOM      6  C   UNL     1      -6.123   0.929   0.024  0.00  0.00    +0.024 A 
ATOM      7  C   UNL     1      -4.769   0.623   0.022  0.00  0.00    +0.098 A 
ATOM      8  S   UNL     1      -4.788  -1.161   0.017  0.00  0.00    -0.067 S 
BRANCH   4  11
ATOM      9  C   UNL     1      -6.540  -3.773   0.031  0.00  0.00    +0.284 C 
ATOM     10  O   UNL     1      -5.323  -3.781   0.029  0.00  0.00    -0.266 OA
ATOM     11  N   UNL     1      -7.207  -2.601   0.031  0.00  0.00    -0.273 N 
ATOM     12  H   UNL     1      -8.306  -2.594   0.033  0.00  0.00    +0.156 HD
BRANCH   9  15
ATOM     13  C   UNL     1      -7.804  -7.197   0.038  0.00  0.00    +0.042 A 
ATOM     14  C   UNL     1      -6.734  -6.289   0.035  0.00  0.00    +0.054 A 
ATOM     15  C   UNL     1      -7.282  -5.038   0.034  0.00  0.00    +0.189 A 
ATOM     16  O   UNL     1      -8.624  -5.170   0.042  0.00  0.00    -0.458 OA
ATOM     17  C   UNL     1      -8.943  -6.471   0.040  0.00  0.00    +0.196 A 
ENDBRANCH   9  15
ENDBRANCH   4  11
ENDBRANCH   2   7
ENDBRANCH   1   2
BRANCH   1  18
ATOM     18  C   UNL     1      -1.330   1.945   0.012  0.00  0.00    +0.328 C 
BRANCH  18  19
ATOM     19  C   UNL     1      -0.014   1.209   0.011  0.00  0.00    +0.255 C 
ATOM     20  O   UNL     1       0.002  -0.004   0.013  0.00  0.00    -0.272 OA
ATOM     21  N   UNL     1       1.143   1.898   0.001  0.00  0.00    -0.283 N 
ATOM     22  H   UNL     1       1.130   2.995  -0.077  0.00  0.00    +0.155 HD
BRANCH  21  23
ATOM     23  C   UNL     1       2.365   1.218   0.092  0.00  0.00    +0.037 A 
ATOM     24  C   UNL     1       2.513  -0.025  -0.508  0.00  0.00    +0.027 A 
ATOM     25  C   UNL     1       3.717  -0.698  -0.420  0.00  0.00    +0.051 A 
ATOM     26  C   UNL     1       4.779  -0.134   0.267  0.00  0.00    +0.173 A 
ATOM     27  C   UNL     1       4.634   1.113   0.870  0.00  0.00    +0.174 A 
ATOM     28  C   UNL     1       3.429   1.789   0.776  0.00  0.00    +0.073 A 
ATOM     29  O   UNL     1       5.811   1.445   1.477  0.00  0.00    -0.395 OA
ATOM     30  C   UNL     1       6.802   0.578   0.893  0.00  0.00    +0.589 C 
ATOM     31  O   UNL     1       6.049  -0.583   0.496  0.00  0.00    -0.395 OA
ATOM     32  F   UNL     1       7.392   1.185  -0.220  0.00  0.00    -0.125 F 
ATOM     33  F   UNL     1       7.774   0.237   1.839  0.00  0.00    -0.125 F 
ENDBRANCH  21  23
ENDBRANCH  18  19
ENDBRANCH   1  18
TORSDOF 7
