REMARK  Name = ZINC53686284
REMARK  8 active torsions:
REMARK  status: ('A' for Active; 'I' for Inactive)
REMARK    1  A    between atoms: C_1  and  C_2
REMARK    2  A    between atoms: C_3  and  S_9
REMARK    3  A    between atoms: N_5  and  C_7
REMARK    4  A    between atoms: S_9  and  N_12
REMARK    5  A    between atoms: N_12  and  C_13
REMARK    6  A    between atoms: N_17  and  C_19
REMARK    7  A    between atoms: C_19  and  C_21
REMARK    8  A    between atoms: C_19  and  C_22
REMARK                            x       y       z     vdW  Elec       q    Type
REMARK                         _______ _______ _______ _____ _____    ______ ____
ROOT
ATOM      1  C   UNL     1       2.443  -1.257  -3.367  0.00  0.00    +0.058 C 
ATOM      2  C   UNL     1       3.301  -1.381  -2.087  0.00  0.00    -0.000 C 
ATOM      3  C   UNL     1       4.677  -1.837  -2.635  0.00  0.00    -0.076 C 
ATOM      4  N   UNL     1       4.804  -1.081  -3.907  0.00  0.00    +0.385 N 
ATOM      5  C   UNL     1       3.454  -1.086  -4.516  0.00  0.00    -0.058 C 
ATOM      6  H   UNL     1       5.099  -0.134  -3.721  0.00  0.00    -0.081 HD
ENDROOT
BRANCH   1   7
ATOM      7  N   UNL     1       1.568  -0.085  -3.281  0.00  0.00    -0.189 NA
ATOM      8  H   UNL     1       1.913   0.795  -3.500  0.00  0.00    +0.148 HD
BRANCH   7   9
ATOM      9  S   UNL     1      -0.009  -0.263  -2.808  0.00  0.00    +0.063 S 
ATOM     10  O   UNL     1      -0.548  -1.324  -3.583  0.00  0.00    -0.153 OA
ATOM     11  O   UNL     1      -0.579   1.039  -2.798  0.00  0.00    -0.153 OA
BRANCH   9  14
ATOM     12  C   UNL     1      -0.018   1.503   0.010  0.00  0.00    +0.069 C 
ATOM     13  C   UNL     1       0.002  -0.004   0.002  0.00  0.00    +0.088 A 
ATOM     14  C   UNL     1       0.008  -0.818  -1.135  0.00  0.00    +0.164 A 
ATOM     15  C   UNL     1       0.028  -2.108  -0.724  0.00  0.00    +0.153 A 
ATOM     16  N   UNL     1       0.035  -2.109   0.626  0.00  0.00    -0.254 N 
ATOM     17  N   UNL     1       0.023  -0.777   1.058  0.00  0.00    -0.173 NA
ATOM     18  C   UNL     1       0.055  -3.294   1.487  0.00  0.00    +0.174 C 
ATOM     19 CL   UNL     1       0.043  -3.509  -1.749  0.00  0.00    -0.060 Cl
ENDBRANCH   9  14
ENDBRANCH   7   9
ENDBRANCH   1   7
BRANCH   4  20
ATOM     20  C   UNL     1       5.763  -1.747  -4.799  0.00  0.00    -0.041 C 
ATOM     21  C   UNL     1       5.855  -0.975  -6.117  0.00  0.00    -0.008 C 
BRANCH  20  22
ATOM     22  C   UNL     1       7.119  -1.782  -4.142  0.00  0.00    -0.061 A 
ATOM     23  C   UNL     1       7.568  -0.689  -3.424  0.00  0.00    +0.002 A 
ATOM     24  C   UNL     1       8.811  -0.722  -2.821  0.00  0.00    +0.000 A 
ATOM     25  C   UNL     1       9.606  -1.847  -2.936  0.00  0.00    +0.000 A 
ATOM     26  C   UNL     1       9.156  -2.940  -3.653  0.00  0.00    +0.000 A 
ATOM     27  C   UNL     1       7.911  -2.909  -4.252  0.00  0.00    +0.002 A 
ENDBRANCH  20  22
ENDBRANCH   4  20
TORSDOF 5
