REMARK  Name = ZINC11790119
REMARK  9 active torsions:
REMARK  status: ('A' for Active; 'I' for Inactive)
REMARK    1  A    between atoms: C_1  and  C_2
REMARK    2  A    between atoms: C_3  and  C_24
REMARK    3  A    between atoms: C_5  and  C_7
REMARK    4  A    between atoms: C_12  and  N_13
REMARK    5  A    between atoms: N_13  and  S_14
REMARK    6  A    between atoms: S_14  and  C_17
REMARK    7  A    between atoms: C_17  and  C_18
REMARK    8  A    between atoms: C_24  and  N_25
REMARK    9  A    between atoms: C_26  and  C_28
REMARK                            x       y       z     vdW  Elec       q    Type
REMARK                         _______ _______ _______ _____ _____    ______ ____
ROOT
ATOM      1  C   UNL     1       0.743   4.033  -1.745  0.00  0.00    +0.088 C 
ATOM      2  C   UNL     1      -0.360   3.021  -1.920  0.00  0.00    +0.127 A 
ATOM      3  C   UNL     1      -0.610   1.968  -1.121  0.00  0.00    +0.100 A 
ATOM      4  N   UNL     1      -1.669   1.313  -1.622  0.00  0.00    -0.212 NA
ATOM      5  C   UNL     1      -2.079   1.942  -2.700  0.00  0.00    +0.230 A 
ATOM      6  O   UNL     1      -1.280   3.002  -2.906  0.00  0.00    -0.440 OA
ENDROOT
BRANCH   5   7
ATOM      7  C   UNL     1      -3.222   1.545  -3.547  0.00  0.00    +0.059 A 
ATOM      8  C   UNL     1      -3.973   0.413  -3.227  0.00  0.00    +0.015 A 
ATOM      9  C   UNL     1      -5.042   0.051  -4.019  0.00  0.00    +0.001 A 
ATOM     10  C   UNL     1      -5.369   0.799  -5.138  0.00  0.00    +0.002 A 
ATOM     11  C   UNL     1      -4.631   1.919  -5.470  0.00  0.00    +0.025 A 
ATOM     12  C   UNL     1      -3.555   2.301  -4.681  0.00  0.00    +0.060 A 
BRANCH  12  13
ATOM     13  N   UNL     1      -2.809   3.430  -5.013  0.00  0.00    -0.220 N 
ATOM     14  H   UNL     1      -1.852   3.442  -4.856  0.00  0.00    +0.173 HD
BRANCH  13  15
ATOM     15  S   UNL     1      -3.558   4.750  -5.675  0.00  0.00    +0.047 S 
ATOM     16  O   UNL     1      -2.531   5.726  -5.796  0.00  0.00    -0.155 OA
ATOM     17  O   UNL     1      -4.221   4.251  -6.828  0.00  0.00    -0.155 OA
BRANCH  15  18
ATOM     18  C   UNL     1      -4.771   5.271  -4.432  0.00  0.00    +0.223 C 
BRANCH  18  19
ATOM     19  C   UNL     1      -5.519   6.479  -4.934  0.00  0.00    -0.025 A 
ATOM     20  C   UNL     1      -5.045   7.748  -4.660  0.00  0.00    +0.005 A 
ATOM     21  C   UNL     1      -5.728   8.857  -5.125  0.00  0.00    +0.000 A 
ATOM     22  C   UNL     1      -6.890   8.695  -5.856  0.00  0.00    +0.000 A 
ATOM     23  C   UNL     1      -7.367   7.426  -6.126  0.00  0.00    +0.000 A 
ATOM     24  C   UNL     1      -6.681   6.318  -5.665  0.00  0.00    +0.005 A 
ENDBRANCH  18  19
ENDBRANCH  15  18
ENDBRANCH  13  15
ENDBRANCH  12  13
ENDBRANCH   5   7
BRANCH   3  25
ATOM     25  C   UNL     1       0.165   1.588   0.114  0.00  0.00    +0.163 C 
BRANCH  25  26
ATOM     26  N   UNL     1      -0.423   2.247   1.282  0.00  0.00    -0.306 N 
ATOM     27  C   UNL     1       0.109   2.052   2.505  0.00  0.00    +0.245 C 
ATOM     28  O   UNL     1       1.077   1.329   2.638  0.00  0.00    -0.270 OA
ATOM     29  H   UNL     1      -1.196   2.824   1.176  0.00  0.00    +0.149 HD
BRANCH  27  30
ATOM     30  C   UNL     1      -0.486   2.718   3.687  0.00  0.00    +0.041 A 
ATOM     31  C   UNL     1       0.051   2.529   4.965  0.00  0.00    +0.033 A 
ATOM     32  C   UNL     1      -0.535   3.169   6.039  0.00  0.00    +0.113 A 
ATOM     33  N   UNL     1      -1.585   3.950   5.873  0.00  0.00    -0.244 NA
ATOM     34  C   UNL     1      -2.122   4.155   4.686  0.00  0.00    +0.130 A 
ATOM     35  C   UNL     1      -1.595   3.558   3.555  0.00  0.00    +0.053 A 
ATOM     36 CL   UNL     1      -3.505   5.195   4.540  0.00  0.00    -0.062 Cl
ENDBRANCH  27  30
ENDBRANCH  25  26
ENDBRANCH   3  25
TORSDOF 8
