REMARK  Name = ZINC09610659
REMARK  10 active torsions:
REMARK  status: ('A' for Active; 'I' for Inactive)
REMARK    1  A    between atoms: C_1  and  N_2
REMARK    2  A    between atoms: N_2  and  C_3
REMARK    3  A    between atoms: N_2  and  C_4
REMARK    4  A    between atoms: C_7  and  C_10
REMARK    5  A    between atoms: C_10  and  N_11
REMARK    6  A    between atoms: C_12  and  C_14
REMARK    7  A    between atoms: C_14  and  C_16
REMARK    8  A    between atoms: C_14  and  N_22
REMARK    9  A    between atoms: N_22  and  S_23
REMARK   10  A    between atoms: S_23  and  C_26
REMARK                            x       y       z     vdW  Elec       q    Type
REMARK                         _______ _______ _______ _____ _____    ______ ____
ROOT
ATOM      1  C   UNL     1      -0.997   1.758  -3.630  0.00  0.00    +0.192 C 
ENDROOT
BRANCH   1   2
ATOM      2  C   UNL     1      -2.411   1.236  -3.619  0.00  0.00    -0.020 A 
ATOM      3  C   UNL     1      -2.675  -0.055  -4.038  0.00  0.00    +0.006 A 
ATOM      4  C   UNL     1      -3.971  -0.534  -4.024  0.00  0.00    +0.000 A 
ATOM      5  C   UNL     1      -5.005   0.279  -3.600  0.00  0.00    +0.000 A 
ATOM      6  C   UNL     1      -4.742   1.571  -3.186  0.00  0.00    +0.000 A 
ATOM      7  C   UNL     1      -3.445   2.050  -3.196  0.00  0.00    +0.006 A 
ENDBRANCH   1   2
BRANCH   1   9
ATOM      8  N   UNL     1      -0.721   1.571  -1.179  0.00  0.00    -0.310 N 
ATOM      9  C   UNL     1      -0.268   1.258  -2.409  0.00  0.00    +0.236 C 
ATOM     10  O   UNL     1       0.726   0.575  -2.534  0.00  0.00    -0.274 OA
ATOM     11  H   UNL     1      -1.516   2.118  -1.079  0.00  0.00    +0.149 HD
BRANCH   8  12
ATOM     12  C   UNL     1      -0.013   1.086   0.008  0.00  0.00    +0.139 C 
BRANCH  12  16
ATOM     13  C   UNL     1      -2.013   2.464   3.524  0.00  0.00    +0.029 A 
ATOM     14  C   UNL     1      -2.368   1.249   2.953  0.00  0.00    +0.023 A 
ATOM     15  C   UNL     1      -1.720   0.806   1.817  0.00  0.00    +0.007 A 
ATOM     16  C   UNL     1      -0.718   1.572   1.248  0.00  0.00    -0.030 A 
ATOM     17  C   UNL     1      -0.358   2.780   1.817  0.00  0.00    +0.007 A 
ATOM     18  C   UNL     1      -1.007   3.231   2.950  0.00  0.00    +0.023 A 
BRANCH  13  20
ATOM     19  C   UNL     1      -3.729   2.106   5.277  0.00  0.00    +0.129 C 
ATOM     20  N   UNL     1      -2.667   2.915   4.673  0.00  0.00    -0.336 N 
ATOM     21  C   UNL     1      -2.292   4.197   5.275  0.00  0.00    +0.129 C 
ENDBRANCH  13  20
ENDBRANCH  12  16
ENDBRANCH   8  12
ENDBRANCH   1   9
BRANCH   1  22
ATOM     22  N   UNL     1      -0.311   1.285  -4.835  0.00  0.00    -0.174 NA
ATOM     23  H   UNL     1       0.110   0.411  -4.843  0.00  0.00    +0.149 HD
BRANCH  22  24
ATOM     24  S   UNL     1      -0.255   2.243  -6.185  0.00  0.00    +0.059 S 
ATOM     25  O   UNL     1       0.491   1.527  -7.160  0.00  0.00    -0.153 OA
ATOM     26  O   UNL     1      -1.583   2.692  -6.420  0.00  0.00    -0.153 OA
BRANCH  24  27
ATOM     27  C   UNL     1       0.693   3.669  -5.772  0.00  0.00    +0.106 A 
ATOM     28  C   UNL     1       0.066   4.790  -5.260  0.00  0.00    +0.030 A 
ATOM     29  C   UNL     1       0.806   5.909  -4.932  0.00  0.00    +0.025 A 
ATOM     30  C   UNL     1       2.182   5.910  -5.126  0.00  0.00    +0.037 A 
ATOM     31  C   UNL     1       2.808   4.785  -5.645  0.00  0.00    -0.024 A 
ATOM     32  C   UNL     1       2.062   3.668  -5.967  0.00  0.00    +0.034 A 
ATOM     33  C   UNL     1       4.300   4.786  -5.854  0.00  0.00    +0.046 C 
ATOM     34  C   UNL     1       4.759   6.189  -6.250  0.00  0.00    +0.101 C 
ATOM     35  C   UNL     1       4.172   7.206  -5.308  0.00  0.00    +0.218 C 
ATOM     36  O   UNL     1       4.819   8.185  -5.003  0.00  0.00    -0.275 OA
ATOM     37  N   UNL     1       2.937   7.041  -4.800  0.00  0.00    -0.285 N 
ATOM     38  H   UNL     1       2.568   7.711  -4.204  0.00  0.00    +0.155 HD
ENDBRANCH  24  27
ENDBRANCH  22  24
ENDBRANCH   1  22
TORSDOF 8
