REMARK  Name = ZINC65445969
REMARK  8 active torsions:
REMARK  status: ('A' for Active; 'I' for Inactive)
REMARK    1  A    between atoms: C_1  and  C_2
REMARK    2  A    between atoms: C_5  and  C_9
REMARK    3  A    between atoms: C_6  and  C_8
REMARK    4  A    between atoms: C_9  and  C_10
REMARK    5  A    between atoms: C_10  and  N_11
REMARK    6  A    between atoms: N_14  and  N_15
REMARK    7  A    between atoms: N_18  and  C_19
REMARK    8  A    between atoms: C_24  and  C_25
REMARK                            x       y       z     vdW  Elec       q    Type
REMARK                         _______ _______ _______ _____ _____    ______ ____
ROOT
ATOM      1  N   UNL     1      -1.356  -6.269   0.059  0.00  0.00    -0.298 N 
ATOM      2  C   UNL     1      -2.509  -6.959   0.167  0.00  0.00    +0.316 C 
ATOM      3  O   UNL     1      -3.566  -6.365   0.259  0.00  0.00    -0.251 OA
ATOM      4  N   UNL     1      -2.490  -8.306   0.172  0.00  0.00    -0.217 N 
ATOM      5  H   UNL     1      -0.513  -6.743  -0.015  0.00  0.00    +0.150 HD
ATOM      6  H   UNL     1      -3.320  -8.803   0.250  0.00  0.00    +0.174 HD
ENDROOT
BRANCH   4   7
ATOM      7  N   UNL     1      -1.272  -8.990   0.065  0.00  0.00    -0.217 N 
ATOM      8  C   UNL     1      -1.253 -10.338   0.071  0.00  0.00    +0.320 C 
ATOM      9  O   UNL     1      -0.196 -10.931  -0.022  0.00  0.00    -0.251 OA
ATOM     10  N   UNL     1      -2.406 -11.028   0.179  0.00  0.00    -0.268 N 
ATOM     11  H   UNL     1      -0.443  -8.494  -0.012  0.00  0.00    +0.174 HD
ATOM     12  H   UNL     1      -3.240 -10.557   0.335  0.00  0.00    +0.156 HD
BRANCH  10  13
ATOM     13  C   UNL     1      -2.400 -12.423   0.066  0.00  0.00    +0.038 A 
ATOM     14  C   UNL     1      -1.388 -13.059  -0.639  0.00  0.00    +0.023 A 
ATOM     15  C   UNL     1      -1.385 -14.436  -0.749  0.00  0.00    +0.002 A 
ATOM     16  C   UNL     1      -2.389 -15.180  -0.157  0.00  0.00    +0.000 A 
ATOM     17  C   UNL     1      -3.399 -14.549   0.546  0.00  0.00    +0.005 A 
ATOM     18  C   UNL     1      -3.404 -13.173   0.665  0.00  0.00    -0.029 A 
ATOM     19  C   UNL     1      -4.501 -12.487   1.437  0.00  0.00    +0.045 C 
ENDBRANCH  10  13
ENDBRANCH   4   7
BRANCH   1  20
ATOM     20  C   UNL     1      -1.377  -4.804   0.053  0.00  0.00    +0.110 C 
BRANCH  20  21
ATOM     21  C   UNL     1       0.052  -4.275  -0.080  0.00  0.00    +0.054 C 
BRANCH  21  26
ATOM     22  C   UNL     1      -0.032   1.503  -0.103  0.00  0.00    +0.044 C 
ATOM     23  C   UNL     1      -0.010  -0.004  -0.097  0.00  0.00    -0.050 A 
ATOM     24  C   UNL     1      -0.003  -0.700  -1.292  0.00  0.00    +0.003 A 
ATOM     25  C   UNL     1       0.018  -2.082  -1.286  0.00  0.00    +0.004 A 
ATOM     26  C   UNL     1       0.031  -2.768  -0.086  0.00  0.00    -0.043 A 
ATOM     27  C   UNL     1       0.025  -2.072   1.108  0.00  0.00    -0.047 A 
ATOM     28  C   UNL     1       0.009  -0.690   1.103  0.00  0.00    +0.007 A 
ATOM     29  C   UNL     1       0.039  -2.820   2.417  0.00  0.00    +0.044 C 
ENDBRANCH  21  26
ENDBRANCH  20  21
ENDBRANCH   1  20
TORSDOF 5
