REMARK  Name = ZINC43686833
REMARK  5 active torsions:
REMARK  status: ('A' for Active; 'I' for Inactive)
REMARK    1  A    between atoms: C_5  and  O_9
REMARK    2  A    between atoms: C_6  and  C_7
REMARK    3  A    between atoms: C_7  and  N_8
REMARK    4  A    between atoms: O_9  and  C_10
REMARK    5  A    between atoms: C_10  and  C_11
REMARK                            x       y       z     vdW  Elec       q    Type
REMARK                         _______ _______ _______ _____ _____    ______ ____
ROOT
ATOM      1  C   UNL     1      -0.560   1.440   0.094  0.00  0.00    +0.025 A 
ATOM      2  C   UNL     1       0.430   2.387  -0.105  0.00  0.00    +0.043 A 
ATOM      3  C   UNL     1       1.760   2.006  -0.126  0.00  0.00    +0.043 A 
ATOM      4  C   UNL     1       2.102   0.678   0.053  0.00  0.00    +0.084 A 
ATOM      5  C   UNL     1       1.111  -0.272   0.253  0.00  0.00    +0.141 A 
ATOM      6  C   UNL     1      -0.222   0.113   0.273  0.00  0.00    -0.020 A 
ATOM      7 CL   UNL     1       3.771   0.201   0.027  0.00  0.00    -0.080 Cl
ATOM      8 CL   UNL     1       0.002   4.054  -0.330  0.00  0.00    -0.083 Cl
ENDROOT
BRANCH   6   9
ATOM      9  C   UNL     1      -1.301  -0.917   0.491  0.00  0.00    -0.047 C 
BRANCH   9  10
ATOM     10  N   UNL     1      -1.360  -1.270   1.915  0.00  0.00    +0.381 N 
ATOM     11  H   UNL     1      -1.484  -0.433   2.465  0.00  0.00    -0.090 HD
ATOM     12  H   UNL     1      -2.136  -1.895   2.075  0.00  0.00    -0.090 HD
ATOM     13  H   UNL     1      -0.501  -1.725   2.185  0.00  0.00    -0.090 HD
ENDBRANCH   9  10
ENDBRANCH   6   9
BRANCH   5  14
ATOM     14  O   UNL     1       1.445  -1.578   0.429  0.00  0.00    -0.485 OA
BRANCH  14  15
ATOM     15  C   UNL     1       1.607  -2.370  -0.749  0.00  0.00    +0.271 C 
BRANCH  15  16
ATOM     16  C   UNL     1       2.000  -3.772  -0.362  0.00  0.00    +0.028 A 
ATOM     17  C   UNL     1       1.206  -4.840  -0.105  0.00  0.00    +0.029 A 
ATOM     18  C   UNL     1       1.792  -6.045   0.237  0.00  0.00    +0.025 A 
ATOM     19  C   UNL     1       3.144  -6.122   0.305  0.00  0.00    +0.060 A 
ATOM     20  S   UNL     1       3.631  -4.460  -0.129  0.00  0.00    -0.097 S 
ATOM     21 BR   UNL     1       0.725  -7.562   0.605  0.00  0.00    -0.050 Br
ENDBRANCH  15  16
ENDBRANCH  14  15
ENDBRANCH   5  14
TORSDOF 5
