REMARK  Name = ZINC05583375
REMARK  3 active torsions:
REMARK  status: ('A' for Active; 'I' for Inactive)
REMARK    1  A    between atoms: C_5  and  C_7
REMARK    2  A    between atoms: N_8  and  N_9
REMARK    3  A    between atoms: C_10  and  C_11
REMARK                            x       y       z     vdW  Elec       q    Type
REMARK                         _______ _______ _______ _____ _____    ______ ____
ROOT
ATOM      1  N   UNL     1       2.897   5.721   0.053  0.00  0.00    -0.221 N 
ATOM      2  C   UNL     1       3.312   7.036   0.043  0.00  0.00    +0.139 C 
ATOM      3  H   UNL     1       3.552   5.006   0.074  0.00  0.00    +0.176 HD
ATOM      4  H   UNL     1       2.625   8.950  -0.067  0.00  0.00    +0.157 HD
ATOM      5  N   UNL     1       2.369   7.966   0.019  0.00  0.00    -0.384 N 
ATOM      6  H   UNL     1       1.381   7.696   0.088  0.00  0.00    +0.157 HD
ENDROOT
BRANCH   2   7
ATOM      7  C   UNL     1       4.758   7.356   0.064  0.00  0.00    +0.144 A 
ATOM      8  C   UNL     1       5.402   7.612   1.294  0.00  0.00    +0.167 A 
ATOM      9  N   UNL     1       6.690   7.899   1.326  0.00  0.00    -0.115 N 
ATOM     10  C   UNL     1       7.389   7.947   0.185  0.00  0.00    +0.112 A 
ATOM     11  C   UNL     1       8.762   8.250   0.192  0.00  0.00    +0.031 A 
ATOM     12  C   UNL     1       9.450   8.292  -0.982  0.00  0.00    +0.002 A 
ATOM     13  C   UNL     1       8.814   8.039  -2.196  0.00  0.00    +0.002 A 
ATOM     14  C   UNL     1       7.487   7.742  -2.243  0.00  0.00    +0.030 A 
ATOM     15  C   UNL     1       6.741   7.689  -1.050  0.00  0.00    +0.092 A 
ATOM     16  N   UNL     1       5.438   7.395  -1.068  0.00  0.00    -0.239 NA
ATOM     17  O   UNL     1       7.331   8.155   2.563  0.00  0.00    -0.162 OA
ATOM     18  N   UNL     1       4.677   7.562   2.476  0.00  0.00    -0.340 N 
ATOM     19  H   UNL     1       3.752   7.269   2.466  0.00  0.00    +0.144 HD
ATOM     20  H   UNL     1       5.094   7.821   3.312  0.00  0.00    +0.144 HD
ENDBRANCH   2   7
BRANCH   1  22
ATOM     21  C   UNL     1       1.139   4.181   0.043  0.00  0.00    +0.139 C 
ATOM     22  N   UNL     1       1.530   5.418   0.033  0.00  0.00    -0.189 NA
BRANCH  21  27
ATOM     23  C   UNL     1      -2.073   2.240   0.012  0.00  0.00    +0.001 A 
ATOM     24  C   UNL     1      -3.005   3.262  -0.023  0.00  0.00    +0.001 A 
ATOM     25  C   UNL     1      -2.593   4.583  -0.028  0.00  0.00    +0.020 A 
ATOM     26  C   UNL     1      -1.247   4.890  -0.009  0.00  0.00    +0.050 A 
ATOM     27  C   UNL     1      -0.300   3.862   0.021  0.00  0.00    +0.013 A 
ATOM     28  C   UNL     1      -0.725   2.531   0.032  0.00  0.00    +0.011 A 
ATOM     29 CL   UNL     1      -0.732   6.548  -0.023  0.00  0.00    -0.083 Cl
ENDBRANCH  21  27
ENDBRANCH   1  22
TORSDOF 3
