REMARK  Name = ZINC63720217
REMARK  5 active torsions:
REMARK  status: ('A' for Active; 'I' for Inactive)
REMARK    1  A    between atoms: C_1  and  C_2
REMARK    2  A    between atoms: C_5  and  N_9
REMARK    3  A    between atoms: C_6  and  C_8
REMARK    4  A    between atoms: C_10  and  S_33
REMARK    5  A    between atoms: C_14  and  C_17
REMARK                            x       y       z     vdW  Elec       q    Type
REMARK                         _______ _______ _______ _____ _____    ______ ____
ROOT
ATOM      1  N   UNL     1       0.226  -4.051  -0.007  0.00  0.00    -0.242 N 
ATOM      2  C   UNL     1      -1.105  -4.614   0.161  0.00  0.00    +0.225 C 
ATOM      3  N   UNL     1      -1.172  -6.002  -0.267  0.00  0.00    -0.288 N 
ATOM      4  C   UNL     1      -0.097  -6.790  -0.378  0.00  0.00    +0.229 C 
ATOM      5  C   UNL     1       1.289  -6.297  -0.081  0.00  0.00    +0.180 C 
ATOM      6  C   UNL     1       1.330  -4.796  -0.117  0.00  0.00    +0.235 C 
ATOM      7  O   UNL     1       2.401  -4.242  -0.245  0.00  0.00    -0.274 OA
ATOM      8  O   UNL     1      -0.247  -7.941  -0.729  0.00  0.00    -0.275 OA
ATOM      9  H   UNL     1      -2.041  -6.376  -0.484  0.00  0.00    +0.151 HD
ENDROOT
BRANCH   5  10
ATOM     10  C   UNL     1       1.714  -6.786   1.305  0.00  0.00    +0.101 C 
ATOM     11  C   UNL     1       1.989  -8.291   1.258  0.00  0.00    +0.124 C 
ATOM     12  C   UNL     1       3.210  -8.474   0.363  0.00  0.00    -0.036 C 
ATOM     13  C   UNL     1       2.861  -9.345  -0.573  0.00  0.00    -0.001 A 
ATOM     14  C   UNL     1       3.627  -9.977  -1.659  0.00  0.00    +0.010 A 
ATOM     15  C   UNL     1       2.937 -10.830  -2.462  0.00  0.00    +0.001 A 
ATOM     16  C   UNL     1       1.577 -11.114  -2.295  0.00  0.00    +0.002 A 
ATOM     17  C   UNL     1       0.797 -10.582  -1.320  0.00  0.00    +0.026 A 
ATOM     18  C   UNL     1       1.412  -9.674  -0.410  0.00  0.00    +0.043 A 
ATOM     19  N   UNL     1       0.903  -9.042   0.630  0.00  0.00    -0.376 N 
ATOM     20  C   UNL     1       4.470  -7.670   0.570  0.00  0.00    +0.048 C 
ATOM     21  C   UNL     1       4.025  -6.204   0.721  0.00  0.00    +0.085 C 
ATOM     22  N   UNL     1       2.951  -6.102   1.715  0.00  0.00    -0.310 NA
ATOM     23  H   UNL     1       2.769  -5.139   1.954  0.00  0.00    +0.122 HD
ATOM     24  H   UNL     1      -0.019  -9.062   0.929  0.00  0.00    +0.160 HD
ENDBRANCH   5  10
BRANCH   1  29
ATOM     25  C   UNL     1       0.755   1.593  -0.230  0.00  0.00    +0.044 C 
ATOM     26  C   UNL     1       0.614   0.093  -0.171  0.00  0.00    -0.050 A 
ATOM     27  C   UNL     1       0.784  -0.569   1.032  0.00  0.00    +0.005 A 
ATOM     28  C   UNL     1       0.656  -1.942   1.089  0.00  0.00    +0.024 A 
ATOM     29  C   UNL     1       0.355  -2.659  -0.062  0.00  0.00    +0.042 A 
ATOM     30  C   UNL     1       0.185  -1.992  -1.267  0.00  0.00    -0.029 A 
ATOM     31  C   UNL     1       0.310  -0.617  -1.317  0.00  0.00    +0.008 A 
ATOM     32  C   UNL     1      -0.141  -2.765  -2.518  0.00  0.00    +0.045 C 
ENDBRANCH   1  29
BRANCH   2  33
ATOM     33  S   UNL     1      -1.568  -4.518   1.913  0.00  0.00    -0.136 S 
ATOM     34  H   UNL     1      -2.799  -5.058   1.954  0.00  0.00    +0.105 HD
ENDBRANCH   2  33
TORSDOF 3
