REMARK  Name = ZINC06193150
REMARK  13 active torsions:
REMARK  status: ('A' for Active; 'I' for Inactive)
REMARK    1  A    between atoms: C_1  and  C_2
REMARK    2  A    between atoms: C_2  and  N_66
REMARK    3  A    between atoms: C_3  and  C_4
REMARK    4  A    between atoms: C_3  and  N_66
REMARK    5  A    between atoms: C_5  and  C_6
REMARK    6  A    between atoms: C_5  and  N_66
REMARK    7  A    between atoms: C_6  and  C_7
REMARK    8  A    between atoms: C_7  and  N_8
REMARK    9  A    between atoms: N_8  and  C_9
REMARK   10  A    between atoms: C_9  and  N_11
REMARK   11  A    between atoms: N_11  and  C_12
REMARK   12  A    between atoms: N_11  and  C_28
REMARK   13  A    between atoms: C_12  and  C_13
REMARK                            x       y       z     vdW  Elec       q    Type
REMARK                         _______ _______ _______ _____ _____    ______ ____
ROOT
ATOM      1  N   UNL     1      -1.154   2.535   0.373  0.00  0.00    -0.305 N 
ENDROOT
BRANCH   1   2
ATOM      2  C   UNL     1      -1.407   3.898   0.846  0.00  0.00    +0.075 C 
ATOM      3  C   UNL     1      -0.905   4.920  -0.196  0.00  0.00    +0.022 C 
ATOM      4  C   UNL     1      -0.332   6.080   0.656  0.00  0.00    +0.002 C 
ATOM      5  C   UNL     1       0.339   5.337   1.837  0.00  0.00    +0.002 C 
ATOM      6  C   UNL     1      -0.616   4.163   2.138  0.00  0.00    +0.022 C 
ENDBRANCH   1   2
BRANCH   1   7
ATOM      7  C   UNL     1       0.091   2.167   0.012  0.00  0.00    +0.133 C 
ATOM      8  S   UNL     1       1.401   3.248   0.232  0.00  0.00    -0.019 S 
BRANCH   7   9
ATOM      9  N   UNL     1       0.306   0.946  -0.517  0.00  0.00    -0.326 N 
ATOM     10  H   UNL     1      -0.422   0.308  -0.576  0.00  0.00    +0.148 HD
BRANCH   9  11
ATOM     11  C   UNL     1       1.640   0.583  -1.002  0.00  0.00    +0.101 C 
BRANCH  11  12
ATOM     12  C   UNL     1       1.612  -0.846  -1.549  0.00  0.00    +0.000 C 
BRANCH  12  13
ATOM     13  C   UNL     1       3.005  -1.225  -2.056  0.00  0.00    -0.077 C 
BRANCH  13  14
ATOM     14  N   UNL     1       2.967  -2.614  -2.560  0.00  0.00    +0.379 N 
ATOM     15  H   UNL     1       2.557  -3.220  -1.840  0.00  0.00    -0.082 HD
BRANCH  14  17
ATOM     16  C   UNL     1       2.750  -1.847  -4.900  0.00  0.00    -0.017 C 
ATOM     17  C   UNL     1       2.134  -2.686  -3.779  0.00  0.00    -0.082 C 
ENDBRANCH  14  17
BRANCH  14  18
ATOM     18  C   UNL     1       4.338  -3.082  -2.857  0.00  0.00    -0.082 C 
ATOM     19  C   UNL     1       4.311  -4.601  -3.036  0.00  0.00    -0.017 C 
ENDBRANCH  14  18
ENDBRANCH  13  14
ENDBRANCH  12  13
ENDBRANCH  11  12
ENDBRANCH   9  11
ENDBRANCH   7   9
ENDBRANCH   1   7
BRANCH   1  20
ATOM     20  C   UNL     1      -2.255   1.571   0.294  0.00  0.00    +0.147 C 
BRANCH  20  21
ATOM     21  C   UNL     1      -2.471   0.943   1.646  0.00  0.00    +0.035 A 
ATOM     22  C   UNL     1      -3.394   1.465   2.494  0.00  0.00    +0.020 A 
ATOM     23  C   UNL     1      -3.584   0.829   3.797  0.00  0.00    +0.003 A 
ATOM     24  C   UNL     1      -4.525   1.322   4.711  0.00  0.00    +0.059 A 
ATOM     25  C   UNL     1      -4.680   0.704   5.932  0.00  0.00    +0.167 A 
ATOM     26  C   UNL     1      -3.902  -0.413   6.261  0.00  0.00    +0.168 A 
ATOM     27  C   UNL     1      -2.969  -0.905   5.366  0.00  0.00    +0.075 A 
ATOM     28  C   UNL     1      -2.801  -0.293   4.131  0.00  0.00    +0.053 A 
ATOM     29  N   UNL     1      -1.875  -0.770   3.225  0.00  0.00    -0.322 N 
ATOM     30  H   UNL     1      -1.318  -1.566   3.463  0.00  0.00    +0.169 HD
ATOM     31  C   UNL     1      -1.711  -0.181   2.028  0.00  0.00    +0.254 A 
ATOM     32  O   UNL     1      -0.883  -0.630   1.254  0.00  0.00    -0.268 OA
ATOM     33  O   UNL     1      -4.250  -0.829   7.513  0.00  0.00    -0.453 OA
ATOM     34  C   UNL     1      -5.526  -0.218   7.782  0.00  0.00    +0.466 C 
ATOM     35  O   UNL     1      -5.510   0.979   6.981  0.00  0.00    -0.453 OA
ENDBRANCH  20  21
ENDBRANCH   1  20
TORSDOF 11
