REMARK  Name = ZINC36597711
REMARK  18 active torsions:
REMARK  status: ('A' for Active; 'I' for Inactive)
REMARK    1  A    between atoms: C_1  and  C_2
REMARK    2  A    between atoms: C_5  and  C_7
REMARK    3  A    between atoms: C_7  and  N_8
REMARK    4  A    between atoms: N_8  and  C_9
REMARK    5  A    between atoms: C_9  and  C_11
REMARK    6  A    between atoms: C_9  and  C_18
REMARK    7  A    between atoms: C_16  and  O_17
REMARK    8  A    between atoms: N_20  and  C_21
REMARK    9  A    between atoms: C_21  and  C_22
REMARK   10  A    between atoms: C_21  and  C_23
REMARK   11  A    between atoms: C_21  and  C_24
REMARK   12  A    between atoms: C_24  and  C_25
REMARK   13  A    between atoms: C_25  and  C_26
REMARK   14  A    between atoms: C_25  and  C_27
REMARK   15  A    between atoms: C_25  and  C_28
REMARK   16  A    between atoms: C_29  and  C_31
REMARK   17  A    between atoms: C_35  and  O_38
REMARK   18  A    between atoms: C_36  and  O_37
REMARK                            x       y       z     vdW  Elec       q    Type
REMARK                         _______ _______ _______ _____ _____    ______ ____
ROOT
ATOM      1  C   UNL     1       2.309  -2.083  -1.851  0.00  0.00    +0.196 C 
ENDROOT
BRANCH   1   2
ATOM      2  C   UNL     1       2.674  -1.762  -0.424  0.00  0.00    +0.023 A 
ATOM      3  C   UNL     1       2.685  -0.451   0.009  0.00  0.00    +0.009 A 
ATOM      4  C   UNL     1       3.020  -0.156   1.318  0.00  0.00    +0.001 A 
ATOM      5  C   UNL     1       3.345  -1.173   2.196  0.00  0.00    +0.004 A 
ATOM      6  C   UNL     1       3.335  -2.487   1.768  0.00  0.00    +0.046 A 
ATOM      7  C   UNL     1       2.994  -2.785   0.457  0.00  0.00    +0.122 A 
BRANCH   7   8
ATOM      8  O   UNL     1       2.978  -4.077   0.035  0.00  0.00    -0.506 OA
ATOM      9  H   UNL     1       3.841  -4.409  -0.248  0.00  0.00    +0.292 HD
ENDBRANCH   7   8
ENDBRANCH   1   2
BRANCH   1  10
ATOM     10  C   UNL     1       2.130  -0.801  -2.623  0.00  0.00    +0.239 C 
ATOM     11  O   UNL     1       1.022  -0.451  -2.969  0.00  0.00    -0.273 OA
ATOM     12  N   UNL     1       3.202  -0.044  -2.930  0.00  0.00    -0.308 N 
ATOM     13  H   UNL     1       4.094  -0.355  -2.710  0.00  0.00    +0.149 HD
BRANCH  12  14
ATOM     14  C   UNL     1       3.020   1.248  -3.595  0.00  0.00    +0.030 C 
ATOM     15  C   UNL     1       2.329   1.035  -4.943  0.00  0.00    +0.031 C 
ATOM     16  C   UNL     1       2.157   2.157  -2.717  0.00  0.00    +0.031 C 
BRANCH  14  17
ATOM     17  C   UNL     1       4.384   1.903  -3.820  0.00  0.00    +0.031 C 
BRANCH  17  18
ATOM     18  C   UNL     1       5.283   1.638  -2.610  0.00  0.00    -0.036 C 
ATOM     19  C   UNL     1       6.023   0.313  -2.805  0.00  0.00    +0.010 C 
ATOM     20  C   UNL     1       6.298   2.773  -2.470  0.00  0.00    +0.010 C 
ATOM     21  C   UNL     1       4.426   1.561  -1.345  0.00  0.00    +0.010 C 
ENDBRANCH  17  18
ENDBRANCH  14  17
ENDBRANCH  12  14
ENDBRANCH   1  10
BRANCH   1  22
ATOM     22  N   UNL     1       1.059  -2.846  -1.875  0.00  0.00    -0.274 N 
ATOM     23  C   UNL     1       1.039  -4.091  -2.392  0.00  0.00    +0.252 C 
ATOM     24  O   UNL     1       2.068  -4.598  -2.794  0.00  0.00    -0.270 OA
BRANCH  23  25
ATOM     25  C   UNL     1      -0.231  -4.837  -2.469  0.00  0.00    +0.082 A 
ATOM     26  C   UNL     1      -1.161  -4.751  -1.429  0.00  0.00    +0.017 A 
ATOM     27  C   UNL     1      -2.346  -5.449  -1.506  0.00  0.00    +0.005 A 
ATOM     28  C   UNL     1      -2.624  -6.239  -2.610  0.00  0.00    +0.049 A 
ATOM     29  C   UNL     1      -1.712  -6.335  -3.647  0.00  0.00    +0.159 A 
ATOM     30  C   UNL     1      -0.513  -5.631  -3.587  0.00  0.00    +0.171 A 
BRANCH  30  31
ATOM     31  O   UNL     1       0.380  -5.718  -4.605  0.00  0.00    -0.503 OA
ATOM     32  H   UNL     1       1.022  -6.435  -4.506  0.00  0.00    +0.292 HD
ENDBRANCH  30  31
BRANCH  29  33
ATOM     33  O   UNL     1      -1.991  -7.113  -4.727  0.00  0.00    -0.503 OA
ATOM     34  H   UNL     1      -2.453  -6.648  -5.438  0.00  0.00    +0.292 HD
ENDBRANCH  29  33
ENDBRANCH  23  25
BRANCH  22  35
ATOM     35  C   UNL     1      -0.170  -2.256  -1.338  0.00  0.00    +0.183 C 
BRANCH  35  40
ATOM     36  C   UNL     1      -0.378  -3.612   3.516  0.00  0.00    +0.086 C 
ATOM     37  C   UNL     1      -0.172  -2.781   2.276  0.00  0.00    +0.102 A 
ATOM     38  C   UNL     1       0.232  -1.499   2.246  0.00  0.00    +0.045 A 
ATOM     39  C   UNL     1       0.290  -1.119   0.886  0.00  0.00    +0.046 A 
ATOM     40  C   UNL     1      -0.081  -2.192   0.165  0.00  0.00    +0.122 A 
ATOM     41  O   UNL     1      -0.354  -3.198   1.012  0.00  0.00    -0.463 OA
ENDBRANCH  35  40
ENDBRANCH  22  35
ENDBRANCH   1  22
TORSDOF 12
