REMARK  Name = ZINC67122351
REMARK  11 active torsions:
REMARK  status: ('A' for Active; 'I' for Inactive)
REMARK    1  A    between atoms: C_1  and  C_2
REMARK    2  A    between atoms: N_5  and  C_8
REMARK    3  A    between atoms: C_8  and  C_9
REMARK    4  A    between atoms: C_9  and  C_11
REMARK    5  A    between atoms: C_9  and  O_24
REMARK    6  A    between atoms: C_11  and  N_12
REMARK    7  A    between atoms: N_12  and  C_13
REMARK    8  A    between atoms: C_13  and  C_14
REMARK    9  A    between atoms: C_17  and  C_19
REMARK   10  A    between atoms: C_19  and  S_20
REMARK   11  A    between atoms: S_20  and  C_21
REMARK                            x       y       z     vdW  Elec       q    Type
REMARK                         _______ _______ _______ _____ _____    ______ ____
ROOT
ATOM      1  N   UNL     1       0.527  -6.332   4.082  0.00  0.00    +0.385 N 
ATOM      2  H   UNL     1       1.458  -5.950   4.163  0.00  0.00    -0.085 HD
ATOM      3  H   UNL     1      -0.042  -5.994   4.843  0.00  0.00    -0.085 HD
ENDROOT
BRANCH   1   4
ATOM      4  C   UNL     1      -0.065  -5.914   2.804  0.00  0.00    -0.052 C 
BRANCH   4   5
ATOM      5  C   UNL     1      -0.134  -4.387   2.750  0.00  0.00    +0.081 C 
BRANCH   5   6
ATOM      6  O   UNL     1      -0.941  -3.908   3.828  0.00  0.00    -0.395 OA
ATOM      7  H   UNL     1      -1.850  -4.235   3.814  0.00  0.00    +0.210 HD
ENDBRANCH   5   6
BRANCH   5   8
ATOM      8  C   UNL     1      -0.750  -3.952   1.419  0.00  0.00    -0.049 C 
BRANCH   8  13
ATOM      9  C   UNL     1      -0.019   1.526   0.010  0.00  0.00    +0.007 C 
ATOM     10  C   UNL     1       0.002  -0.004   0.002  0.00  0.00    -0.018 C 
ATOM     11  C   UNL     1      -1.434  -0.536   0.023  0.00  0.00    -0.016 C 
ATOM     12  C   UNL     1      -1.405  -2.064   0.095  0.00  0.00    -0.078 C 
ATOM     13  N   UNL     1      -0.707  -2.487   1.315  0.00  0.00    +0.381 N 
ATOM     14  C   UNL     1       0.691  -2.042   1.269  0.00  0.00    -0.078 C 
ATOM     15  C   UNL     1       0.743  -0.513   1.242  0.00  0.00    -0.016 C 
ATOM     16  H   UNL     1      -1.162  -2.082   2.119  0.00  0.00    -0.082 HD
ENDBRANCH   8  13
ENDBRANCH   5   8
ENDBRANCH   4   5
ENDBRANCH   1   4
BRANCH   1  17
ATOM     17  C   UNL     1       0.594  -7.799   4.135  0.00  0.00    -0.007 C 
BRANCH  17  18
ATOM     18  C   UNL     1       1.201  -8.227   5.446  0.00  0.00    +0.088 A 
ATOM     19  C   UNL     1       0.524  -8.485   6.580  0.00  0.00    +0.043 A 
ATOM     20  C   UNL     1       1.481  -8.851   7.554  0.00  0.00    +0.046 A 
ATOM     21  C   UNL     1       2.685  -8.795   6.958  0.00  0.00    +0.115 A 
ATOM     22  O   UNL     1       2.509  -8.422   5.679  0.00  0.00    -0.466 OA
BRANCH  21  23
ATOM     23  C   UNL     1       4.008  -9.104   7.611  0.00  0.00    +0.148 C 
BRANCH  23  24
ATOM     24  S   UNL     1       4.385 -10.866   7.410  0.00  0.00    -0.084 S 
BRANCH  24  25
ATOM     25  C   UNL     1       5.985 -11.070   8.240  0.00  0.00    +0.400 C 
ATOM     26  F   UNL     1       6.938 -10.254   7.623  0.00  0.00    -0.197 F 
ATOM     27  F   UNL     1       5.862 -10.708   9.586  0.00  0.00    -0.197 F 
ENDBRANCH  24  25
ENDBRANCH  23  24
ENDBRANCH  21  23
ENDBRANCH  17  18
ENDBRANCH   1  17
TORSDOF 10
