REMARK  Name = ZINC02870731
REMARK  7 active torsions:
REMARK  status: ('A' for Active; 'I' for Inactive)
REMARK    1  A    between atoms: C_5  and  N_7
REMARK    2  A    between atoms: N_7  and  S_8
REMARK    3  A    between atoms: S_8  and  C_11
REMARK    4  A    between atoms: C_14  and  N_17
REMARK    5  A    between atoms: N_17  and  S_18
REMARK    6  A    between atoms: S_18  and  C_21
REMARK    7  A    between atoms: C_24  and  N_27
REMARK                            x       y       z     vdW  Elec       q    Type
REMARK                         _______ _______ _______ _____ _____    ______ ____
ROOT
ATOM      1  C   UNL     1       4.014   3.495  -0.440  0.00  0.00    +0.109 A 
ATOM      2  C   UNL     1       2.850   3.783  -1.130  0.00  0.00    +0.030 A 
ATOM      3  C   UNL     1       1.757   2.946  -1.023  0.00  0.00    +0.026 A 
ATOM      4  C   UNL     1       1.827   1.814  -0.221  0.00  0.00    +0.048 A 
ATOM      5  C   UNL     1       2.995   1.531   0.475  0.00  0.00    +0.026 A 
ATOM      6  C   UNL     1       4.086   2.369   0.360  0.00  0.00    +0.030 A 
ENDROOT
BRANCH   1   7
ATOM      7  S   UNL     1       5.407   4.565  -0.580  0.00  0.00    +0.072 S 
ATOM      8  O   UNL     1       6.552   3.784  -0.267  0.00  0.00    -0.150 OA
ATOM      9  O   UNL     1       5.268   5.253  -1.816  0.00  0.00    -0.150 OA
BRANCH   7  10
ATOM     10  N   UNL     1       5.270   5.705   0.614  0.00  0.00    -0.215 N 
ATOM     11  H   UNL     1       5.213   6.645   0.382  0.00  0.00    +0.174 HD
BRANCH  10  16
ATOM     12  C   UNL     1       5.894   3.791   3.689  0.00  0.00    +0.002 A 
ATOM     13  C   UNL     1       5.176   4.533   4.610  0.00  0.00    +0.002 A 
ATOM     14  C   UNL     1       4.490   5.664   4.207  0.00  0.00    +0.022 A 
ATOM     15  C   UNL     1       4.519   6.056   2.882  0.00  0.00    +0.063 A 
ATOM     16  C   UNL     1       5.239   5.312   1.954  0.00  0.00    +0.066 A 
ATOM     17  C   UNL     1       5.922   4.174   2.363  0.00  0.00    +0.026 A 
ATOM     18 CL   UNL     1       3.656   7.475   2.376  0.00  0.00    -0.082 Cl
ENDBRANCH  10  16
ENDBRANCH   7  10
ENDBRANCH   1   7
BRANCH   4  19
ATOM     19  N   UNL     1       0.722   0.966  -0.110  0.00  0.00    -0.216 N 
ATOM     20  H   UNL     1      -0.163   1.338   0.027  0.00  0.00    +0.174 HD
BRANCH  19  21
ATOM     21  S   UNL     1       0.924  -0.674  -0.219  0.00  0.00    +0.072 S 
ATOM     22  O   UNL     1       1.968  -1.016   0.682  0.00  0.00    -0.150 OA
ATOM     23  O   UNL     1      -0.373  -1.249  -0.136  0.00  0.00    -0.150 OA
BRANCH  21  24
ATOM     24  C   UNL     1       1.525  -1.019  -1.839  0.00  0.00    +0.109 A 
ATOM     25  C   UNL     1       0.637  -1.159  -2.890  0.00  0.00    +0.031 A 
ATOM     26  C   UNL     1       1.109  -1.425  -4.162  0.00  0.00    +0.034 A 
ATOM     27  C   UNL     1       2.467  -1.560  -4.381  0.00  0.00    +0.126 A 
ATOM     28  C   UNL     1       3.354  -1.425  -3.329  0.00  0.00    +0.034 A 
ATOM     29  C   UNL     1       2.883  -1.154  -2.058  0.00  0.00    +0.031 A 
BRANCH  27  30
ATOM     30  N   UNL     1       2.972  -1.849  -5.742  0.00  0.00    +0.056 N 
ATOM     31  O   UNL     1       4.168  -1.968  -5.936  0.00  0.00    -0.126 OA
ATOM     32  O   UNL     1       2.190  -1.969  -6.669  0.00  0.00    -0.126 OA
ENDBRANCH  27  30
ENDBRANCH  21  24
ENDBRANCH  19  21
ENDBRANCH   4  19
TORSDOF 7
