REMARK  Name = ZINC64230963
REMARK  9 active torsions:
REMARK  status: ('A' for Active; 'I' for Inactive)
REMARK    1  A    between atoms: C_1  and  C_2
REMARK    2  A    between atoms: C_2  and  N_3
REMARK    3  A    between atoms: N_3  and  C_4
REMARK    4  A    between atoms: N_3  and  S_6
REMARK    5  A    between atoms: C_4  and  C_5
REMARK    6  A    between atoms: S_6  and  C_9
REMARK    7  A    between atoms: N_15  and  N_16
REMARK    8  A    between atoms: C_17  and  C_18
REMARK    9  A    between atoms: C_26  and  C_28
REMARK                            x       y       z     vdW  Elec       q    Type
REMARK                         _______ _______ _______ _____ _____    ______ ____
ROOT
ATOM      1  N   UNL     1       0.347   4.184  -6.750  0.00  0.00    -0.189 NA
ATOM      2  C   UNL     1       0.283   5.257  -7.502  0.00  0.00    +0.137 C 
ENDROOT
BRANCH   2   3
ATOM      3  C   UNL     1       1.273   5.500  -8.458  0.00  0.00    +0.008 C 
ATOM      4  C   UNL     1       2.385   4.706  -8.743  0.00  0.00    +0.005 A 
ATOM      5  C   UNL     1       2.848   3.486  -8.206  0.00  0.00    +0.010 A 
ATOM      6  C   UNL     1       3.988   2.928  -8.688  0.00  0.00    +0.001 A 
ATOM      7  C   UNL     1       4.723   3.531  -9.711  0.00  0.00    +0.002 A 
ATOM      8  C   UNL     1       4.337   4.703 -10.273  0.00  0.00    +0.026 A 
ATOM      9  C   UNL     1       3.155   5.346  -9.822  0.00  0.00    +0.044 A 
ATOM     10  N   UNL     1       2.576   6.470 -10.198  0.00  0.00    -0.373 N 
ATOM     11  C   UNL     1       1.360   6.677  -9.405  0.00  0.00    +0.142 C 
ATOM     12  H   UNL     1       2.901   7.064 -10.892  0.00  0.00    +0.161 HD
BRANCH  11  13
ATOM     13  C   UNL     1       0.151   6.710 -10.304  0.00  0.00    -0.021 A 
ATOM     14  C   UNL     1       0.085   5.876 -11.405  0.00  0.00    +0.006 A 
ATOM     15  C   UNL     1      -1.024   5.907 -12.230  0.00  0.00    +0.000 A 
ATOM     16  C   UNL     1      -2.068   6.770 -11.953  0.00  0.00    +0.000 A 
ATOM     17  C   UNL     1      -2.002   7.603 -10.852  0.00  0.00    +0.000 A 
ATOM     18  C   UNL     1      -0.895   7.569 -10.025  0.00  0.00    +0.006 A 
ENDBRANCH  11  13
ENDBRANCH   2   3
BRANCH   1  25
ATOM     19  C   UNL     1      -0.337   0.586  -3.526  0.00  0.00    +0.124 A 
ATOM     20  C   UNL     1      -1.407   1.450  -3.334  0.00  0.00    +0.033 A 
ATOM     21  C   UNL     1      -1.487   2.585  -4.120  0.00  0.00    +0.047 A 
ATOM     22  C   UNL     1      -0.498   2.822  -5.071  0.00  0.00    +0.138 A 
ATOM     23  N   UNL     1       0.507   1.973  -5.223  0.00  0.00    -0.237 NA
ATOM     24  C   UNL     1       0.612   0.886  -4.484  0.00  0.00    +0.141 A 
ATOM     25  N   UNL     1      -0.566   3.959  -5.867  0.00  0.00    -0.221 N 
ATOM     26  H   UNL     1      -1.301   4.583  -5.760  0.00  0.00    +0.176 HD
BRANCH  19  27
ATOM     27  S   UNL     1      -0.188  -0.875  -2.551  0.00  0.00    +0.062 S 
ATOM     28  O   UNL     1       0.610  -1.782  -3.300  0.00  0.00    -0.153 OA
ATOM     29  O   UNL     1      -1.496  -1.201  -2.104  0.00  0.00    -0.153 OA
BRANCH  27  30
ATOM     30  N   UNL     1       0.688  -0.476  -1.203  0.00  0.00    -0.177 NA
BRANCH  30  32
ATOM     31  C   UNL     1      -0.019   1.526   0.010  0.00  0.00    +0.022 C 
ATOM     32  C   UNL     1       0.002  -0.004   0.002  0.00  0.00    +0.106 C 
ENDBRANCH  30  32
BRANCH  30  33
ATOM     33  C   UNL     1       2.148  -0.597  -1.216  0.00  0.00    +0.106 C 
ATOM     34  C   UNL     1       2.553  -1.951  -0.632  0.00  0.00    +0.022 C 
ENDBRANCH  30  33
ENDBRANCH  27  30
ENDBRANCH  19  27
ENDBRANCH   1  25
TORSDOF 7
