REMARK  Name = ZINC14544977
REMARK  5 active torsions:
REMARK  status: ('A' for Active; 'I' for Inactive)
REMARK    1  A    between atoms: C_1  and  C_2
REMARK    2  A    between atoms: C_2  and  C_3
REMARK    3  A    between atoms: C_3  and  O_4
REMARK    4  A    between atoms: O_4  and  C_5
REMARK    5  A    between atoms: C_18  and  C_21
REMARK                            x       y       z     vdW  Elec       q    Type
REMARK                         _______ _______ _______ _____ _____    ______ ____
ROOT
ATOM      1  C   UNL     1      -2.526   2.294  -2.530  0.00  0.00    +0.121 A 
ATOM      2  C   UNL     1      -1.743   2.314  -3.675  0.00  0.00    +0.047 A 
ATOM      3  C   UNL     1      -0.414   1.948  -3.610  0.00  0.00    +0.027 A 
ATOM      4  C   UNL     1       0.150   1.558  -2.402  0.00  0.00    +0.032 A 
ATOM      5  C   UNL     1      -0.653   1.544  -1.244  0.00  0.00    -0.016 A 
ATOM      6  C   UNL     1      -1.973   1.900  -1.322  0.00  0.00    +0.051 A 
ATOM      7  C   UNL     1      -0.013   1.086   0.008  0.00  0.00    +0.049 C 
ATOM      8  C   UNL     1      -0.509   1.533   1.335  0.00  0.00    -0.023 C 
ATOM      9  C   UNL     1       0.517   1.593   2.174  0.00  0.00    -0.030 C 
ATOM     10  C   UNL     1       1.810   1.216   1.447  0.00  0.00    +0.033 C 
ATOM     11  C   UNL     1       1.466   1.579  -0.004  0.00  0.00    +0.029 C 
ATOM     12  C   UNL     1       2.150   0.780  -1.099  0.00  0.00    +0.107 C 
ATOM     13  N   UNL     1       1.507   1.206  -2.361  0.00  0.00    -0.336 N 
ATOM     14  H   UNL     1       2.034   1.243  -3.175  0.00  0.00    +0.147 HD
ENDROOT
BRANCH  12  15
ATOM     15  C   UNL     1       3.623   1.096  -1.131  0.00  0.00    -0.002 A 
ATOM     16  C   UNL     1       4.229   1.996  -1.921  0.00  0.00    +0.089 A 
ATOM     17  N   UNL     1       5.574   2.008  -1.668  0.00  0.00    -0.360 N 
ATOM     18  H   UNL     1       6.220   2.578  -2.114  0.00  0.00    +0.165 HD
ATOM     19  C   UNL     1       5.874   1.086  -0.690  0.00  0.00    +0.047 A 
ATOM     20  C   UNL     1       4.665   0.475  -0.310  0.00  0.00    +0.005 A 
ATOM     21  C   UNL     1       4.664  -0.512   0.676  0.00  0.00    +0.010 A 
ATOM     22  C   UNL     1       5.839  -0.880   1.270  0.00  0.00    +0.001 A 
ATOM     23  C   UNL     1       7.034  -0.280   0.899  0.00  0.00    +0.002 A 
ATOM     24  C   UNL     1       7.058   0.696  -0.073  0.00  0.00    +0.026 A 
ENDBRANCH  12  15
BRANCH   1  25
ATOM     25  O   UNL     1      -3.834   2.662  -2.594  0.00  0.00    -0.492 OA
BRANCH  25  26
ATOM     26  C   UNL     1      -4.336   3.056  -3.872  0.00  0.00    +0.229 C 
BRANCH  26  28
ATOM     27  C   UNL     1      -6.352   3.854  -5.115  0.00  0.00    +0.007 C 
ATOM     28  C   UNL     1      -5.814   3.431  -3.746  0.00  0.00    +0.038 C 
ENDBRANCH  26  28
ENDBRANCH  25  26
ENDBRANCH   1  25
TORSDOF 4
