REMARK  Name = ZINC28051607
REMARK  3 active torsions:
REMARK  status: ('A' for Active; 'I' for Inactive)
REMARK    1  A    between atoms: C_1  and  C_2
REMARK    2  A    between atoms: C_10  and  C_12
REMARK    3  A    between atoms: C_22  and  C_25
REMARK                            x       y       z     vdW  Elec       q    Type
REMARK                         _______ _______ _______ _____ _____    ______ ____
ROOT
ATOM      1  C   UNL     1       2.984   3.400   3.164  0.00  0.00    +0.069 C 
ATOM      2  C   UNL     1       2.748   4.764   2.568  0.00  0.00    +0.087 A 
ATOM      3  C   UNL     1       2.526   5.064   1.226  0.00  0.00    +0.049 A 
ATOM      4  C   UNL     1       2.371   6.426   1.200  0.00  0.00    +0.226 A 
ATOM      5  O   UNL     1       2.498   6.840   2.457  0.00  0.00    -0.339 OA
ATOM      6  N   UNL     1       2.709   5.906   3.207  0.00  0.00    -0.081 NA
ATOM      7  N   UNL     1       2.139   7.095   0.016  0.00  0.00    -0.286 N 
ATOM      8  C   UNL     1       2.355   6.430  -1.167  0.00  0.00    +0.019 C 
ATOM      9  C   UNL     1       2.503   5.090  -1.230  0.00  0.00    +0.024 C 
ATOM     10  C   UNL     1       2.447   4.210   0.002  0.00  0.00    +0.091 C 
ATOM     11  C   UNL     1       2.719   4.443  -2.461  0.00  0.00    +0.162 C 
ATOM     12  O   UNL     1       2.869   3.237  -2.479  0.00  0.00    -0.292 OA
ATOM     13  C   UNL     1       2.769   5.209  -3.753  0.00  0.00    +0.088 C 
ATOM     14  C   UNL     1       1.911   6.471  -3.614  0.00  0.00    +0.032 C 
ATOM     15  C   UNL     1       2.428   7.274  -2.420  0.00  0.00    +0.059 C 
ATOM     16  H   UNL     1       1.789   8.138   0.033  0.00  0.00    +0.155 HD
ENDROOT
BRANCH  10  17
ATOM     17  C   UNL     1       1.153   3.438   0.010  0.00  0.00    -0.033 A 
ATOM     18  C   UNL     1      -0.054   4.112   0.025  0.00  0.00    +0.005 A 
ATOM     19  C   UNL     1      -1.242   3.405   0.032  0.00  0.00    +0.003 A 
ATOM     20  C   UNL     1      -1.224   2.023   0.019  0.00  0.00    +0.038 A 
ATOM     21  C   UNL     1      -0.016   1.347   0.009  0.00  0.00    +0.124 A 
ATOM     22  C   UNL     1       1.173   2.056   0.002  0.00  0.00    +0.043 A 
ATOM     23  F   UNL     1       0.002  -0.004   0.002  0.00  0.00    -0.205 F 
ENDBRANCH  10  17
BRANCH  14  24
ATOM     24  C   UNL     1       2.019   7.299  -4.868  0.00  0.00    -0.044 A 
ATOM     25  C   UNL     1       3.252   7.764  -5.285  0.00  0.00    +0.004 A 
ATOM     26  C   UNL     1       3.352   8.520  -6.438  0.00  0.00    +0.000 A 
ATOM     27  C   UNL     1       2.217   8.820  -7.169  0.00  0.00    +0.000 A 
ATOM     28  C   UNL     1       0.983   8.359  -6.749  0.00  0.00    +0.000 A 
ATOM     29  C   UNL     1       0.884   7.599  -5.598  0.00  0.00    +0.004 A 
ENDBRANCH  14  24
TORSDOF 2
