REMARK  Name = ZINC38751592
REMARK  7 active torsions:
REMARK  status: ('A' for Active; 'I' for Inactive)
REMARK    1  A    between atoms: C_4  and  C_7
REMARK    2  A    between atoms: C_7  and  C_9
REMARK    3  A    between atoms: C_7  and  S_20
REMARK    4  A    between atoms: C_9  and  C_11
REMARK    5  A    between atoms: S_20  and  C_21
REMARK    6  A    between atoms: C_25  and  C_33
REMARK    7  A    between atoms: N_26  and  C_27
REMARK                            x       y       z     vdW  Elec       q    Type
REMARK                         _______ _______ _______ _____ _____    ______ ____
ROOT
ATOM      1  S   UNL     1       3.615  -2.099  -2.022  0.00  0.00    -0.102 S 
ENDROOT
BRANCH   1   2
ATOM      2  C   UNL     1       3.870  -0.721  -3.174  0.00  0.00    +0.242 C 
ATOM      3  N   UNL     1       5.089   0.028  -2.823  0.00  0.00    -0.237 N 
ATOM      4  N   UNL     1       4.678   1.331  -2.521  0.00  0.00    -0.168 NA
ATOM      5  C   UNL     1       3.398   1.464  -2.641  0.00  0.00    +0.153 C 
ATOM      6  N   UNL     1       2.789   0.271  -3.040  0.00  0.00    -0.254 N 
ATOM      7  H   UNL     1       5.997  -0.315  -2.805  0.00  0.00    +0.171 HD
BRANCH   5   8
ATOM      8  C   UNL     1       2.667   2.724  -2.390  0.00  0.00    +0.020 A 
ATOM      9  C   UNL     1       1.268   2.766  -2.435  0.00  0.00    +0.029 A 
ATOM     10  C   UNL     1       0.627   3.963  -2.195  0.00  0.00    +0.083 A 
ATOM     11  N   UNL     1       1.314   5.057  -1.925  0.00  0.00    -0.367 N 
ATOM     12  C   UNL     1       2.632   5.061  -1.872  0.00  0.00    +0.083 A 
ATOM     13  C   UNL     1       3.354   3.908  -2.094  0.00  0.00    +0.029 A 
ATOM     14  H   UNL     1       0.834   5.884  -1.760  0.00  0.00    +0.165 HD
ENDBRANCH   5   8
BRANCH   6  15
ATOM     15  C   UNL     1       1.428   0.058  -3.267  0.00  0.00    +0.038 A 
ATOM     16  C   UNL     1       0.827   0.558  -4.416  0.00  0.00    +0.023 A 
ATOM     17  C   UNL     1      -0.520   0.345  -4.637  0.00  0.00    +0.002 A 
ATOM     18  C   UNL     1      -1.270  -0.363  -3.716  0.00  0.00    +0.000 A 
ATOM     19  C   UNL     1      -0.675  -0.862  -2.571  0.00  0.00    +0.002 A 
ATOM     20  C   UNL     1       0.672  -0.658  -2.346  0.00  0.00    +0.023 A 
ENDBRANCH   6  15
ENDBRANCH   1   2
BRANCH   1  21
ATOM     21  C   UNL     1       3.929  -1.370  -0.391  0.00  0.00    +0.150 C 
BRANCH  21  25
ATOM     22  C   UNL     1       0.341   0.420   1.081  0.00  0.00    +0.000 A 
ATOM     23  C   UNL     1       1.420   1.214   0.740  0.00  0.00    +0.000 A 
ATOM     24  C   UNL     1       2.582   0.635   0.264  0.00  0.00    +0.005 A 
ATOM     25  C   UNL     1       2.664  -0.739   0.129  0.00  0.00    -0.027 A 
ATOM     26  C   UNL     1       1.585  -1.532   0.470  0.00  0.00    +0.005 A 
ATOM     27  C   UNL     1       0.423  -0.953   0.945  0.00  0.00    +0.000 A 
ENDBRANCH  21  25
BRANCH  21  28
ATOM     28  C   UNL     1       4.381  -2.447   0.562  0.00  0.00    +0.179 C 
ATOM     29  O   UNL     1       4.066  -3.603   0.364  0.00  0.00    -0.291 OA
BRANCH  28  30
ATOM     30  C   UNL     1       5.169  -2.112   1.683  0.00  0.00    +0.024 C 
ATOM     31  C   UNL     1       5.667  -2.975   2.643  0.00  0.00    +0.006 A 
ATOM     32  C   UNL     1       5.569  -4.375   2.823  0.00  0.00    +0.010 A 
ATOM     33  C   UNL     1       6.170  -4.970   3.878  0.00  0.00    +0.001 A 
ATOM     34  C   UNL     1       6.907  -4.248   4.831  0.00  0.00    +0.002 A 
ATOM     35  C   UNL     1       7.062  -2.909   4.751  0.00  0.00    +0.026 A 
ATOM     36  C   UNL     1       6.439  -2.183   3.632  0.00  0.00    +0.043 A 
ATOM     37  N   UNL     1       6.426  -0.919   3.315  0.00  0.00    -0.380 N 
ATOM     38  C   UNL     1       5.652  -0.736   2.083  0.00  0.00    +0.152 C 
ATOM     39  H   UNL     1       6.863  -0.211   3.814  0.00  0.00    +0.160 HD
ENDBRANCH  28  30
ENDBRANCH  21  28
ENDBRANCH   1  21
TORSDOF 7
