REMARK  Name = ZINC43231294
REMARK  7 active torsions:
REMARK  status: ('A' for Active; 'I' for Inactive)
REMARK    1  A    between atoms: C_1  and  C_2
REMARK    2  A    between atoms: C_7  and  N_8
REMARK    3  A    between atoms: N_11  and  N_12
REMARK    4  A    between atoms: N_15  and  C_16
REMARK    5  A    between atoms: C_16  and  C_17
REMARK    6  A    between atoms: C_17  and  C_19
REMARK    7  A    between atoms: C_17  and  N_24
REMARK                            x       y       z     vdW  Elec       q    Type
REMARK                         _______ _______ _______ _____ _____    ______ ____
ROOT
ATOM      1  N   UNL     1      -0.331   1.359   4.744  0.00  0.00    -0.217 N 
ATOM      2  C   UNL     1      -0.361   2.032   5.912  0.00  0.00    +0.316 C 
ATOM      3  O   UNL     1      -0.327   3.248   5.914  0.00  0.00    -0.251 OA
ATOM      4  N   UNL     1      -0.430   1.358   7.076  0.00  0.00    -0.299 N 
ATOM      5  H   UNL     1      -0.281   1.845   3.906  0.00  0.00    +0.174 HD
ATOM      6  H   UNL     1      -0.457   0.388   7.074  0.00  0.00    +0.150 HD
ENDROOT
BRANCH   1  10
ATOM      7  N   UNL     1      -0.271  -0.039   2.409  0.00  0.00    -0.268 N 
ATOM      8  C   UNL     1      -0.340  -0.714   3.574  0.00  0.00    +0.320 C 
ATOM      9  O   UNL     1      -0.374  -1.929   3.571  0.00  0.00    -0.251 OA
ATOM     10  N   UNL     1      -0.370  -0.041   4.741  0.00  0.00    -0.217 N 
ATOM     11  H   UNL     1      -0.187   0.927   2.412  0.00  0.00    +0.156 HD
ATOM     12  H   UNL     1      -0.419  -0.526   5.580  0.00  0.00    +0.174 HD
BRANCH   7  19
ATOM     13  C   UNL     1      -1.573   1.202   0.204  0.00  0.00    +0.045 C 
ATOM     14  C   UNL     1      -0.946  -0.164   0.093  0.00  0.00    -0.029 A 
ATOM     15  C   UNL     1      -0.988  -0.849  -1.106  0.00  0.00    +0.005 A 
ATOM     16  C   UNL     1      -0.412  -2.102  -1.208  0.00  0.00    +0.000 A 
ATOM     17  C   UNL     1       0.206  -2.674  -0.111  0.00  0.00    +0.002 A 
ATOM     18  C   UNL     1       0.251  -1.994   1.090  0.00  0.00    +0.023 A 
ATOM     19  C   UNL     1      -0.320  -0.733   1.195  0.00  0.00    +0.038 A 
ENDBRANCH   7  19
ENDBRANCH   1  10
BRANCH   4  20
ATOM     20  C   UNL     1      -0.463   2.089   8.345  0.00  0.00    +0.095 C 
BRANCH  20  21
ATOM     21  C   UNL     1      -0.413   1.095   9.508  0.00  0.00    -0.013 C 
BRANCH  21  22
ATOM     22  N   UNL     1      -0.521   1.823  10.779  0.00  0.00    +0.386 N 
ATOM     23  C   UNL     1      -0.375   0.879  11.907  0.00  0.00    -0.078 C 
ATOM     24  C   UNL     1      -1.346   1.407  12.993  0.00  0.00    -0.020 C 
ATOM     25  C   UNL     1      -2.537   1.905  12.133  0.00  0.00    -0.020 C 
ATOM     26  C   UNL     1      -1.845   2.465  10.873  0.00  0.00    -0.078 C 
ATOM     27  H   UNL     1       0.201   2.526  10.831  0.00  0.00    -0.081 HD
ENDBRANCH  21  22
BRANCH  21  28
ATOM     28  C   UNL     1       0.892   0.343   9.469  0.00  0.00    -0.022 A 
ATOM     29  C   UNL     1       1.147  -0.900   8.991  0.00  0.00    +0.009 A 
ATOM     30  C   UNL     1       2.436  -1.393   9.060  0.00  0.00    +0.008 A 
ATOM     31  C   UNL     1       3.408  -0.620   9.604  0.00  0.00    +0.045 A 
ATOM     32  S   UNL     1       2.505   0.859  10.035  0.00  0.00    -0.103 S 
ENDBRANCH  21  28
ENDBRANCH  20  21
ENDBRANCH   4  20
TORSDOF 6
