REMARK  Name = ZINC04191569
REMARK  9 active torsions:
REMARK  status: ('A' for Active; 'I' for Inactive)
REMARK    1  A    between atoms: C_1  and  C_2
REMARK    2  A    between atoms: C_2  and  C_4
REMARK    3  A    between atoms: C_2  and  N_14
REMARK    4  A    between atoms: N_6  and  C_7
REMARK    5  A    between atoms: C_7  and  C_8
REMARK    6  A    between atoms: N_14  and  C_15
REMARK    7  A    between atoms: C_21  and  C_23
REMARK    8  A    between atoms: C_24  and  N_31
REMARK    9  A    between atoms: C_25  and  C_28
REMARK                            x       y       z     vdW  Elec       q    Type
REMARK                         _______ _______ _______ _____ _____    ______ ____
ROOT
ATOM      1  N   UNL     1       0.704  -0.920   1.398  0.00  0.00    -0.255 N 
ATOM      2  C   UNL     1       1.975  -1.025   0.962  0.00  0.00    +0.261 C 
ATOM      3  O   UNL     1       2.205  -1.097  -0.231  0.00  0.00    -0.269 OA
ENDROOT
BRANCH   1   4
ATOM      4  C   UNL     1       0.435  -0.907   2.770  0.00  0.00    +0.037 A 
ATOM      5  C   UNL     1       0.643  -2.050   3.531  0.00  0.00    +0.023 A 
ATOM      6  C   UNL     1       0.376  -2.034   4.886  0.00  0.00    +0.002 A 
ATOM      7  C   UNL     1      -0.098  -0.881   5.486  0.00  0.00    +0.000 A 
ATOM      8  C   UNL     1      -0.306   0.259   4.731  0.00  0.00    +0.002 A 
ATOM      9  C   UNL     1      -0.036   0.251   3.376  0.00  0.00    +0.023 A 
ENDBRANCH   1   4
BRANCH   2  10
ATOM     10  C   UNL     1       3.079  -1.054   1.923  0.00  0.00    +0.116 A 
ATOM     11  C   UNL     1       4.438  -1.281   1.702  0.00  0.00    +0.076 A 
ATOM     12  C   UNL     1       5.205  -1.232   2.865  0.00  0.00    +0.155 A 
ATOM     13  N   UNL     1       4.619  -0.988   4.018  0.00  0.00    -0.203 NA
ATOM     14  S   UNL     1       3.047  -0.799   3.686  0.00  0.00    +0.019 S 
BRANCH  12  15
ATOM     15  C   UNL     1       6.662  -1.452   2.803  0.00  0.00    +0.262 C 
ATOM     16  O   UNL     1       7.213  -1.577   1.727  0.00  0.00    -0.269 OA
ATOM     17  N   UNL     1       7.382  -1.514   3.941  0.00  0.00    -0.324 N 
ATOM     18  H   UNL     1       6.942  -1.415   4.800  0.00  0.00    +0.145 HD
ATOM     19  H   UNL     1       8.340  -1.659   3.900  0.00  0.00    +0.145 HD
ENDBRANCH  12  15
BRANCH  11  20
ATOM     20  N   UNL     1       4.974  -1.532   0.446  0.00  0.00    -0.355 N 
ATOM     21  H   UNL     1       4.422  -1.433  -0.345  0.00  0.00    +0.142 HD
ATOM     22  H   UNL     1       5.900  -1.807   0.360  0.00  0.00    +0.142 HD
ENDBRANCH  11  20
ENDBRANCH   2  10
BRANCH   1  24
ATOM     23  C   UNL     1      -1.155   0.488   0.663  0.00  0.00    +0.038 C 
ATOM     24  C   UNL     1      -0.395  -0.820   0.435  0.00  0.00    +0.164 C 
BRANCH  24  25
ATOM     25  C   UNL     1      -1.333  -1.985   0.620  0.00  0.00    +0.234 C 
ATOM     26  O   UNL     1      -1.105  -2.817   1.472  0.00  0.00    -0.274 OA
ATOM     27  N   UNL     1      -2.424  -2.103  -0.162  0.00  0.00    -0.311 N 
ATOM     28  H   UNL     1      -2.606  -1.437  -0.844  0.00  0.00    +0.149 HD
BRANCH  27  29
ATOM     29  C   UNL     1      -3.336  -3.235   0.018  0.00  0.00    +0.135 C 
BRANCH  29  30
ATOM     30  C   UNL     1      -4.484  -3.130  -0.988  0.00  0.00    +0.135 C 
ATOM     31  C   UNL     1      -5.480  -4.301  -0.792  0.00  0.00    +0.035 C 
ATOM     32  C   UNL     1      -6.779  -3.684  -1.377  0.00  0.00    +0.031 C 
ATOM     33  C   UNL     1      -6.640  -2.197  -0.987  0.00  0.00    +0.160 C 
ATOM     34  O   UNL     1      -5.250  -1.939  -0.748  0.00  0.00    -0.375 OA
ENDBRANCH  29  30
ENDBRANCH  27  29
ENDBRANCH  24  25
ENDBRANCH   1  24
TORSDOF 8
