REMARK  Name = ZINC20758305
REMARK  6 active torsions:
REMARK  status: ('A' for Active; 'I' for Inactive)
REMARK    1  A    between atoms: C_1  and  C_2
REMARK    2  A    between atoms: C_2  and  C_3
REMARK    3  A    between atoms: C_6  and  N_9
REMARK    4  A    between atoms: C_12  and  C_19
REMARK    5  A    between atoms: N_33  and  C_34
REMARK    6  A    between atoms: C_34  and  C_35
REMARK                            x       y       z     vdW  Elec       q    Type
REMARK                         _______ _______ _______ _____ _____    ______ ____
ROOT
ATOM      1  N   UNL     1      -0.869  -2.732  -3.225  0.00  0.00    -0.229 N 
ATOM      2  C   UNL     1      -0.501  -1.790  -2.334  0.00  0.00    +0.267 A 
ATOM      3  O   UNL     1      -0.073  -0.715  -2.718  0.00  0.00    -0.267 OA
ATOM      4  C   UNL     1      -0.614  -2.056  -0.958  0.00  0.00    +0.074 A 
ATOM      5  C   UNL     1      -1.091  -3.268  -0.554  0.00  0.00    +0.260 A 
ATOM      6  N   UNL     1      -1.458  -4.196  -1.495  0.00  0.00    -0.274 N 
ATOM      7  H   UNL     1      -1.850  -5.174  -1.179  0.00  0.00    +0.173 HD
ATOM      8  C   UNL     1      -1.342  -3.920  -2.807  0.00  0.00    +0.337 A 
ATOM      9  O   UNL     1      -1.668  -4.757  -3.626  0.00  0.00    -0.246 OA
ATOM     10  O   UNL     1      -1.204  -3.550   0.761  0.00  0.00    -0.267 OA
ENDROOT
BRANCH   4  11
ATOM     11  C   UNL     1      -0.208  -1.018   0.057  0.00  0.00    +0.021 C 
ATOM     12  C   UNL     1       1.278  -0.768  -0.040  0.00  0.00    +0.011 A 
ATOM     13  C   UNL     1       1.821   0.471  -0.009  0.00  0.00    -0.022 A 
ATOM     14  C   UNL     1       3.253   0.313  -0.130  0.00  0.00    +0.003 A 
ATOM     15  C   UNL     1       4.312   1.226  -0.159  0.00  0.00    +0.010 A 
ATOM     16  C   UNL     1       5.576   0.707  -0.287  0.00  0.00    +0.001 A 
ATOM     17  C   UNL     1       5.807  -0.655  -0.384  0.00  0.00    +0.002 A 
ATOM     18  C   UNL     1       4.779  -1.582  -0.358  0.00  0.00    +0.026 A 
ATOM     19  C   UNL     1       3.484  -1.084  -0.229  0.00  0.00    +0.047 A 
ATOM     20  N   UNL     1       2.268  -1.703  -0.170  0.00  0.00    -0.359 N 
ATOM     21  H   UNL     1       2.012  -2.772  -0.212  0.00  0.00    +0.166 HD
ATOM     22  C   UNL     1       1.007   1.732   0.135  0.00  0.00    +0.019 C 
ATOM     23  C   UNL     1      -0.397   1.340   0.615  0.00  0.00    -0.073 C 
ATOM     24  N   UNL     1      -0.913   0.245  -0.219  0.00  0.00    +0.388 N 
ATOM     25  H   UNL     1      -0.725   0.511  -1.270  0.00  0.00    -0.080 HD
BRANCH  24  26
ATOM     26  C   UNL     1      -2.363   0.088  -0.043  0.00  0.00    -0.081 C 
ATOM     27  C   UNL     1      -3.078   1.333  -0.574  0.00  0.00    -0.017 C 
ENDBRANCH  24  26
ENDBRANCH   4  11
BRANCH   1  31
ATOM     28  C   UNL     1      -0.540  -1.957  -7.307  0.00  0.00    -0.047 A 
ATOM     29  C   UNL     1       0.519  -2.529  -6.626  0.00  0.00    +0.005 A 
ATOM     30  C   UNL     1       0.412  -2.787  -5.273  0.00  0.00    +0.026 A 
ATOM     31  C   UNL     1      -0.759  -2.471  -4.598  0.00  0.00    +0.054 A 
ATOM     32  C   UNL     1      -1.822  -1.903  -5.286  0.00  0.00    +0.026 A 
ATOM     33  C   UNL     1      -1.708  -1.642  -6.637  0.00  0.00    +0.005 A 
BRANCH  28  35
ATOM     34  C   UNL     1      -0.902  -2.896  -9.574  0.00  0.00    +0.009 C 
ATOM     35  C   UNL     1      -0.421  -1.677  -8.783  0.00  0.00    +0.032 C 
ENDBRANCH  28  35
ENDBRANCH   1  31
TORSDOF 4
