REMARK  Name = ZINC63012591
REMARK  5 active torsions:
REMARK  status: ('A' for Active; 'I' for Inactive)
REMARK    1  A    between atoms: C_1  and  C_2
REMARK    2  A    between atoms: C_2  and  O_3
REMARK    3  A    between atoms: O_3  and  C_4
REMARK    4  A    between atoms: C_5  and  N_21
REMARK    5  A    between atoms: C_8  and  N_10
REMARK                            x       y       z     vdW  Elec       q    Type
REMARK                         _______ _______ _______ _____ _____    ______ ____
ROOT
ATOM      1  C   UNL     1       0.802  -1.823   1.306  0.00  0.00    +0.238 A 
ATOM      2  C   UNL     1       1.460  -2.345   2.417  0.00  0.00    +0.087 A 
ATOM      3  C   UNL     1       1.564  -3.725   2.555  0.00  0.00    +0.031 A 
ATOM      4  C   UNL     1       1.006  -4.532   1.577  0.00  0.00    +0.046 A 
ATOM      5  C   UNL     1       0.365  -3.943   0.495  0.00  0.00    +0.126 A 
ATOM      6  N   UNL     1       0.277  -2.625   0.394  0.00  0.00    -0.196 NA
ENDROOT
BRANCH   5   7
ATOM      7  N   UNL     1      -0.198  -4.748  -0.493  0.00  0.00    -0.307 N 
ATOM      8  C   UNL     1      -0.778  -4.165  -1.699  0.00  0.00    +0.148 C 
ATOM      9  C   UNL     1      -1.933  -5.090  -2.136  0.00  0.00    +0.248 C 
ATOM     10  O   UNL     1      -2.877  -5.182  -1.068  0.00  0.00    -0.490 OA
ATOM     11  C   UNL     1      -2.721  -6.132  -0.106  0.00  0.00    +0.125 A 
ATOM     12  C   UNL     1      -3.888  -6.621   0.484  0.00  0.00    +0.046 A 
ATOM     13  C   UNL     1      -3.825  -7.559   1.492  0.00  0.00    +0.004 A 
ATOM     14  C   UNL     1      -2.599  -8.023   1.932  0.00  0.00    +0.001 A 
ATOM     15  C   UNL     1      -1.440  -7.556   1.345  0.00  0.00    +0.009 A 
ATOM     16  C   UNL     1      -1.500  -6.629   0.319  0.00  0.00    +0.011 A 
ATOM     17  C   UNL     1      -0.220  -6.205  -0.357  0.00  0.00    +0.145 C 
ENDBRANCH   5   7
BRANCH   2  18
ATOM     18  N   UNL     1       2.010  -1.490   3.384  0.00  0.00    -0.354 N 
ATOM     19  H   UNL     1       1.934  -0.529   3.281  0.00  0.00    +0.142 HD
ATOM     20  H   UNL     1       2.467  -1.861   4.155  0.00  0.00    +0.142 HD
ENDBRANCH   2  18
BRANCH   1  21
ATOM     21  O   UNL     1       0.693  -0.477   1.160  0.00  0.00    -0.475 OA
BRANCH  21  23
ATOM     22  C   UNL     1      -0.019   1.526   0.010  0.00  0.00    +0.048 C 
ATOM     23  C   UNL     1       0.002  -0.004   0.002  0.00  0.00    +0.227 C 
ENDBRANCH  21  23
ENDBRANCH   1  21
TORSDOF 4
