REMARK  Name = ZINC22861624
REMARK  5 active torsions:
REMARK  status: ('A' for Active; 'I' for Inactive)
REMARK    1  A    between atoms: C_1  and  C_2
REMARK    2  A    between atoms: C_4  and  N_12
REMARK    3  A    between atoms: N_12  and  C_13
REMARK    4  A    between atoms: C_13  and  C_14
REMARK    5  A    between atoms: C_14  and  N_15
REMARK                            x       y       z     vdW  Elec       q    Type
REMARK                         _______ _______ _______ _____ _____    ______ ____
ROOT
ATOM      1  C   UNL     1      -0.660   1.392   0.043  0.00  0.00    +0.044 C 
ATOM      2  C   UNL     1      -0.497  -0.106   0.019  0.00  0.00    -0.038 A 
ATOM      3  C   UNL     1      -0.373  -0.777  -1.160  0.00  0.00    +0.045 A 
ATOM      4  C   UNL     1      -0.223  -2.171  -1.158  0.00  0.00    +0.097 A 
ATOM      5  N   UNL     1      -0.198  -2.860  -0.035  0.00  0.00    -0.343 N 
ATOM      6  C   UNL     1      -0.315  -2.256   1.152  0.00  0.00    +0.048 A 
ATOM      7  C   UNL     1      -0.464  -0.849   1.217  0.00  0.00    +0.001 A 
ATOM      8  C   UNL     1      -0.580  -0.221   2.467  0.00  0.00    +0.010 A 
ATOM      9  C   UNL     1      -0.543  -0.970   3.603  0.00  0.00    +0.001 A 
ATOM     10  C   UNL     1      -0.391  -2.353   3.542  0.00  0.00    +0.002 A 
ATOM     11  C   UNL     1      -0.287  -2.996   2.347  0.00  0.00    +0.026 A 
ATOM     12  H   UNL     1      -0.093  -3.824  -0.070  0.00  0.00    +0.167 HD
ENDROOT
BRANCH   4  13
ATOM     13  N   UNL     1      -0.098  -2.841  -2.366  0.00  0.00    -0.329 N 
ATOM     14  H   UNL     1       0.007  -3.805  -2.378  0.00  0.00    +0.147 HD
BRANCH  13  15
ATOM     15  C   UNL     1      -0.124  -2.092  -3.625  0.00  0.00    +0.126 C 
BRANCH  15  16
ATOM     16  C   UNL     1       0.032  -3.061  -4.798  0.00  0.00    +0.160 C 
BRANCH  16  17
ATOM     17  N   UNL     1       0.005  -2.312  -6.057  0.00  0.00    -0.287 NA
ATOM     18  C   UNL     1      -0.971  -2.486  -6.897  0.00  0.00    +0.039 C 
ATOM     19  C   UNL     1      -2.143  -3.353  -6.513  0.00  0.00    +0.055 C 
ATOM     20  C   UNL     1      -3.389  -2.864  -7.258  0.00  0.00    +0.014 C 
ATOM     21  C   UNL     1      -3.106  -2.883  -8.762  0.00  0.00    +0.079 C 
ATOM     22  C   UNL     1      -1.908  -2.023  -9.061  0.00  0.00    +0.158 C 
ATOM     23  C   UNL     1      -0.930  -1.857  -8.163  0.00  0.00    +0.069 C 
ATOM     24  O   UNL     1      -1.820  -1.402 -10.257  0.00  0.00    -0.293 OA
ENDBRANCH  16  17
ENDBRANCH  15  16
ENDBRANCH  13  15
ENDBRANCH   4  13
TORSDOF 4
