REMARK  Name = ZINC29464724
REMARK  4 active torsions:
REMARK  status: ('A' for Active; 'I' for Inactive)
REMARK    1  A    between atoms: C_1  and  N_2
REMARK    2  A    between atoms: N_5  and  C_14
REMARK    3  A    between atoms: C_14  and  C_15
REMARK    4  A    between atoms: N_17  and  C_18
REMARK                            x       y       z     vdW  Elec       q    Type
REMARK                         _______ _______ _______ _____ _____    ______ ____
ROOT
ATOM      1  C   UNL     1      -4.328  -1.618   1.837  0.00  0.00    +0.134 C 
ATOM      2  N   UNL     1      -3.307  -1.232   0.860  0.00  0.00    -0.274 N 
ATOM      3  C   UNL     1      -2.036  -0.872   1.121  0.00  0.00    +0.312 C 
ATOM      4  O   UNL     1      -1.564  -0.821   2.240  0.00  0.00    -0.252 OA
ATOM      5  N   UNL     1      -1.352  -0.573   0.010  0.00  0.00    -0.215 N 
ATOM      6  C   UNL     1      -2.111  -0.719  -1.096  0.00  0.00    +0.247 C 
ATOM      7  O   UNL     1      -1.777  -0.529  -2.246  0.00  0.00    -0.273 OA
ATOM      8  C   UNL     1      -3.466  -1.169  -0.599  0.00  0.00    +0.115 C 
ATOM      9  C   UNL     1      -3.807  -2.545  -1.160  0.00  0.00    +0.035 C 
ATOM     10  C   UNL     1      -5.168  -2.994  -0.624  0.00  0.00    +0.003 C 
ATOM     11  C   UNL     1      -6.237  -1.978  -1.032  0.00  0.00    +0.000 C 
ATOM     12  C   UNL     1      -5.894  -0.610  -0.441  0.00  0.00    +0.003 C 
ATOM     13  C   UNL     1      -4.535  -0.150  -0.977  0.00  0.00    +0.035 C 
ENDROOT
BRANCH   5  14
ATOM     14  C   UNL     1       0.050  -0.146  -0.004  0.00  0.00    +0.213 C 
BRANCH  14  15
ATOM     15  C   UNL     1       0.118   1.357   0.095  0.00  0.00    +0.231 C 
ATOM     16  O   UNL     1      -0.903   2.007   0.165  0.00  0.00    -0.274 OA
ATOM     17  N   UNL     1       1.314   1.978   0.101  0.00  0.00    -0.311 N 
ATOM     18  H   UNL     1       2.240   1.389   0.033  0.00  0.00    +0.149 HD
BRANCH  17  19
ATOM     19  C   UNL     1       1.380   3.438   0.197  0.00  0.00    +0.073 C 
ATOM     20  C   UNL     1       1.234   4.049  -1.198  0.00  0.00    +0.022 C 
ATOM     21  C   UNL     1       0.906   5.537  -1.072  0.00  0.00    +0.002 C 
ATOM     22  C   UNL     1      -0.156   5.736   0.012  0.00  0.00    +0.000 C 
ATOM     23  C   UNL     1       0.457   6.490   1.194  0.00  0.00    +0.000 C 
ATOM     24  C   UNL     1       1.337   5.537   2.005  0.00  0.00    +0.000 C 
ATOM     25  C   UNL     1       2.655   5.304   1.263  0.00  0.00    +0.002 C 
ATOM     26  C   UNL     1       2.727   3.849   0.795  0.00  0.00    +0.022 C 
ENDBRANCH  17  19
ENDBRANCH  14  15
ENDBRANCH   5  14
TORSDOF 3
