REMARK  Name = ZINC66591676
REMARK  7 active torsions:
REMARK  status: ('A' for Active; 'I' for Inactive)
REMARK    1  A    between atoms: C_1  and  C_2
REMARK    2  A    between atoms: C_5  and  C_12
REMARK    3  A    between atoms: C_8  and  C_10
REMARK    4  A    between atoms: C_8  and  C_11
REMARK    5  A    between atoms: C_12  and  C_13
REMARK    6  A    between atoms: N_15  and  N_16
REMARK    7  A    between atoms: C_17  and  C_19
REMARK                            x       y       z     vdW  Elec       q    Type
REMARK                         _______ _______ _______ _____ _____    ______ ____
ROOT
ATOM      1  N   UNL     1      -6.354   0.304  -1.052  0.00  0.00    -0.229 N 
ATOM      2  C   UNL     1      -7.635  -0.013  -1.329  0.00  0.00    +0.281 C 
ATOM      3  O   UNL     1      -8.155  -0.970  -0.788  0.00  0.00    -0.267 OA
ATOM      4  H   UNL     1      -5.940   1.067  -1.483  0.00  0.00    +0.173 HD
ENDROOT
BRANCH   2   5
ATOM      5  C   UNL     1      -8.406   0.801  -2.288  0.00  0.00    +0.155 A 
ATOM      6  C   UNL     1      -9.807   0.466  -2.592  0.00  0.00    +0.020 A 
ATOM      7  C   UNL     1     -10.468  -0.609  -2.009  0.00  0.00    +0.011 A 
ATOM      8  C   UNL     1     -11.781  -0.859  -2.345  0.00  0.00    +0.001 A 
ATOM      9  C   UNL     1     -12.448  -0.052  -3.258  0.00  0.00    +0.001 A 
ATOM     10  C   UNL     1     -11.811   1.019  -3.848  0.00  0.00    +0.014 A 
ATOM     11  C   UNL     1     -10.486   1.289  -3.521  0.00  0.00    +0.050 A 
ATOM     12  C   UNL     1      -9.732   2.408  -4.103  0.00  0.00    +0.272 A 
ATOM     13  O   UNL     1     -10.252   3.157  -4.909  0.00  0.00    -0.266 OA
ATOM     14  N   UNL     1      -8.450   2.586  -3.723  0.00  0.00    -0.242 N 
ATOM     15  H   UNL     1      -7.955   3.326  -4.108  0.00  0.00    +0.192 HD
ATOM     16  N   UNL     1      -7.853   1.834  -2.876  0.00  0.00    -0.166 NA
ENDBRANCH   2   5
BRANCH   1  19
ATOM     17  C   UNL     1      -4.342  -0.152   0.136  0.00  0.00    +0.229 C 
ATOM     18  O   UNL     1      -3.824   0.803  -0.404  0.00  0.00    -0.274 OA
ATOM     19  N   UNL     1      -5.623  -0.469  -0.141  0.00  0.00    -0.234 N 
ATOM     20  H   UNL     1      -6.037  -1.232   0.291  0.00  0.00    +0.173 HD
BRANCH  17  21
ATOM     21  C   UNL     1      -3.555  -0.983   1.116  0.00  0.00    +0.101 C 
BRANCH  21  25
ATOM     22  C   UNL     1      -0.019   1.524   0.010  0.00  0.00    +0.007 C 
ATOM     23  C   UNL     1       0.002  -0.004   0.002  0.00  0.00    -0.013 C 
ATOM     24  C   UNL     1      -1.412  -0.559  -0.088  0.00  0.00    +0.007 C 
ATOM     25  C   UNL     1      -2.138  -0.412   1.248  0.00  0.00    -0.001 C 
ATOM     26  C   UNL     1      -1.378  -1.199   2.313  0.00  0.00    +0.010 C 
ATOM     27  C   UNL     1       0.034  -0.651   2.488  0.00  0.00    -0.034 C 
ATOM     28  C   UNL     1       0.787  -0.561   1.172  0.00  0.00    +0.009 C 
ATOM     29  C   UNL     1       0.803  -1.619   3.413  0.00  0.00    +0.011 C 
ATOM     30  C   UNL     1      -0.015   0.710   3.188  0.00  0.00    +0.011 C 
ENDBRANCH  21  25
ENDBRANCH  17  21
ENDBRANCH   1  19
TORSDOF 4
