REMARK  Name = ZINC08164265
REMARK  13 active torsions:
REMARK  status: ('A' for Active; 'I' for Inactive)
REMARK    1  A    between atoms: C_1  and  C_2
REMARK    2  A    between atoms: C_2  and  N_3
REMARK    3  A    between atoms: C_7  and  S_24
REMARK    4  A    between atoms: C_11  and  C_12
REMARK    5  A    between atoms: C_12  and  N_56
REMARK    6  A    between atoms: C_13  and  C_15
REMARK    7  A    between atoms: C_13  and  C_16
REMARK    8  A    between atoms: C_13  and  N_56
REMARK    9  A    between atoms: C_21  and  O_22
REMARK   10  A    between atoms: O_22  and  C_23
REMARK   11  A    between atoms: S_24  and  N_27
REMARK   12  A    between atoms: N_27  and  C_28
REMARK   13  A    between atoms: N_27  and  C_29
REMARK                            x       y       z     vdW  Elec       q    Type
REMARK                         _______ _______ _______ _____ _____    ______ ____
ROOT
ATOM      1  N   UNL     1      -2.416   0.844   3.939  0.00  0.00    -0.329 N 
ATOM      2  C   UNL     1      -2.710   1.524   5.103  0.00  0.00    +0.069 A 
ATOM      3  C   UNL     1      -3.819   1.582   5.936  0.00  0.00    +0.030 A 
ATOM      4  C   UNL     1      -3.791   2.385   7.056  0.00  0.00    +0.030 A 
ATOM      5  C   UNL     1      -2.662   3.135   7.356  0.00  0.00    +0.108 A 
ATOM      6  C   UNL     1      -1.561   3.090   6.549  0.00  0.00    +0.058 A 
ATOM      7  C   UNL     1      -1.567   2.283   5.408  0.00  0.00    +0.091 A 
ATOM      8  N   UNL     1      -0.653   2.028   4.437  0.00  0.00    -0.234 NA
ATOM      9  C   UNL     1      -1.152   1.190   3.575  0.00  0.00    +0.094 A 
ENDROOT
BRANCH   5  10
ATOM     10  S   UNL     1      -2.649   4.154   8.793  0.00  0.00    +0.060 S 
ATOM     11  O   UNL     1      -1.685   5.172   8.560  0.00  0.00    -0.153 OA
ATOM     12  O   UNL     1      -4.006   4.445   9.098  0.00  0.00    -0.153 OA
BRANCH  10  13
ATOM     13  N   UNL     1      -2.071   3.232  10.042  0.00  0.00    -0.183 NA
ATOM     14  C   UNL     1      -0.633   3.195  10.320  0.00  0.00    +0.131 C 
ATOM     15  C   UNL     1      -2.997   2.454  10.868  0.00  0.00    +0.131 C 
ENDBRANCH  10  13
ENDBRANCH   5  10
BRANCH   1  17
ATOM     16  C   UNL     1      -3.086  -1.501   3.753  0.00  0.00    +0.027 C 
ATOM     17  C   UNL     1      -3.302  -0.081   3.227  0.00  0.00    +0.120 C 
ENDBRANCH   1  17
BRANCH   9  18
ATOM     18  C   UNL     1      -0.432   0.673   2.357  0.00  0.00    -0.006 C 
BRANCH  18  19
ATOM     19  N   UNL     1      -0.707   1.568   1.217  0.00  0.00    +0.388 N 
ATOM     20  H   UNL     1      -0.377   2.514   1.442  0.00  0.00    -0.084 HD
ATOM     21  H   UNL     1      -1.718   1.591   1.041  0.00  0.00    -0.084 HD
BRANCH  19  22
ATOM     22  C   UNL     1      -0.013   1.086   0.008  0.00  0.00    -0.040 C 
ATOM     23  C   UNL     1       1.423   1.615  -0.003  0.00  0.00    -0.009 C 
BRANCH  22  24
ATOM     24  C   UNL     1      -0.742   1.585  -1.213  0.00  0.00    -0.020 A 
ATOM     25  C   UNL     1      -1.518   2.725  -1.137  0.00  0.00    +0.005 A 
ATOM     26  C   UNL     1      -2.183   3.186  -2.257  0.00  0.00    +0.000 A 
ATOM     27  C   UNL     1      -2.082   2.502  -3.455  0.00  0.00    +0.004 A 
ATOM     28  C   UNL     1      -1.311   1.359  -3.535  0.00  0.00    +0.046 A 
ATOM     29  C   UNL     1      -0.638   0.897  -2.413  0.00  0.00    +0.122 A 
BRANCH  29  30
ATOM     30  O   UNL     1       0.121  -0.228  -2.489  0.00  0.00    -0.495 OA
ATOM     31  C   UNL     1       0.181  -0.885  -3.757  0.00  0.00    +0.277 C 
ENDBRANCH  29  30
ENDBRANCH  22  24
ENDBRANCH  19  22
ENDBRANCH  18  19
ENDBRANCH   9  18
TORSDOF 8
