REMARK  Name = ZINC67081841
REMARK  9 active torsions:
REMARK  status: ('A' for Active; 'I' for Inactive)
REMARK    1  A    between atoms: C_1  and  C_2
REMARK    2  A    between atoms: C_2  and  C_3
REMARK    3  A    between atoms: C_3  and  C_5
REMARK    4  A    between atoms: C_3  and  N_15
REMARK    5  A    between atoms: N_18  and  C_19
REMARK    6  A    between atoms: C_19  and  C_21
REMARK    7  A    between atoms: C_19  and  C_30
REMARK    8  A    between atoms: C_30  and  C_31
REMARK    9  A    between atoms: C_30  and  C_32
REMARK                            x       y       z     vdW  Elec       q    Type
REMARK                         _______ _______ _______ _____ _____    ______ ____
ROOT
ATOM      1  N   UNL     1       2.125  -0.091  -1.209  0.00  0.00    -0.290 N 
ATOM      2  C   UNL     1       2.487   1.134  -1.640  0.00  0.00    +0.301 C 
ATOM      3  O   UNL     1       1.647   1.901  -2.067  0.00  0.00    -0.253 OA
ATOM      4  N   UNL     1       3.781   1.508  -1.596  0.00  0.00    -0.289 N 
ATOM      5  H   UNL     1       2.795  -0.703  -0.868  0.00  0.00    +0.151 HD
ATOM      6  H   UNL     1       4.452   0.895  -1.255  0.00  0.00    +0.151 HD
ENDROOT
BRANCH   1   7
ATOM      7  C   UNL     1       0.718  -0.497  -1.257  0.00  0.00    +0.140 C 
BRANCH   7   8
ATOM      8  C   UNL     1       0.632  -2.000  -1.327  0.00  0.00    +0.129 A 
ATOM      9  N   UNL     1       0.142  -2.704  -2.384  0.00  0.00    -0.340 N 
ATOM     10  H   UNL     1      -0.206  -2.333  -3.210  0.00  0.00    +0.167 HD
ATOM     11  C   UNL     1       0.234  -4.043  -2.063  0.00  0.00    +0.066 A 
ATOM     12  C   UNL     1      -0.099  -5.220  -2.721  0.00  0.00    +0.028 A 
ATOM     13  C   UNL     1       0.127  -6.433  -2.105  0.00  0.00    +0.002 A 
ATOM     14  C   UNL     1       0.682  -6.485  -0.835  0.00  0.00    +0.002 A 
ATOM     15  C   UNL     1       1.015  -5.337  -0.172  0.00  0.00    +0.030 A 
ATOM     16  C   UNL     1       0.796  -4.096  -0.776  0.00  0.00    +0.089 A 
ATOM     17  N   UNL     1       1.019  -2.814  -0.389  0.00  0.00    -0.231 NA
ENDBRANCH   7   8
BRANCH   7  19
ATOM     18  C   UNL     1      -0.019   1.526   0.010  0.00  0.00    +0.006 C 
ATOM     19  C   UNL     1       0.002  -0.004   0.002  0.00  0.00    +0.027 C 
ENDBRANCH   7  19
ENDBRANCH   1   7
BRANCH   4  20
ATOM     20  C   UNL     1       4.176   2.839  -2.064  0.00  0.00    +0.145 C 
BRANCH  20  21
ATOM     21  C   UNL     1       5.457   3.251  -1.385  0.00  0.00    +0.158 A 
ATOM     22  N   UNL     1       6.520   2.507  -1.224  0.00  0.00    -0.132 NA
ATOM     23  N   UNL     1       7.436   3.166  -0.605  0.00  0.00    -0.129 NA
ATOM     24  C   UNL     1       6.997   4.384  -0.335  0.00  0.00    +0.161 A 
ATOM     25  N   UNL     1       5.720   4.467  -0.834  0.00  0.00    -0.285 N 
ATOM     26  C   UNL     1       5.003   5.620  -0.710  0.00  0.00    +0.094 A 
ATOM     27  C   UNL     1       5.537   6.697  -0.098  0.00  0.00    +0.018 A 
ATOM     28  C   UNL     1       6.842   6.644   0.421  0.00  0.00    +0.005 A 
ATOM     29  C   UNL     1       7.567   5.498   0.311  0.00  0.00    +0.048 A 
ENDBRANCH  20  21
BRANCH  20  30
ATOM     30  C   UNL     1       4.389   2.805  -3.578  0.00  0.00    +0.011 C 
ATOM     31  C   UNL     1       4.800   4.195  -4.067  0.00  0.00    +0.009 C 
ATOM     32  C   UNL     1       5.491   1.799  -3.916  0.00  0.00    +0.009 C 
ENDBRANCH  20  30
ENDBRANCH   4  20
TORSDOF 6
