REMARK  Name = ZINC12023874
REMARK  6 active torsions:
REMARK  status: ('A' for Active; 'I' for Inactive)
REMARK    1  A    between atoms: C_1  and  C_2
REMARK    2  A    between atoms: C_2  and  N_66
REMARK    3  A    between atoms: C_6  and  C_8
REMARK    4  A    between atoms: C_8  and  N_9
REMARK    5  A    between atoms: C_10  and  C_12
REMARK    6  A    between atoms: C_16  and  C_17
REMARK                            x       y       z     vdW  Elec       q    Type
REMARK                         _______ _______ _______ _____ _____    ______ ____
ROOT
ATOM      1  C   UNL     1       1.191   2.404   0.469  0.00  0.00    +0.078 A 
ATOM      2  C   UNL     1       0.198   1.421   0.250  0.00  0.00    +0.148 A 
ATOM      3  N   UNL     1      -0.964   2.013   0.240  0.00  0.00    -0.171 NA
ATOM      4  N   UNL     1      -0.776   3.383   0.458  0.00  0.00    -0.201 N 
ATOM      5  C   UNL     1       0.543   3.616   0.593  0.00  0.00    +0.063 A 
ATOM      6  C   UNL     1      -1.785   4.344   0.518  0.00  0.00    +0.252 A 
ATOM      7  N   UNL     1      -1.451   5.621   0.616  0.00  0.00    -0.219 NA
ATOM      8  C   UNL     1      -2.375   6.569   0.685  0.00  0.00    +0.120 A 
ATOM      9  C   UNL     1      -3.705   6.204   0.654  0.00  0.00    -0.003 A 
ATOM     10  C   UNL     1      -4.026   4.850   0.533  0.00  0.00    +0.080 A 
ATOM     11  N   UNL     1      -3.050   3.954   0.472  0.00  0.00    -0.210 NA
ATOM     12  C   UNL     1      -5.452   4.460   0.459  0.00  0.00    +0.004 A 
ATOM     13  C   UNL     1      -5.964   3.441   1.255  0.00  0.00    +0.010 A 
ATOM     14  C   UNL     1      -7.305   3.120   1.175  0.00  0.00    +0.001 A 
ATOM     15  C   UNL     1      -8.133   3.812   0.310  0.00  0.00    +0.000 A 
ATOM     16  C   UNL     1      -7.626   4.821  -0.490  0.00  0.00    +0.004 A 
ATOM     17  C   UNL     1      -6.286   5.141  -0.428  0.00  0.00    -0.038 A 
ATOM     18  C   UNL     1      -5.702   6.192  -1.330  0.00  0.00    +0.036 C 
ATOM     19  C   UNL     1      -5.452   7.494  -0.576  0.00  0.00    +0.009 C 
ATOM     20  C   UNL     1      -4.805   7.219   0.779  0.00  0.00    +0.039 C 
ENDROOT
BRANCH   1  22
ATOM     21  N   UNL     1       3.141   0.932   0.406  0.00  0.00    -0.313 N 
ATOM     22  C   UNL     1       2.645   2.177   0.547  0.00  0.00    +0.247 C 
ATOM     23  O   UNL     1       3.397   3.113   0.740  0.00  0.00    -0.270 OA
ATOM     24  H   UNL     1       2.541   0.185   0.252  0.00  0.00    +0.149 HD
BRANCH  21  25
ATOM     25  C   UNL     1       4.587   0.706   0.484  0.00  0.00    +0.089 C 
BRANCH  25  29
ATOM     26  C   UNL     1       6.437  -2.457   0.960  0.00  0.00    -0.078 C 
ATOM     27  C   UNL     1       5.316  -2.603   2.012  0.00  0.00    -0.020 C 
ATOM     28  C   UNL     1       4.287  -1.510   1.656  0.00  0.00    -0.016 C 
ATOM     29  C   UNL     1       4.873  -0.796   0.419  0.00  0.00    -0.051 C 
ATOM     30  N   UNL     1       6.310  -1.071   0.512  0.00  0.00    +0.382 N 
ATOM     31  H   UNL     1       6.746  -0.441   1.196  0.00  0.00    -0.081 HD
BRANCH  30  33
ATOM     32  C   UNL     1       8.486  -0.985  -0.674  0.00  0.00    -0.017 C 
ATOM     33  C   UNL     1       6.967  -0.880  -0.821  0.00  0.00    -0.082 C 
ENDBRANCH  30  33
ENDBRANCH  25  29
ENDBRANCH  21  25
ENDBRANCH   1  22
BRANCH   5  34
ATOM     34  C   UNL     1       1.193   4.954   0.837  0.00  0.00    +0.039 C 
ATOM     35  C   UNL     1       2.205   5.051   1.980  0.00  0.00    +0.010 C 
ATOM     36  C   UNL     1       0.824   5.695   2.123  0.00  0.00    +0.010 C 
ENDBRANCH   5  34
TORSDOF 5
