REMARK  Name = ZINC05842064
REMARK  13 active torsions:
REMARK  status: ('A' for Active; 'I' for Inactive)
REMARK    1  A    between atoms: C_1  and  C_2
REMARK    2  A    between atoms: C_2  and  C_3
REMARK    3  A    between atoms: C_4  and  C_30
REMARK    4  A    between atoms: N_6  and  C_7
REMARK    5  A    between atoms: C_7  and  C_9
REMARK    6  A    between atoms: C_9  and  N_58
REMARK    7  A    between atoms: C_10  and  C_11
REMARK    8  A    between atoms: C_10  and  N_58
REMARK    9  A    between atoms: C_11  and  C_12
REMARK   10  A    between atoms: C_15  and  O_20
REMARK   11  A    between atoms: C_16  and  O_18
REMARK   12  A    between atoms: O_18  and  C_19
REMARK   13  A    between atoms: O_20  and  C_21
REMARK                            x       y       z     vdW  Elec       q    Type
REMARK                         _______ _______ _______ _____ _____    ______ ____
ROOT
ATOM      1  C   UNL     1      -2.862   2.561   0.745  0.00  0.00    +0.220 C 
ATOM      2  O   UNL     1      -2.603   1.387   0.559  0.00  0.00    -0.276 OA
ENDROOT
BRANCH   1   6
ATOM      3  C   UNL     1      -1.302   3.396  -2.943  0.00  0.00    +0.021 A 
ATOM      4  C   UNL     1      -1.892   3.158  -1.749  0.00  0.00    -0.008 A 
ATOM      5  C   UNL     1      -1.345   3.704  -0.569  0.00  0.00    +0.070 A 
ATOM      6  N   UNL     1      -1.910   3.477   0.625  0.00  0.00    -0.182 NA
ATOM      7  C   UNL     1      -0.138   4.535  -0.692  0.00  0.00    +0.022 A 
ATOM      8  C   UNL     1       0.465   5.117   0.425  0.00  0.00    +0.012 A 
ATOM      9  C   UNL     1       1.586   5.881   0.267  0.00  0.00    +0.001 A 
ATOM     10  C   UNL     1       2.131   6.085  -0.994  0.00  0.00    +0.002 A 
ATOM     11  C   UNL     1       1.552   5.521  -2.110  0.00  0.00    +0.026 A 
ATOM     12  C   UNL     1       0.409   4.738  -1.973  0.00  0.00    +0.048 A 
ATOM     13  N   UNL     1      -0.193   4.159  -3.066  0.00  0.00    -0.358 N 
ATOM     14  H   UNL     1       0.188   4.302  -3.947  0.00  0.00    +0.166 HD
ATOM     15  C   UNL     1      -3.131   2.303  -1.679  0.00  0.00    +0.047 C 
BRANCH   3  17
ATOM     16  C   UNL     1      -1.408   1.356  -4.350  0.00  0.00    +0.010 C 
ATOM     17  C   UNL     1      -1.909   2.792  -4.184  0.00  0.00    +0.050 C 
ENDBRANCH   3  17
ENDBRANCH   1   6
BRANCH   1  18
ATOM     18  C   UNL     1      -4.264   2.975   1.110  0.00  0.00    +0.017 C 
BRANCH  18  19
ATOM     19  N   UNL     1      -5.120   1.776   1.178  0.00  0.00    +0.385 N 
ATOM     20  H   UNL     1      -4.749   1.135   1.889  0.00  0.00    -0.085 HD
ATOM     21  H   UNL     1      -5.122   1.309   0.263  0.00  0.00    -0.085 HD
BRANCH  19  22
ATOM     22  C   UNL     1      -6.501   2.152   1.535  0.00  0.00    -0.077 C 
BRANCH  22  23
ATOM     23  C   UNL     1      -7.364   0.890   1.597  0.00  0.00    +0.016 C 
BRANCH  23  24
ATOM     24  C   UNL     1      -8.777   1.265   1.961  0.00  0.00    -0.045 A 
ATOM     25  C   UNL     1      -9.160   1.307   3.289  0.00  0.00    +0.007 A 
ATOM     26  C   UNL     1     -10.453   1.656   3.628  0.00  0.00    +0.049 A 
ATOM     27  C   UNL     1     -11.373   1.954   2.636  0.00  0.00    +0.161 A 
ATOM     28  C   UNL     1     -10.990   1.907   1.299  0.00  0.00    +0.162 A 
ATOM     29  C   UNL     1      -9.690   1.562   0.966  0.00  0.00    +0.053 A 
BRANCH  28  30
ATOM     30  O   UNL     1     -11.889   2.199   0.322  0.00  0.00    -0.491 OA
ATOM     31  C   UNL     1     -11.426   2.130  -1.028  0.00  0.00    +0.277 C 
ENDBRANCH  28  30
BRANCH  27  32
ATOM     32  O   UNL     1     -12.648   2.292   2.968  0.00  0.00    -0.491 OA
ATOM     33  C   UNL     1     -12.970   2.321   4.360  0.00  0.00    +0.277 C 
ENDBRANCH  27  32
ENDBRANCH  23  24
ENDBRANCH  22  23
ENDBRANCH  19  22
ENDBRANCH  18  19
ENDBRANCH   1  18
TORSDOF 9
