REMARK  Name = ZINC21494558
REMARK  7 active torsions:
REMARK  status: ('A' for Active; 'I' for Inactive)
REMARK    1  A    between atoms: C_1  and  C_2
REMARK    2  A    between atoms: C_2  and  C_4
REMARK    3  A    between atoms: C_2  and  S_10
REMARK    4  A    between atoms: S_10  and  C_11
REMARK    5  A    between atoms: C_15  and  C_24
REMARK    6  A    between atoms: N_20  and  C_21
REMARK    7  A    between atoms: C_21  and  C_22
REMARK                            x       y       z     vdW  Elec       q    Type
REMARK                         _______ _______ _______ _____ _____    ______ ____
ROOT
ATOM      1  C   UNL     1       1.675   1.838   2.550  0.00  0.00    +0.173 A 
ATOM      2  N   UNL     1       1.829   2.622   1.517  0.00  0.00    -0.222 NA
ATOM      3  C   UNL     1       2.989   3.327   1.311  0.00  0.00    +0.087 A 
ATOM      4  C   UNL     1       3.298   4.202   0.264  0.00  0.00    +0.044 A 
ATOM      5  C   UNL     1       4.516   4.812   0.225  0.00  0.00    +0.022 A 
ATOM      6  S   UNL     1       5.319   4.180   1.688  0.00  0.00    -0.081 S 
ATOM      7  C   UNL     1       4.002   3.145   2.271  0.00  0.00    +0.103 A 
ATOM      8  C   UNL     1       3.826   2.301   3.365  0.00  0.00    +0.269 A 
ATOM      9  O   UNL     1       4.714   2.152   4.189  0.00  0.00    -0.266 OA
ATOM     10  N   UNL     1       2.646   1.649   3.491  0.00  0.00    -0.283 N 
ENDROOT
BRANCH   5  11
ATOM     11  C   UNL     1       5.041   5.762  -0.780  0.00  0.00    -0.011 A 
ATOM     12  C   UNL     1       4.254   6.135  -1.870  0.00  0.00    +0.009 A 
ATOM     13  C   UNL     1       4.747   7.027  -2.800  0.00  0.00    +0.001 A 
ATOM     14  C   UNL     1       6.025   7.540  -2.661  0.00  0.00    +0.000 A 
ATOM     15  C   UNL     1       6.813   7.169  -1.586  0.00  0.00    +0.001 A 
ATOM     16  C   UNL     1       6.329   6.284  -0.645  0.00  0.00    +0.009 A 
ENDBRANCH   5  11
BRANCH   1  17
ATOM     17  S   UNL     1       0.147   0.980   2.733  0.00  0.00    -0.075 S 
BRANCH  17  19
ATOM     18  C   UNL     1      -0.013   1.086   0.008  0.00  0.00    +0.029 C 
ATOM     19  C   UNL     1      -0.729   1.579   1.267  0.00  0.00    +0.137 C 
BRANCH  19  20
ATOM     20  C   UNL     1      -2.143   1.058   1.278  0.00  0.00    +0.233 C 
ATOM     21  O   UNL     1      -2.427   0.090   1.950  0.00  0.00    -0.274 OA
ATOM     22  N   UNL     1      -3.091   1.667   0.539  0.00  0.00    -0.239 N 
ATOM     23  C   UNL     1      -4.356   1.201   0.549  0.00  0.00    +0.303 C 
ATOM     24  O   UNL     1      -4.641   0.230   1.223  0.00  0.00    -0.253 OA
ATOM     25  N   UNL     1      -5.305   1.810  -0.189  0.00  0.00    -0.313 N 
ATOM     26  H   UNL     1      -2.834   2.546  -0.071  0.00  0.00    +0.159 HD
ATOM     27  H   UNL     1      -6.337   1.430  -0.181  0.00  0.00    +0.146 HD
ATOM     28  H   UNL     1      -5.047   2.689  -0.799  0.00  0.00    +0.146 HD
ENDBRANCH  19  20
ENDBRANCH  17  19
ENDBRANCH   1  17
BRANCH  10  29
ATOM     29  C   UNL     1       2.414   0.750   4.624  0.00  0.00    +0.154 C 
BRANCH  29  30
ATOM     30  C   UNL     1       2.854  -0.644   4.258  0.00  0.00    -0.013 C 
ATOM     31  C   UNL     1       3.721  -1.275   5.010  0.00  0.00    +0.005 C 
ENDBRANCH  29  30
ENDBRANCH  10  29
TORSDOF 6
