REMARK  Name = ZINC06963489
REMARK  5 active torsions:
REMARK  status: ('A' for Active; 'I' for Inactive)
REMARK    1  A    between atoms: C_1  and  C_2
REMARK    2  A    between atoms: C_4  and  N_26
REMARK    3  A    between atoms: C_9  and  C_18
REMARK    4  A    between atoms: C_22  and  O_24
REMARK    5  A    between atoms: O_24  and  C_25
REMARK                            x       y       z     vdW  Elec       q    Type
REMARK                         _______ _______ _______ _____ _____    ______ ____
ROOT
ATOM      1  C   UNL     1       3.726  -0.675  -0.025  0.00  0.00    +0.046 C 
ATOM      2  C   UNL     1       2.401   0.043  -0.017  0.00  0.00    -0.027 A 
ATOM      3  C   UNL     1       2.373   1.420  -0.008  0.00  0.00    +0.038 A 
ATOM      4  C   UNL     1       1.165   2.092   0.002  0.00  0.00    +0.127 A 
ATOM      5  C   UNL     1      -0.017   1.374   0.010  0.00  0.00    +0.038 A 
ATOM      6  C   UNL     1       0.002  -0.004   0.002  0.00  0.00    -0.017 A 
ATOM      7  C   UNL     1       1.216  -0.696  -0.019  0.00  0.00    +0.034 A 
ATOM      8  N   UNL     1       1.323  -2.085  -0.053  0.00  0.00    -0.336 N 
ATOM      9  C   UNL     1       0.068  -2.848   0.032  0.00  0.00    +0.105 C 
ATOM     10  C   UNL     1      -0.964  -2.101  -0.786  0.00  0.00    +0.029 C 
ATOM     11  C   UNL     1      -1.245  -0.799   0.029  0.00  0.00    +0.049 C 
ATOM     12  C   UNL     1      -2.519  -0.309  -0.551  0.00  0.00    -0.023 C 
ATOM     13  C   UNL     1      -3.203  -1.351  -1.010  0.00  0.00    -0.030 C 
ATOM     14  C   UNL     1      -2.400  -2.637  -0.797  0.00  0.00    +0.033 C 
ATOM     15  H   UNL     1       1.876  -2.385  -0.842  0.00  0.00    +0.147 HD
ENDROOT
BRANCH   9  16
ATOM     16  C   UNL     1       0.268  -4.231  -0.533  0.00  0.00    -0.024 A 
ATOM     17  C   UNL     1       1.074  -4.414  -1.642  0.00  0.00    +0.006 A 
ATOM     18  C   UNL     1       1.259  -5.681  -2.163  0.00  0.00    +0.004 A 
ATOM     19  C   UNL     1       0.640  -6.768  -1.576  0.00  0.00    +0.045 A 
ATOM     20  C   UNL     1      -0.167  -6.587  -0.463  0.00  0.00    +0.120 A 
ATOM     21  C   UNL     1      -0.348  -5.315   0.061  0.00  0.00    +0.051 A 
BRANCH  20  22
ATOM     22  O   UNL     1      -0.777  -7.654   0.117  0.00  0.00    -0.495 OA
ATOM     23  C   UNL     1      -0.541  -8.935  -0.473  0.00  0.00    +0.277 C 
ENDBRANCH  20  22
ENDBRANCH   9  16
BRANCH   4  24
ATOM     24  N   UNL     1       1.137   3.572   0.005  0.00  0.00    +0.056 N 
ATOM     25  O   UNL     1       0.070   4.160   0.013  0.00  0.00    -0.126 OA
ATOM     26  O   UNL     1       2.180   4.201  -0.002  0.00  0.00    -0.126 OA
ENDBRANCH   4  24
TORSDOF 3
