REMARK  Name = ZINC39633371
REMARK  4 active torsions:
REMARK  status: ('A' for Active; 'I' for Inactive)
REMARK    1  A    between atoms: C_5  and  N_8
REMARK    2  A    between atoms: C_9  and  C_11
REMARK    3  A    between atoms: C_22  and  C_24
REMARK    4  A    between atoms: C_30  and  C_32
REMARK                            x       y       z     vdW  Elec       q    Type
REMARK                         _______ _______ _______ _____ _____    ______ ____
ROOT
ATOM      1  C   UNL     1       3.466  -4.074   1.665  0.00  0.00    +0.100 C 
ATOM      2  C   UNL     1       4.993  -3.874   1.792  0.00  0.00    +0.121 C 
ATOM      3  N   UNL     1       5.570  -5.212   1.523  0.00  0.00    -0.299 N 
ATOM      4  C   UNL     1       4.739  -5.758   0.423  0.00  0.00    +0.115 C 
ATOM      5  C   UNL     1       3.304  -5.311   0.764  0.00  0.00    -0.004 C 
ATOM      6  C   UNL     1       2.550  -4.942  -0.509  0.00  0.00    -0.010 C 
ATOM      7  C   UNL     1       2.349  -6.199  -1.361  0.00  0.00    -0.082 C 
ATOM      8  N   UNL     1       1.595  -7.197  -0.593  0.00  0.00    +0.379 N 
ATOM      9  C   UNL     1       2.369  -7.615   0.582  0.00  0.00    -0.082 C 
ATOM     10  C   UNL     1       2.571  -6.418   1.515  0.00  0.00    -0.010 C 
ATOM     11  C   UNL     1       6.613  -5.801   2.140  0.00  0.00    +0.236 C 
ATOM     12  O   UNL     1       6.970  -6.910   1.804  0.00  0.00    -0.274 OA
ATOM     13  H   UNL     1       0.719  -6.796  -0.292  0.00  0.00    -0.086 HD
ATOM     14  H   UNL     1       1.411  -8.000  -1.177  0.00  0.00    -0.086 HD
ENDROOT
BRANCH  11  15
ATOM     15  C   UNL     1       7.338  -5.081   3.249  0.00  0.00    +0.162 C 
ATOM     16  C   UNL     1       8.331  -4.063   2.651  0.00  0.00    +0.033 C 
ATOM     17  C   UNL     1       9.554  -4.173   3.600  0.00  0.00    +0.021 C 
ATOM     18  C   UNL     1       9.547  -5.683   3.943  0.00  0.00    +0.109 C 
ATOM     19  N   UNL     1       8.117  -6.042   4.043  0.00  0.00    -0.283 N 
ATOM     20  C   UNL     1       7.610  -7.075   4.745  0.00  0.00    +0.320 C 
ATOM     21  O   UNL     1       6.414  -7.273   4.754  0.00  0.00    -0.266 OA
BRANCH  20  22
ATOM     22  C   UNL     1       8.530  -7.984   5.518  0.00  0.00    +0.470 C 
ATOM     23  F   UNL     1       7.778  -8.974   6.159  0.00  0.00    -0.162 F 
ATOM     24  F   UNL     1       9.438  -8.585   4.639  0.00  0.00    -0.162 F 
ATOM     25  F   UNL     1       9.229  -7.238   6.472  0.00  0.00    -0.162 F 
ENDBRANCH  20  22
ENDBRANCH  11  15
BRANCH   1  27
ATOM     26  N   UNL     1       1.557  -2.542   1.312  0.00  0.00    -0.312 N 
ATOM     27  C   UNL     1       2.831  -2.869   1.020  0.00  0.00    +0.218 C 
ATOM     28  O   UNL     1       3.467  -2.194   0.239  0.00  0.00    -0.275 OA
ATOM     29  H   UNL     1       1.048  -3.082   1.937  0.00  0.00    +0.149 HD
BRANCH  26  34
ATOM     30  C   UNL     1      -0.429   0.443  -1.471  0.00  0.00    +0.000 C 
ATOM     31  C   UNL     1      -0.470   1.045  -0.052  0.00  0.00    +0.000 C 
ATOM     32  C   UNL     1      -1.174   0.076   0.859  0.00  0.00    +0.002 C 
ATOM     33  C   UNL     1      -0.195  -0.859   1.595  0.00  0.00    +0.022 C 
ATOM     34  C   UNL     1       0.939  -1.370   0.686  0.00  0.00    +0.073 C 
ATOM     35  C   UNL     1       0.451  -1.752  -0.685  0.00  0.00    +0.022 C 
ATOM     36  C   UNL     1       0.631  -0.542  -1.625  0.00  0.00    +0.002 C 
ENDBRANCH  26  34
ENDBRANCH   1  27
TORSDOF 4
