REMARK  Name = ZINC20058983
REMARK  5 active torsions:
REMARK  status: ('A' for Active; 'I' for Inactive)
REMARK    1  A    between atoms: C_1  and  C_2
REMARK    2  A    between atoms: C_3  and  C_27
REMARK    3  A    between atoms: C_4  and  C_20
REMARK    4  A    between atoms: C_9  and  C_14
REMARK    5  A    between atoms: C_23  and  O_26
REMARK                            x       y       z     vdW  Elec       q    Type
REMARK                         _______ _______ _______ _____ _____    ______ ____
ROOT
ATOM      1  C   UNL     1      -0.018   1.502   0.014  0.00  0.00    +0.066 C 
ATOM      2  C   UNL     1       0.002  -0.004   0.001  0.00  0.00    +0.048 C 
ATOM      3  C   UNL     1      -1.184  -0.672   0.002  0.00  0.00    +0.047 C 
ATOM      4  C   UNL     1      -1.133  -2.189  -0.013  0.00  0.00    +0.091 C 
ATOM      5  C   UNL     1       0.255  -2.801  -0.028  0.00  0.00    +0.028 C 
ATOM      6  C   UNL     1       0.405  -4.137  -0.045  0.00  0.00    +0.163 C 
ATOM      7  C   UNL     1       1.772  -4.769  -0.059  0.00  0.00    +0.091 C 
ATOM      8  C   UNL     1       2.756  -3.830  -0.761  0.00  0.00    +0.068 C 
ATOM      9  C   UNL     1       2.756  -2.480  -0.038  0.00  0.00    +0.067 C 
ATOM     10  C   UNL     1       1.352  -1.924  -0.025  0.00  0.00    +0.050 C 
ATOM     11  N   UNL     1       1.175  -0.623  -0.017  0.00  0.00    -0.256 NA
ATOM     12  O   UNL     1      -0.687  -4.925  -0.049  0.00  0.00    -0.292 OA
ENDROOT
BRANCH   3  13
ATOM     13  C   UNL     1      -2.414   0.019   0.016  0.00  0.00    +0.248 C 
ATOM     14  O   UNL     1      -2.428   1.237   0.028  0.00  0.00    -0.270 OA
ATOM     15  N   UNL     1      -3.574  -0.668   0.017  0.00  0.00    -0.267 N 
ATOM     16  C   UNL     1      -4.785   0.010   0.133  0.00  0.00    +0.125 A 
ATOM     17  C   UNL     1      -5.970  -0.710   0.239  0.00  0.00    +0.044 A 
ATOM     18  C   UNL     1      -7.166  -0.024   0.354  0.00  0.00    +0.005 A 
ATOM     19  C   UNL     1      -7.136   1.364   0.358  0.00  0.00    +0.020 A 
ATOM     20  C   UNL     1      -5.923   2.014   0.249  0.00  0.00    +0.113 A 
ATOM     21  N   UNL     1      -4.797   1.333   0.147  0.00  0.00    -0.240 NA
ATOM     22  H   UNL     1      -3.565  -1.635  -0.063  0.00  0.00    +0.157 HD
ENDBRANCH   3  13
BRANCH   4  23
ATOM     23  C   UNL     1      -1.871  -2.675  -1.234  0.00  0.00    -0.035 A 
ATOM     24  C   UNL     1      -1.443  -2.300  -2.494  0.00  0.00    +0.008 A 
ATOM     25  C   UNL     1      -2.118  -2.742  -3.615  0.00  0.00    +0.046 A 
ATOM     26  C   UNL     1      -3.227  -3.565  -3.475  0.00  0.00    +0.117 A 
ATOM     27  C   UNL     1      -3.654  -3.940  -2.210  0.00  0.00    +0.046 A 
ATOM     28  C   UNL     1      -2.973  -3.499  -1.093  0.00  0.00    +0.008 A 
BRANCH  26  29
ATOM     29  O   UNL     1      -3.893  -4.001  -4.576  0.00  0.00    -0.507 OA
ATOM     30  H   UNL     1      -3.562  -4.839  -4.929  0.00  0.00    +0.292 HD
ENDBRANCH  26  29
ENDBRANCH   4  23
BRANCH   8  31
ATOM     31  C   UNL     1       4.140  -4.426  -0.722  0.00  0.00    +0.109 A 
ATOM     32  C   UNL     1       4.892  -4.740  -1.791  0.00  0.00    +0.045 A 
ATOM     33  C   UNL     1       6.107  -5.269  -1.297  0.00  0.00    +0.041 A 
ATOM     34  C   UNL     1       6.024  -5.246   0.046  0.00  0.00    +0.195 A 
ATOM     35  O   UNL     1       4.832  -4.729   0.388  0.00  0.00    -0.468 OA
ENDBRANCH   8  31
TORSDOF 4
