REMARK  Name = ZINC36028099
REMARK  10 active torsions:
REMARK  status: ('A' for Active; 'I' for Inactive)
REMARK    1  A    between atoms: C_1  and  C_2
REMARK    2  A    between atoms: C_2  and  C_3
REMARK    3  A    between atoms: C_3  and  C_5
REMARK    4  A    between atoms: C_3  and  C_6
REMARK    5  A    between atoms: N_10  and  C_28
REMARK    6  A    between atoms: N_15  and  S_18
REMARK    7  A    between atoms: S_18  and  C_21
REMARK    8  A    between atoms: C_24  and  C_27
REMARK    9  A    between atoms: C_28  and  C_29
REMARK   10  A    between atoms: C_33  and  C_35
REMARK                            x       y       z     vdW  Elec       q    Type
REMARK                         _______ _______ _______ _____ _____    ______ ____
ROOT
ATOM      1  C   UNL     1       1.216  -3.650  -1.589  0.00  0.00    +0.022 C 
ATOM      2  C   UNL     1       1.784  -3.867  -0.203  0.00  0.00    +0.201 C 
ATOM      3  O   UNL     1       1.240  -3.573   0.840  0.00  0.00    -0.277 OA
ATOM      4  N   UNL     1       2.998  -4.443  -0.324  0.00  0.00    -0.309 N 
ATOM      5  C   UNL     1       3.305  -4.645  -1.742  0.00  0.00    +0.006 C 
ATOM      6  N   UNL     1       2.379  -3.776  -2.501  0.00  0.00    +0.401 N 
ATOM      7  C   UNL     1       3.073  -6.105  -2.130  0.00  0.00    +0.023 C 
ATOM      8  C   UNL     1       4.007  -7.002  -1.311  0.00  0.00    +0.109 C 
ATOM      9  N   UNL     1       5.388  -6.534  -1.489  0.00  0.00    -0.177 NA
ATOM     10  C   UNL     1       5.698  -5.124  -1.214  0.00  0.00    +0.109 C 
ATOM     11  C   UNL     1       4.750  -4.242  -2.033  0.00  0.00    +0.023 C 
ATOM     12  H   UNL     1       2.107  -4.213  -3.368  0.00  0.00    -0.082 HD
ATOM     13  H   UNL     1       2.798  -2.873  -2.671  0.00  0.00    -0.082 HD
ENDROOT
BRANCH   9  14
ATOM     14  S   UNL     1       6.574  -7.576  -1.990  0.00  0.00    +0.061 S 
ATOM     15  O   UNL     1       7.814  -6.977  -1.640  0.00  0.00    -0.153 OA
ATOM     16  O   UNL     1       6.197  -8.868  -1.536  0.00  0.00    -0.153 OA
BRANCH  14  17
ATOM     17  C   UNL     1       6.516  -7.623  -3.750  0.00  0.00    +0.105 A 
ATOM     18  C   UNL     1       5.712  -8.548  -4.390  0.00  0.00    +0.029 A 
ATOM     19  C   UNL     1       5.666  -8.585  -5.771  0.00  0.00    +0.005 A 
ATOM     20  C   UNL     1       6.425  -7.698  -6.512  0.00  0.00    -0.050 A 
ATOM     21  C   UNL     1       7.229  -6.774  -5.872  0.00  0.00    +0.005 A 
ATOM     22  C   UNL     1       7.271  -6.733  -4.491  0.00  0.00    +0.029 A 
ATOM     23  C   UNL     1       6.376  -7.740  -8.018  0.00  0.00    +0.044 C 
ENDBRANCH  14  17
ENDBRANCH   9  14
BRANCH   1  24
ATOM     24  C   UNL     1       0.602  -2.253  -1.700  0.00  0.00    -0.020 C 
ATOM     25  C   UNL     1       0.101  -2.028  -3.128  0.00  0.00    +0.006 C 
BRANCH  24  27
ATOM     26  C   UNL     1      -1.106  -0.700  -0.744  0.00  0.00    +0.004 C 
ATOM     27  C   UNL     1      -0.571  -2.133  -0.724  0.00  0.00    -0.001 C 
ENDBRANCH  24  27
ENDBRANCH   1  24
BRANCH   4  28
ATOM     28  C   UNL     1       3.875  -4.809   0.792  0.00  0.00    +0.141 C 
BRANCH  28  29
ATOM     29  C   UNL     1       4.607  -3.585   1.278  0.00  0.00    -0.030 A 
ATOM     30  C   UNL     1       5.553  -2.980   0.473  0.00  0.00    +0.005 A 
ATOM     31  C   UNL     1       6.224  -1.857   0.919  0.00  0.00    +0.001 A 
ATOM     32  C   UNL     1       5.949  -1.339   2.171  0.00  0.00    +0.012 A 
ATOM     33  C   UNL     1       5.003  -1.944   2.977  0.00  0.00    +0.055 A 
ATOM     34  C   UNL     1       4.328  -3.065   2.528  0.00  0.00    +0.017 A 
BRANCH  33  35
ATOM     35  C   UNL     1       4.704  -1.381   4.342  0.00  0.00    +0.417 C 
ATOM     36  F   UNL     1       5.815  -0.669   4.806  0.00  0.00    -0.166 F 
ATOM     37  F   UNL     1       3.602  -0.523   4.260  0.00  0.00    -0.166 F 
ATOM     38  F   UNL     1       4.416  -2.426   5.225  0.00  0.00    -0.166 F 
ENDBRANCH  33  35
ENDBRANCH  28  29
ENDBRANCH   4  28
TORSDOF 7
