REMARK  Name = ZINC01791043
REMARK  10 active torsions:
REMARK  status: ('A' for Active; 'I' for Inactive)
REMARK    1  A    between atoms: C_1  and  C_2
REMARK    2  A    between atoms: C_2  and  C_4
REMARK    3  A    between atoms: C_2  and  S_13
REMARK    4  A    between atoms: N_6  and  C_7
REMARK    5  A    between atoms: S_13  and  C_14
REMARK    6  A    between atoms: C_26  and  C_29
REMARK    7  A    between atoms: C_29  and  C_30
REMARK    8  A    between atoms: C_29  and  C_31
REMARK    9  A    between atoms: N_34  and  C_35
REMARK   10  A    between atoms: C_35  and  C_36
REMARK                            x       y       z     vdW  Elec       q    Type
REMARK                         _______ _______ _______ _____ _____    ______ ____
ROOT
ATOM      1  C   UNL     1       2.533  -0.027   1.238  0.00  0.00    +0.199 A 
ATOM      2  N   UNL     1       2.968   0.677   0.222  0.00  0.00    -0.120 NA
ATOM      3  N   UNL     1       4.331   0.928   0.419  0.00  0.00    -0.109 NA
ATOM      4  C   UNL     1       4.688   0.368   1.552  0.00  0.00    +0.241 A 
ATOM      5  N   UNL     1       3.583  -0.235   2.092  0.00  0.00    -0.249 N 
ATOM      6  C   UNL     1       3.674  -0.902   3.296  0.00  0.00    +0.102 A 
ATOM      7  C   UNL     1       4.872  -0.984   3.998  0.00  0.00    +0.074 A 
ATOM      8  C   UNL     1       4.812  -1.723   5.256  0.00  0.00    -0.018 A 
ATOM      9  C   UNL     1       3.598  -2.226   5.565  0.00  0.00    +0.021 A 
ATOM     10  S   UNL     1       2.558  -1.735   4.224  0.00  0.00    -0.072 S 
ATOM     11  C   UNL     1       3.260  -3.018   6.789  0.00  0.00    +0.203 C 
ATOM     12  O   UNL     1       4.347  -2.875   7.717  0.00  0.00    -0.371 OA
ATOM     13  C   UNL     1       5.634  -3.098   7.135  0.00  0.00    +0.126 C 
ATOM     14  C   UNL     1       5.993  -1.945   6.191  0.00  0.00    +0.068 C 
ATOM     15  C   UNL     1       6.043  -0.317   3.383  0.00  0.00    +0.264 A 
ATOM     16  O   UNL     1       7.125  -0.346   3.941  0.00  0.00    -0.267 OA
ATOM     17  N   UNL     1       5.908   0.315   2.206  0.00  0.00    -0.272 N 
ENDROOT
BRANCH  13  18
ATOM     18  C   UNL     1       6.684  -3.185   8.245  0.00  0.00    +0.012 C 
ATOM     19  C   UNL     1       6.340  -4.344   9.182  0.00  0.00    +0.010 C 
ATOM     20  C   UNL     1       8.063  -3.423   7.625  0.00  0.00    +0.010 C 
ENDBRANCH  13  18
BRANCH   1  21
ATOM     21  S   UNL     1       0.882  -0.600   1.468  0.00  0.00    -0.073 S 
BRANCH  21  23
ATOM     22  C   UNL     1      -0.030   1.532   0.018  0.00  0.00    +0.029 C 
ATOM     23  C   UNL     1      -0.000   0.002   0.002  0.00  0.00    +0.137 C 
BRANCH  23  24
ATOM     24  C   UNL     1      -1.411  -0.527   0.013  0.00  0.00    +0.230 C 
ATOM     25  O   UNL     1      -1.935  -0.837   1.062  0.00  0.00    -0.274 OA
ATOM     26  N   UNL     1      -2.090  -0.657  -1.144  0.00  0.00    -0.285 N 
ATOM     27  H   UNL     1      -1.697  -0.348  -1.975  0.00  0.00    +0.155 HD
BRANCH  26  28
ATOM     28  C   UNL     1      -3.363  -1.239  -1.147  0.00  0.00    +0.033 A 
ATOM     29  C   UNL     1      -3.765  -2.028  -2.216  0.00  0.00    +0.023 A 
ATOM     30  C   UNL     1      -5.022  -2.600  -2.216  0.00  0.00    +0.002 A 
ATOM     31  C   UNL     1      -5.880  -2.388  -1.152  0.00  0.00    +0.000 A 
ATOM     32  C   UNL     1      -5.482  -1.602  -0.086  0.00  0.00    +0.002 A 
ATOM     33  C   UNL     1      -4.224  -1.032  -0.077  0.00  0.00    +0.023 A 
ENDBRANCH  26  28
ENDBRANCH  23  24
ENDBRANCH  21  23
ENDBRANCH   1  21
BRANCH  17  34
ATOM     34  C   UNL     1       7.072   0.973   1.607  0.00  0.00    +0.163 C 
BRANCH  34  35
ATOM     35  C   UNL     1       7.150   2.397   2.096  0.00  0.00    -0.028 A 
ATOM     36  C   UNL     1       6.507   3.403   1.400  0.00  0.00    +0.005 A 
ATOM     37  C   UNL     1       6.579   4.709   1.849  0.00  0.00    +0.000 A 
ATOM     38  C   UNL     1       7.294   5.008   2.993  0.00  0.00    +0.000 A 
ATOM     39  C   UNL     1       7.937   4.002   3.689  0.00  0.00    +0.000 A 
ATOM     40  C   UNL     1       7.861   2.695   3.244  0.00  0.00    +0.005 A 
ENDBRANCH  34  35
ENDBRANCH  17  34
TORSDOF 7
