REMARK  Name = ZINC32105719
REMARK  7 active torsions:
REMARK  status: ('A' for Active; 'I' for Inactive)
REMARK    1  A    between atoms: C_1  and  C_2
REMARK    2  A    between atoms: C_2  and  C_31
REMARK    3  A    between atoms: C_4  and  N_10
REMARK    4  A    between atoms: C_6  and  C_8
REMARK    5  A    between atoms: C_6  and  C_9
REMARK    6  A    between atoms: C_11  and  C_13
REMARK    7  A    between atoms: N_21  and  C_24
REMARK                            x       y       z     vdW  Elec       q    Type
REMARK                         _______ _______ _______ _____ _____    ______ ____
ROOT
ATOM      1  C   UNL     1       0.109   7.180  -2.398  0.00  0.00    +0.039 A 
ATOM      2  C   UNL     1       0.467   7.899  -1.250  0.00  0.00    +0.014 A 
ATOM      3  C   UNL     1       0.470   9.265  -1.259  0.00  0.00    +0.016 A 
ATOM      4  C   UNL     1       0.114   9.952  -2.418  0.00  0.00    +0.065 A 
ATOM      5  C   UNL     1      -0.250   9.242  -3.584  0.00  0.00    +0.079 A 
ATOM      6  C   UNL     1      -0.243   7.846  -3.565  0.00  0.00    +0.041 A 
ATOM      7  N   UNL     1      -0.593   9.935  -4.698  0.00  0.00    -0.237 NA
ATOM      8  C   UNL     1      -0.594  11.234  -4.719  0.00  0.00    +0.207 A 
ATOM      9  N   UNL     1      -0.258  11.999  -3.646  0.00  0.00    -0.267 N 
ATOM     10  C   UNL     1       0.102  11.423  -2.475  0.00  0.00    +0.266 A 
ATOM     11  O   UNL     1       0.405  12.096  -1.507  0.00  0.00    -0.267 OA
ENDROOT
BRANCH   9  12
ATOM     12  C   UNL     1      -0.286  13.396  -3.753  0.00  0.00    +0.051 A 
ATOM     13  C   UNL     1      -1.229  14.129  -3.044  0.00  0.00    +0.029 A 
ATOM     14  C   UNL     1      -1.251  15.506  -3.148  0.00  0.00    +0.040 A 
ATOM     15  C   UNL     1      -0.341  16.155  -3.965  0.00  0.00    +0.124 A 
ATOM     16  C   UNL     1       0.597  15.425  -4.677  0.00  0.00    +0.040 A 
ATOM     17  C   UNL     1       0.626  14.048  -4.572  0.00  0.00    +0.029 A 
ATOM     18  F   UNL     1      -0.368  17.501  -4.069  0.00  0.00    -0.205 F 
ENDBRANCH   9  12
BRANCH   1  20
ATOM     19  N   UNL     1       0.459   5.050  -1.240  0.00  0.00    -0.309 N 
ATOM     20  C   UNL     1       0.113   5.700  -2.368  0.00  0.00    +0.244 C 
ATOM     21  O   UNL     1      -0.197   5.072  -3.361  0.00  0.00    -0.270 OA
ATOM     22  H   UNL     1       0.739   5.618  -0.341  0.00  0.00    +0.149 HD
BRANCH  19  26
ATOM     23  C   UNL     1      -0.933   0.987  -2.223  0.00  0.00    -0.010 C 
ATOM     24  C   UNL     1      -0.960   1.556  -0.800  0.00  0.00    -0.072 C 
ATOM     25  C   UNL     1      -0.939   3.082  -0.861  0.00  0.00    +0.009 C 
ATOM     26  C   UNL     1       0.463   3.581  -1.210  0.00  0.00    +0.071 C 
ATOM     27  C   UNL     1       1.433   3.102  -0.131  0.00  0.00    +0.009 C 
ATOM     28  C   UNL     1       1.441   1.577  -0.065  0.00  0.00    -0.072 C 
ATOM     29  N   UNL     1       0.112   1.007   0.004  0.00  0.00    +0.386 N 
ATOM     30  C   UNL     1       2.207   1.171   1.214  0.00  0.00    -0.010 C 
ATOM     31  C   UNL     1       2.223   1.016  -1.259  0.00  0.00    -0.010 C 
ATOM     32  C   UNL     1      -2.304   1.135  -0.164  0.00  0.00    -0.010 C 
ATOM     33  H   UNL     1      -0.152   1.083   1.069  0.00  0.00    -0.084 HD
ATOM     34  H   UNL     1       0.264  -0.050  -0.262  0.00  0.00    -0.084 HD
ENDBRANCH  19  26
ENDBRANCH   1  20
TORSDOF 3
