REMARK  Name = ZINC65183029
REMARK  8 active torsions:
REMARK  status: ('A' for Active; 'I' for Inactive)
REMARK    1  A    between atoms: C_1  and  N_2
REMARK    2  A    between atoms: N_2  and  C_3
REMARK    3  A    between atoms: C_3  and  C_4
REMARK    4  A    between atoms: C_4  and  C_5
REMARK    5  A    between atoms: C_8  and  C_11
REMARK    6  A    between atoms: C_22  and  C_24
REMARK    7  A    between atoms: C_29  and  O_30
REMARK    8  A    between atoms: O_30  and  C_31
REMARK                            x       y       z     vdW  Elec       q    Type
REMARK                         _______ _______ _______ _____ _____    ______ ____
ROOT
ATOM      1  C   UNL     1      -0.587  -1.510   3.284  0.00  0.00    +0.139 C 
ATOM      2  N   UNL     1       0.445  -2.205   3.598  0.00  0.00    -0.072 NA
ATOM      3  O   UNL     1       0.270  -2.837   4.852  0.00  0.00    -0.367 OA
ATOM      4  C   UNL     1      -1.034  -2.454   5.318  0.00  0.00    +0.318 C 
ATOM      5  N   UNL     1      -1.556  -1.578   4.257  0.00  0.00    -0.291 N 
ATOM      6  H   UNL     1      -2.419  -1.135   4.246  0.00  0.00    +0.151 HD
ENDROOT
BRANCH   4   7
ATOM      7  C   UNL     1      -1.924  -3.686   5.491  0.00  0.00    +0.165 C 
ATOM      8  C   UNL     1      -3.287  -3.277   6.004  0.00  0.00    +0.012 C 
ATOM      9  C   UNL     1      -3.439  -3.897   7.197  0.00  0.00    -0.002 A 
ATOM     10  C   UNL     1      -4.529  -3.906   8.180  0.00  0.00    +0.029 A 
ATOM     11  C   UNL     1      -4.389  -4.640   9.308  0.00  0.00    +0.042 A 
ATOM     12  C   UNL     1      -3.231  -5.391   9.560  0.00  0.00    +0.022 A 
ATOM     13  C   UNL     1      -2.189  -5.433   8.704  0.00  0.00    +0.027 A 
ATOM     14  C   UNL     1      -2.228  -4.698   7.486  0.00  0.00    +0.043 A 
ATOM     15  N   UNL     1      -1.360  -4.579   6.509  0.00  0.00    -0.373 N 
ATOM     16 CL   UNL     1      -5.675  -4.653  10.474  0.00  0.00    -0.084 Cl
ATOM     17  H   UNL     1      -0.491  -5.008   6.467  0.00  0.00    +0.160 HD
ENDBRANCH   4   7
BRANCH   1  18
ATOM     18  C   UNL     1      -0.718  -0.714   2.011  0.00  0.00    +0.094 C 
BRANCH  18  19
ATOM     19  C   UNL     1       0.553  -0.877   1.175  0.00  0.00    +0.115 C 
BRANCH  19  21
ATOM     20  C   UNL     1       0.873   1.292  -0.103  0.00  0.00    +0.132 C 
ATOM     21  N   UNL     1       0.426  -0.102  -0.062  0.00  0.00    -0.300 N 
ATOM     22  C   UNL     1      -0.102  -0.673  -1.163  0.00  0.00    +0.250 C 
ATOM     23  O   UNL     1      -0.559  -1.798  -1.105  0.00  0.00    -0.270 OA
BRANCH  22  24
ATOM     24  C   UNL     1      -0.124   0.067  -2.439  0.00  0.00    +0.078 A 
ATOM     25  C   UNL     1       0.997   0.793  -2.851  0.00  0.00    +0.017 A 
ATOM     26  C   UNL     1       0.970   1.481  -4.044  0.00  0.00    +0.001 A 
ATOM     27  C   UNL     1      -0.165   1.458  -4.838  0.00  0.00    +0.004 A 
ATOM     28  C   UNL     1      -1.279   0.746  -4.444  0.00  0.00    +0.046 A 
ATOM     29  C   UNL     1      -1.268   0.042  -3.249  0.00  0.00    +0.132 A 
BRANCH  29  30
ATOM     30  O   UNL     1      -2.360  -0.663  -2.862  0.00  0.00    -0.494 OA
ATOM     31  C   UNL     1      -3.489  -0.642  -3.739  0.00  0.00    +0.277 C 
ENDBRANCH  29  30
ENDBRANCH  22  24
ENDBRANCH  19  21
ENDBRANCH  18  19
ENDBRANCH   1  18
TORSDOF 6
