REMARK  Name = ZINC39674559
REMARK  9 active torsions:
REMARK  status: ('A' for Active; 'I' for Inactive)
REMARK    1  A    between atoms: C_1  and  C_2
REMARK    2  A    between atoms: C_5  and  C_8
REMARK    3  A    between atoms: C_8  and  C_9
REMARK    4  A    between atoms: C_13  and  C_22
REMARK    5  A    between atoms: N_24  and  C_25
REMARK    6  A    between atoms: C_25  and  C_27
REMARK    7  A    between atoms: C_25  and  C_28
REMARK    8  A    between atoms: C_29  and  C_35
REMARK    9  A    between atoms: C_32  and  C_34
REMARK                            x       y       z     vdW  Elec       q    Type
REMARK                         _______ _______ _______ _____ _____    ______ ____
ROOT
ATOM      1  C   UNL     1       1.226  -4.950   0.304  0.00  0.00    +0.220 C 
ATOM      2  O   UNL     1       2.177  -4.214   0.455  0.00  0.00    -0.275 OA
ATOM      3  N   UNL     1       1.410  -6.284   0.236  0.00  0.00    -0.300 N 
ATOM      4  C   UNL     1       0.382  -7.334   0.049  0.00  0.00    +0.121 C 
ATOM      5  C   UNL     1       1.041  -8.361  -0.899  0.00  0.00    +0.100 C 
ATOM      6  C   UNL     1       2.553  -8.158  -0.707  0.00  0.00    -0.004 C 
ATOM      7  C   UNL     1       2.688  -7.030   0.326  0.00  0.00    +0.115 C 
ATOM      8  C   UNL     1       3.201  -7.739  -2.023  0.00  0.00    -0.010 C 
ATOM      9  C   UNL     1       4.713  -7.599  -1.820  0.00  0.00    -0.082 C 
ATOM     10  N   UNL     1       5.268  -8.879  -1.363  0.00  0.00    +0.379 N 
ATOM     11  C   UNL     1       4.707  -9.229  -0.053  0.00  0.00    -0.082 C 
ATOM     12  C   UNL     1       3.196  -9.438  -0.181  0.00  0.00    -0.010 C 
ATOM     13  H   UNL     1       5.037  -9.601  -2.030  0.00  0.00    -0.086 HD
ATOM     14  H   UNL     1       6.271  -8.802  -1.289  0.00  0.00    -0.086 HD
ENDROOT
BRANCH   5  15
ATOM     15  C   UNL     1       0.649  -8.083  -2.327  0.00  0.00    +0.219 C 
ATOM     16  O   UNL     1       0.340  -6.960  -2.664  0.00  0.00    -0.275 OA
ATOM     17  N   UNL     1       0.642  -9.083  -3.231  0.00  0.00    -0.309 N 
ATOM     18  H   UNL     1       0.889  -9.982  -2.962  0.00  0.00    +0.149 HD
BRANCH  17  19
ATOM     19  C   UNL     1       0.261  -8.813  -4.620  0.00  0.00    +0.100 C 
ATOM     20  C   UNL     1      -1.262  -8.879  -4.753  0.00  0.00    +0.033 C 
BRANCH  19  21
ATOM     21  C   UNL     1       0.889  -9.843  -5.522  0.00  0.00    -0.001 C 
ATOM     22  C   UNL     1       1.634  -9.638  -6.611  0.00  0.00    +0.063 C 
ATOM     23  N   UNL     1       2.019 -10.813  -7.157  0.00  0.00    -0.159 NA
ATOM     24  N   UNL     1       1.617 -11.813  -6.558  0.00  0.00    -0.180 NA
ATOM     25  C   UNL     1       0.827 -11.356  -5.401  0.00  0.00    +0.154 C 
ATOM     26  C   UNL     1      -0.617 -11.848  -5.507  0.00  0.00    +0.039 C 
ATOM     27  C   UNL     1       1.997  -8.281  -7.156  0.00  0.00    +0.067 C 
ENDBRANCH  19  21
ENDBRANCH  17  19
ENDBRANCH   5  15
BRANCH   1  28
ATOM     28  C   UNL     1      -0.163  -4.375   0.191  0.00  0.00    +0.131 C 
BRANCH  28  33
ATOM     29  C   UNL     1       0.097   1.384   0.596  0.00  0.00    +0.044 C 
ATOM     30  C   UNL     1       0.030  -0.118   0.491  0.00  0.00    -0.050 A 
ATOM     31  C   UNL     1       0.129  -0.729  -0.746  0.00  0.00    +0.003 A 
ATOM     32  C   UNL     1       0.067  -2.106  -0.843  0.00  0.00    +0.004 A 
ATOM     33  C   UNL     1      -0.094  -2.873   0.296  0.00  0.00    -0.039 A 
ATOM     34  C   UNL     1      -0.192  -2.262   1.533  0.00  0.00    +0.004 A 
ATOM     35  C   UNL     1      -0.126  -0.885   1.630  0.00  0.00    +0.003 A 
ENDBRANCH  28  33
ENDBRANCH   1  28
TORSDOF 5
