REMARK  Name = ZINC39339129
REMARK  5 active torsions:
REMARK  status: ('A' for Active; 'I' for Inactive)
REMARK    1  A    between atoms: C_1  and  N_2
REMARK    2  A    between atoms: C_3  and  C_19
REMARK    3  A    between atoms: C_7  and  S_9
REMARK    4  A    between atoms: S_9  and  C_10
REMARK    5  A    between atoms: C_10  and  C_11
REMARK                            x       y       z     vdW  Elec       q    Type
REMARK                         _______ _______ _______ _____ _____    ______ ____
ROOT
ATOM      1  C   UNL     1      -0.107   1.500   0.136  0.00  0.00    +0.109 C 
ATOM      2  N   UNL     1      -0.004   0.042  -0.010  0.00  0.00    -0.257 NA
ATOM      3  C   UNL     1      -1.325  -0.601   0.152  0.00  0.00    +0.246 C 
ATOM      4  N   UNL     1      -1.198  -1.544   1.286  0.00  0.00    -0.230 NA
ATOM      5  N   UNL     1      -0.073  -1.020   2.076  0.00  0.00    -0.229 NA
ATOM      6  C   UNL     1       0.872  -0.536   1.036  0.00  0.00    +0.200 C 
ATOM      7  H   UNL     1      -1.005  -2.479   0.960  0.00  0.00    +0.143 HD
ATOM      8  H   UNL     1      -0.372  -0.263   2.673  0.00  0.00    +0.143 HD
ENDROOT
BRANCH   3   9
ATOM      9  C   UNL     1      -1.698  -1.360  -1.123  0.00  0.00    +0.419 C 
ATOM     10  F   UNL     1      -0.736  -2.344  -1.379  0.00  0.00    -0.168 F 
ATOM     11  F   UNL     1      -2.949  -1.964  -0.957  0.00  0.00    -0.168 F 
ATOM     12  F   UNL     1      -1.750  -0.468  -2.199  0.00  0.00    -0.168 F 
ENDBRANCH   3   9
BRANCH   6  13
ATOM     13  S   UNL     1       1.971   0.736   1.717  0.00  0.00    -0.119 S 
BRANCH  13  14
ATOM     14  C   UNL     1       3.241  -0.210   2.602  0.00  0.00    +0.125 C 
BRANCH  14  15
ATOM     15  C   UNL     1       4.209   0.740   3.258  0.00  0.00    +0.035 A 
ATOM     16  N   UNL     1       5.137   1.405   2.504  0.00  0.00    -0.311 N 
ATOM     17  C   UNL     1       6.006   2.256   3.080  0.00  0.00    +0.327 A 
ATOM     18  O   UNL     1       6.823   2.836   2.391  0.00  0.00    -0.247 OA
ATOM     19  N   UNL     1       5.983   2.474   4.408  0.00  0.00    -0.275 N 
ATOM     20  C   UNL     1       5.084   1.839   5.186  0.00  0.00    +0.254 A 
ATOM     21  O   UNL     1       5.063   2.036   6.387  0.00  0.00    -0.268 OA
ATOM     22  C   UNL     1       4.161   0.945   4.592  0.00  0.00    +0.092 A 
ATOM     23  H   UNL     1       6.617   3.091   4.806  0.00  0.00    +0.173 HD
ATOM     24  H   UNL     1       5.170   1.261   1.545  0.00  0.00    +0.170 HD
ENDBRANCH  14  15
ENDBRANCH  13  14
ENDBRANCH   6  13
TORSDOF 4
