REMARK  Name = ZINC11935777
REMARK  4 active torsions:
REMARK  status: ('A' for Active; 'I' for Inactive)
REMARK    1  A    between atoms: C_4  and  C_7
REMARK    2  A    between atoms: C_8  and  C_13
REMARK    3  A    between atoms: C_13  and  N_48
REMARK    4  A    between atoms: C_18  and  C_22
REMARK                            x       y       z     vdW  Elec       q    Type
REMARK                         _______ _______ _______ _____ _____    ______ ____
ROOT
ATOM      1  C   UNL     1       2.624   0.684   0.397  0.00  0.00    -0.072 C 
ATOM      2  C   UNL     1       4.112   0.556   0.039  0.00  0.00    +0.036 C 
ATOM      3  C   UNL     1       4.622   1.932  -0.312  0.00  0.00    +0.036 A 
ATOM      4  C   UNL     1       3.804   2.978  -0.595  0.00  0.00    -0.016 A 
ATOM      5  C   UNL     1       4.607   4.093  -0.867  0.00  0.00    +0.097 A 
ATOM      6  N   UNL     1       5.867   3.720  -0.751  0.00  0.00    -0.173 NA
ATOM      7  N   UNL     1       5.891   2.360  -0.404  0.00  0.00    -0.281 N 
ATOM      8  H   UNL     1       6.710   1.807  -0.251  0.00  0.00    +0.189 HD
ATOM      9  C   UNL     1       2.299   2.879  -0.597  0.00  0.00    -0.039 C 
ATOM     10  N   UNL     1       1.937   1.442  -0.672  0.00  0.00    +0.385 N 
ATOM     11  H   UNL     1       2.233   1.073  -1.584  0.00  0.00    -0.081 HD
ENDROOT
BRANCH   5  12
ATOM     12  C   UNL     1       4.126   5.451  -1.221  0.00  0.00    +0.037 A 
ATOM     13  C   UNL     1       3.111   6.050  -0.477  0.00  0.00    +0.013 A 
ATOM     14  C   UNL     1       2.671   7.315  -0.808  0.00  0.00    +0.001 A 
ATOM     15  C   UNL     1       3.227   7.987  -1.883  0.00  0.00    +0.003 A 
ATOM     16  C   UNL     1       4.231   7.397  -2.629  0.00  0.00    +0.039 A 
ATOM     17  C   UNL     1       4.684   6.131  -2.304  0.00  0.00    +0.133 A 
ATOM     18  F   UNL     1       5.664   5.555  -3.033  0.00  0.00    -0.205 F 
ENDBRANCH   5  12
BRANCH  10  19
ATOM     19  C   UNL     1       0.474   1.284  -0.542  0.00  0.00    -0.039 C 
BRANCH  19  21
ATOM     20  C   UNL     1       0.111  -0.593  -2.302  0.00  0.00    +0.094 A 
ATOM     21  C   UNL     1       0.099  -0.109  -0.980  0.00  0.00    -0.019 A 
ATOM     22  C   UNL     1      -0.302  -1.115  -0.173  0.00  0.00    +0.107 A 
ATOM     23  N   UNL     1      -0.546  -2.196  -0.946  0.00  0.00    -0.284 N 
ATOM     24  H   UNL     1      -0.864  -3.088  -0.624  0.00  0.00    +0.188 HD
ATOM     25  N   UNL     1      -0.279  -1.850  -2.276  0.00  0.00    -0.174 NA
BRANCH  20  29
ATOM     26  C   UNL     1       1.211   1.615  -5.766  0.00  0.00    +0.000 A 
ATOM     27  C   UNL     1       1.641   0.308  -5.617  0.00  0.00    +0.001 A 
ATOM     28  C   UNL     1       1.287  -0.413  -4.494  0.00  0.00    +0.010 A 
ATOM     29  C   UNL     1       0.495   0.177  -3.511  0.00  0.00    +0.002 A 
ATOM     30  C   UNL     1       0.060   1.491  -3.670  0.00  0.00    +0.010 A 
ATOM     31  C   UNL     1       0.424   2.205  -4.794  0.00  0.00    +0.001 A 
ENDBRANCH  20  29
ENDBRANCH  19  21
ENDBRANCH  10  19
TORSDOF 4
