REMARK  Name = ZINC36849600
REMARK  8 active torsions:
REMARK  status: ('A' for Active; 'I' for Inactive)
REMARK    1  A    between atoms: C_1  and  C_2
REMARK    2  A    between atoms: C_2  and  C_3
REMARK    3  A    between atoms: C_3  and  C_4
REMARK    4  A    between atoms: C_4  and  N_5
REMARK    5  A    between atoms: C_11  and  S_12
REMARK    6  A    between atoms: S_12  and  C_13
REMARK    7  A    between atoms: C_13  and  C_14
REMARK    8  A    between atoms: C_20  and  C_25
REMARK                            x       y       z     vdW  Elec       q    Type
REMARK                         _______ _______ _______ _____ _____    ______ ____
ROOT
ATOM      1  C   UNL     1       6.651  -2.915  -1.082  0.00  0.00    +0.121 A 
ATOM      2  N   UNL     1       7.919  -3.225  -1.457  0.00  0.00    -0.310 N 
ATOM      3  H   UNL     1       8.087  -3.521  -2.365  0.00  0.00    +0.170 HD
ATOM      4  C   UNL     1       8.947  -3.128  -0.593  0.00  0.00    +0.260 A 
ATOM      5  O   UNL     1      10.079  -3.409  -0.946  0.00  0.00    -0.267 OA
ATOM      6  C   UNL     1       8.690  -2.690   0.745  0.00  0.00    +0.080 A 
ATOM      7  C   UNL     1       9.622  -2.506   1.851  0.00  0.00    +0.004 A 
ATOM      8  C   UNL     1       9.143  -2.076   3.043  0.00  0.00    +0.056 A 
ATOM      9  S   UNL     1       7.395  -1.893   2.743  0.00  0.00    -0.076 S 
ATOM     10  C   UNL     1       7.349  -2.393   1.041  0.00  0.00    +0.116 A 
ATOM     11  N   UNL     1       6.386  -2.507   0.130  0.00  0.00    -0.226 NA
ENDROOT
BRANCH   7  12
ATOM     12  C   UNL     1      11.068  -2.784   1.674  0.00  0.00    -0.017 A 
ATOM     13  C   UNL     1      11.484  -3.989   1.109  0.00  0.00    +0.009 A 
ATOM     14  C   UNL     1      12.830  -4.243   0.946  0.00  0.00    +0.016 A 
ATOM     15  C   UNL     1      13.767  -3.304   1.343  0.00  0.00    +0.018 A 
ATOM     16  C   UNL     1      13.359  -2.107   1.905  0.00  0.00    +0.016 A 
ATOM     17  C   UNL     1      12.015  -1.841   2.067  0.00  0.00    +0.009 A 
ATOM     18 BR   UNL     1      15.611  -3.660   1.117  0.00  0.00    -0.050 Br
ENDBRANCH   7  12
BRANCH   1  19
ATOM     19  C   UNL     1       5.532  -3.038  -2.083  0.00  0.00    +0.151 C 
BRANCH  19  20
ATOM     20  S   UNL     1       3.967  -2.554  -1.303  0.00  0.00    -0.078 S 
BRANCH  20  27
ATOM     21  N   UNL     1       1.425  -2.500  -2.470  0.00  0.00    -0.271 N 
ATOM     22  C   UNL     1       0.843  -2.759  -3.659  0.00  0.00    +0.345 A 
ATOM     23  O   UNL     1      -0.341  -2.642  -3.922  0.00  0.00    -0.245 OA
ATOM     24  N   UNL     1       1.811  -3.170  -4.504  0.00  0.00    -0.226 N 
ATOM     25  H   UNL     1       1.691  -3.427  -5.432  0.00  0.00    +0.194 HD
ATOM     26  N   UNL     1       3.020  -3.158  -3.796  0.00  0.00    -0.145 NA
ATOM     27  C   UNL     1       2.774  -2.749  -2.585  0.00  0.00    +0.192 A 
BRANCH  21  28
ATOM     28  C   UNL     1       0.739  -2.027  -1.265  0.00  0.00    +0.129 C 
BRANCH  28  29
ATOM     29  C   UNL     1       0.718  -0.497  -1.257  0.00  0.00    +0.021 C 
BRANCH  29  31
ATOM     30  C   UNL     1      -0.019   1.526   0.010  0.00  0.00    +0.004 C 
ATOM     31  C   UNL     1       0.002  -0.004   0.002  0.00  0.00    -0.002 C 
ENDBRANCH  29  31
ENDBRANCH  28  29
ENDBRANCH  21  28
ENDBRANCH  20  27
ENDBRANCH  19  20
ENDBRANCH   1  19
TORSDOF 7
