REMARK  Name = ZINC39666874
REMARK  8 active torsions:
REMARK  status: ('A' for Active; 'I' for Inactive)
REMARK    1  A    between atoms: C_1  and  C_2
REMARK    2  A    between atoms: C_2  and  C_3
REMARK    3  A    between atoms: C_3  and  C_4
REMARK    4  A    between atoms: C_3  and  C_6
REMARK    5  A    between atoms: C_4  and  C_5
REMARK    6  A    between atoms: C_6  and  N_7
REMARK    7  A    between atoms: C_8  and  C_10
REMARK    8  A    between atoms: C_21  and  C_23
REMARK                            x       y       z     vdW  Elec       q    Type
REMARK                         _______ _______ _______ _____ _____    ______ ____
ROOT
ATOM      1  C   UNL     1       2.338  -3.380  -5.263  0.00  0.00    +0.100 C 
ATOM      2  C   UNL     1       3.794  -2.997  -4.913  0.00  0.00    +0.121 C 
ATOM      3  N   UNL     1       4.465  -4.290  -4.639  0.00  0.00    -0.296 N 
ATOM      4  C   UNL     1       3.910  -5.216  -5.654  0.00  0.00    +0.115 C 
ATOM      5  C   UNL     1       2.420  -4.835  -5.753  0.00  0.00    -0.004 C 
ATOM      6  C   UNL     1       1.944  -4.934  -7.199  0.00  0.00    -0.010 C 
ATOM      7  C   UNL     1       1.978  -6.399  -7.644  0.00  0.00    -0.082 C 
ATOM      8  N   UNL     1       1.114  -7.199  -6.768  0.00  0.00    +0.379 N 
ATOM      9  C   UNL     1       1.633  -7.174  -5.395  0.00  0.00    -0.082 C 
ATOM     10  C   UNL     1       1.584  -5.742  -4.855  0.00  0.00    -0.010 C 
ATOM     11  C   UNL     1       5.375  -4.561  -3.682  0.00  0.00    +0.248 C 
ATOM     12  O   UNL     1       5.638  -3.726  -2.839  0.00  0.00    -0.270 OA
ATOM     13  H   UNL     1       0.180  -6.818  -6.780  0.00  0.00    -0.086 HD
ATOM     14  H   UNL     1       1.090  -8.151  -7.101  0.00  0.00    -0.086 HD
ENDROOT
BRANCH  11  15
ATOM     15  C   UNL     1       6.052  -5.872  -3.659  0.00  0.00    +0.055 A 
ATOM     16  C   UNL     1       6.086  -6.676  -4.809  0.00  0.00    +0.018 A 
ATOM     17  C   UNL     1       6.725  -7.885  -4.741  0.00  0.00    +0.044 A 
ATOM     18  C   UNL     1       7.318  -8.279  -3.543  0.00  0.00    +0.121 A 
ATOM     19  N   UNL     1       7.271  -7.500  -2.471  0.00  0.00    -0.240 NA
ATOM     20  C   UNL     1       6.672  -6.328  -2.494  0.00  0.00    +0.126 A 
ATOM     21  N   UNL     1       7.965  -9.501  -3.471  0.00  0.00    -0.311 N 
ATOM     22  C   UNL     1       8.402 -10.052  -2.179  0.00  0.00    +0.134 C 
ATOM     23  C   UNL     1       7.894 -11.495  -2.071  0.00  0.00    +0.178 C 
ATOM     24  O   UNL     1       8.289 -12.221  -3.237  0.00  0.00    -0.377 OA
ATOM     25  C   UNL     1       7.735 -11.718  -4.456  0.00  0.00    +0.178 C 
ATOM     26  C   UNL     1       8.230 -10.290  -4.685  0.00  0.00    +0.134 C 
ENDBRANCH  11  15
BRANCH   1  28
ATOM     27  N   UNL     1       0.132  -3.124  -4.176  0.00  0.00    -0.315 N 
ATOM     28  C   UNL     1       1.463  -3.286  -4.040  0.00  0.00    +0.218 C 
ATOM     29  O   UNL     1       1.956  -3.356  -2.934  0.00  0.00    -0.275 OA
ATOM     30  H   UNL     1      -0.263  -3.068  -5.060  0.00  0.00    +0.149 HD
BRANCH  27  31
ATOM     31  C   UNL     1      -0.720  -3.032  -2.987  0.00  0.00    +0.107 C 
BRANCH  31  32
ATOM     32  C   UNL     1      -2.156  -2.721  -3.412  0.00  0.00    +0.006 C 
BRANCH  32  34
ATOM     33  C   UNL     1      -4.525  -2.581  -2.628  0.00  0.00    +0.004 C 
ATOM     34  C   UNL     1      -3.072  -2.769  -2.187  0.00  0.00    +0.002 C 
ENDBRANCH  32  34
BRANCH  32  35
ATOM     35  C   UNL     1      -2.213  -1.325  -4.036  0.00  0.00    +0.002 C 
ATOM     36  C   UNL     1      -1.800  -0.283  -2.995  0.00  0.00    +0.004 C 
ENDBRANCH  32  35
ENDBRANCH  31  32
ENDBRANCH  27  31
ENDBRANCH   1  28
TORSDOF 6
