REMARK  Name = ZINC44166839
REMARK  7 active torsions:
REMARK  status: ('A' for Active; 'I' for Inactive)
REMARK    1  A    between atoms: C_1  and  C_2
REMARK    2  A    between atoms: C_3  and  C_13
REMARK    3  A    between atoms: C_5  and  C_7
REMARK    4  A    between atoms: C_18  and  C_21
REMARK    5  A    between atoms: N_23  and  C_24
REMARK    6  A    between atoms: C_24  and  C_26
REMARK    7  A    between atoms: C_24  and  C_27
REMARK                            x       y       z     vdW  Elec       q    Type
REMARK                         _______ _______ _______ _____ _____    ______ ____
ROOT
ATOM      1  C   UNL     1       0.271  -0.189  -2.479  0.00  0.00    -0.021 C 
ATOM      2  C   UNL     1      -1.203  -0.343  -2.870  0.00  0.00    +0.058 C 
ATOM      3  S   UNL     1      -1.440   0.408  -4.511  0.00  0.00    -0.163 S 
ATOM      4  C   UNL     1      -0.101  -0.341  -5.489  0.00  0.00    +0.062 C 
ATOM      5  C   UNL     1       1.209  -0.188  -4.706  0.00  0.00    +0.027 C 
ATOM      6  N   UNL     1       1.115  -0.910  -3.435  0.00  0.00    +0.393 N 
ATOM      7  H   UNL     1       2.040  -1.015  -3.046  0.00  0.00    -0.084 HD
ATOM      8  H   UNL     1       0.721  -1.824  -3.600  0.00  0.00    -0.084 HD
ENDROOT
BRANCH   1  11
ATOM      9  C   UNL     1       0.675   1.398   0.132  0.00  0.00    +0.066 C 
ATOM     10  C   UNL     1       0.668  -0.108   0.086  0.00  0.00    +0.048 A 
ATOM     11  C   UNL     1       0.485  -0.754  -1.098  0.00  0.00    -0.000 A 
ATOM     12  S   UNL     1       0.568  -2.458  -0.561  0.00  0.00    -0.072 S 
ATOM     13  C   UNL     1       0.836  -2.125   1.175  0.00  0.00    +0.128 A 
ATOM     14  N   UNL     1       0.843  -0.799   1.186  0.00  0.00    -0.242 NA
BRANCH  13  15
ATOM     15  C   UNL     1       1.009  -3.073   2.296  0.00  0.00    +0.114 A 
ATOM     16  C   UNL     1       1.203  -2.596   3.595  0.00  0.00    +0.141 A 
ATOM     17  N   UNL     1       1.356  -3.447   4.591  0.00  0.00    -0.260 NA
ATOM     18  C   UNL     1       1.325  -4.749   4.362  0.00  0.00    +0.130 A 
ATOM     19  C   UNL     1       1.133  -5.227   3.077  0.00  0.00    +0.131 A 
ATOM     20  N   UNL     1       0.974  -4.385   2.073  0.00  0.00    -0.250 NA
ENDBRANCH  13  15
ENDBRANCH   1  11
BRANCH   5  21
ATOM     21  C   UNL     1       1.463   1.272  -4.436  0.00  0.00    +0.200 C 
ATOM     22  O   UNL     1       1.952   1.617  -3.381  0.00  0.00    -0.278 OA
ATOM     23  N   UNL     1       1.146   2.195  -5.365  0.00  0.00    -0.310 N 
ATOM     24  H   UNL     1       0.754   1.919  -6.209  0.00  0.00    +0.149 HD
BRANCH  23  25
ATOM     25  C   UNL     1       1.393   3.615  -5.102  0.00  0.00    +0.101 C 
ATOM     26  C   UNL     1       0.208   4.204  -4.333  0.00  0.00    +0.033 C 
BRANCH  25  27
ATOM     27  C   UNL     1       1.557   4.347  -6.409  0.00  0.00    -0.020 A 
ATOM     28  C   UNL     1       0.953   3.880  -7.536  0.00  0.00    +0.006 A 
ATOM     29  C   UNL     1       1.093   4.543  -8.753  0.00  0.00    +0.001 A 
ATOM     30  C   UNL     1       1.841   5.677  -8.851  0.00  0.00    +0.008 A 
ATOM     31  C   UNL     1       2.480   6.189  -7.709  0.00  0.00    -0.018 A 
ATOM     32  C   UNL     1       2.332   5.518  -6.470  0.00  0.00    -0.013 A 
ATOM     33  C   UNL     1       2.967   6.033  -5.327  0.00  0.00    +0.009 A 
ATOM     34  C   UNL     1       3.709   7.170  -5.424  0.00  0.00    +0.001 A 
ATOM     35  C   UNL     1       3.849   7.834  -6.641  0.00  0.00    +0.001 A 
ATOM     36  C   UNL     1       3.260   7.357  -7.772  0.00  0.00    +0.008 A 
ENDBRANCH  25  27
ENDBRANCH  23  25
ENDBRANCH   5  21
TORSDOF 5
