REMARK  Name = ZINC37440365
REMARK  4 active torsions:
REMARK  status: ('A' for Active; 'I' for Inactive)
REMARK    1  A    between atoms: C_1  and  C_2
REMARK    2  A    between atoms: C_2  and  N_3
REMARK    3  A    between atoms: C_11  and  C_12
REMARK    4  A    between atoms: C_16  and  N_18
REMARK                            x       y       z     vdW  Elec       q    Type
REMARK                         _______ _______ _______ _____ _____    ______ ____
ROOT
ATOM      1  N   UNL     1       0.688  -0.704  -1.143  0.00  0.00    -0.324 N 
ATOM      2  C   UNL     1       0.092  -0.978  -2.358  0.00  0.00    +0.069 A 
ATOM      3  C   UNL     1      -1.222  -1.155  -2.767  0.00  0.00    +0.029 A 
ATOM      4  C   UNL     1      -1.500  -1.425  -4.090  0.00  0.00    +0.022 A 
ATOM      5  C   UNL     1      -0.472  -1.522  -5.019  0.00  0.00    +0.043 A 
ATOM      6  C   UNL     1       0.838  -1.351  -4.633  0.00  0.00    +0.050 A 
ATOM      7  C   UNL     1       1.137  -1.076  -3.294  0.00  0.00    +0.091 A 
ATOM      8  N   UNL     1       2.296  -0.862  -2.625  0.00  0.00    -0.227 NA
ATOM      9  C   UNL     1       2.038  -0.637  -1.359  0.00  0.00    +0.142 A 
ATOM     10 CL   UNL     1      -0.842  -1.864  -6.681  0.00  0.00    -0.083 Cl
ENDROOT
BRANCH   9  11
ATOM     11  C   UNL     1       3.054  -0.357  -0.321  0.00  0.00    +0.019 A 
ATOM     12  C   UNL     1       4.380  -0.746  -0.516  0.00  0.00    +0.013 A 
ATOM     13  C   UNL     1       5.326  -0.484   0.453  0.00  0.00    +0.022 A 
ATOM     14  C   UNL     1       4.965   0.164   1.621  0.00  0.00    +0.062 A 
ATOM     15  C   UNL     1       3.646   0.555   1.825  0.00  0.00    +0.044 A 
ATOM     16  C   UNL     1       2.690   0.301   0.853  0.00  0.00    +0.035 A 
ATOM     17 CL   UNL     1       6.161   0.489   2.836  0.00  0.00    -0.082 Cl
BRANCH  15  18
ATOM     18  N   UNL     1       3.285   1.209   3.006  0.00  0.00    -0.357 N 
ATOM     19  H   UNL     1       3.954   1.390   3.684  0.00  0.00    +0.142 HD
ATOM     20  H   UNL     1       2.365   1.482   3.148  0.00  0.00    +0.142 HD
ENDBRANCH  15  18
ENDBRANCH   9  11
BRANCH   1  22
ATOM     21  C   UNL     1      -0.466   0.938   0.255  0.00  0.00    +0.027 C 
ATOM     22  C   UNL     1       0.003  -0.513   0.138  0.00  0.00    +0.120 C 
ENDBRANCH   1  22
TORSDOF 3
