REMARK  Name = ZINC08568275
REMARK  9 active torsions:
REMARK  status: ('A' for Active; 'I' for Inactive)
REMARK    1  A    between atoms: C_1  and  C_2
REMARK    2  A    between atoms: C_2  and  C_3
REMARK    3  A    between atoms: C_3  and  C_4
REMARK    4  A    between atoms: C_11  and  N_36
REMARK    5  A    between atoms: C_12  and  C_32
REMARK    6  A    between atoms: N_20  and  C_23
REMARK    7  A    between atoms: C_23  and  C_24
REMARK    8  A    between atoms: C_32  and  O_34
REMARK    9  A    between atoms: O_34  and  C_35
REMARK                            x       y       z     vdW  Elec       q    Type
REMARK                         _______ _______ _______ _____ _____    ______ ____
ROOT
ATOM      1  C   UNL     1       0.979  -2.457  -1.848  0.00  0.00    +0.071 A 
ATOM      2  C   UNL     1       1.744  -3.480  -1.305  0.00  0.00    +0.061 A 
ATOM      3  C   UNL     1       1.331  -4.660  -1.862  0.00  0.00    +0.223 A 
ATOM      4  N   UNL     1       0.342  -4.376  -2.724  0.00  0.00    -0.246 N 
ATOM      5  H   UNL     1      -0.144  -5.017  -3.267  0.00  0.00    +0.192 HD
ATOM      6  N   UNL     1       0.131  -2.989  -2.697  0.00  0.00    -0.176 NA
ATOM      7  O   UNL     1       1.884  -5.854  -1.537  0.00  0.00    -0.424 OA
ATOM      8  C   UNL     1       2.679  -5.908  -0.451  0.00  0.00    +0.198 C 
ATOM      9  C   UNL     1       3.162  -4.809   0.182  0.00  0.00    +0.117 C 
ATOM     10  C   UNL     1       2.847  -3.416  -0.287  0.00  0.00    +0.142 C 
ATOM     11  C   UNL     1       4.060  -2.740  -0.842  0.00  0.00    -0.002 A 
ATOM     12  C   UNL     1       4.879  -3.058  -1.904  0.00  0.00    +0.007 A 
ATOM     13  C   UNL     1       5.944  -2.201  -2.159  0.00  0.00    +0.000 A 
ATOM     14  C   UNL     1       6.169  -1.083  -1.381  0.00  0.00    +0.002 A 
ATOM     15  C   UNL     1       5.350  -0.758  -0.311  0.00  0.00    +0.024 A 
ATOM     16  C   UNL     1       4.277  -1.610  -0.044  0.00  0.00    +0.041 A 
ATOM     17  N   UNL     1       3.316  -1.529   0.947  0.00  0.00    -0.265 N 
ATOM     18  C   UNL     1       2.435  -2.550   0.882  0.00  0.00    +0.240 C 
ATOM     19  O   UNL     1       1.491  -2.736   1.621  0.00  0.00    -0.274 OA
ENDROOT
BRANCH   8  20
ATOM     20  N   UNL     1       3.018  -7.140   0.042  0.00  0.00    -0.329 N 
ATOM     21  H   UNL     1       2.624  -7.940  -0.339  0.00  0.00    +0.145 HD
ATOM     22  H   UNL     1       3.651  -7.212   0.773  0.00  0.00    +0.145 HD
ENDBRANCH   8  20
BRANCH   9  23
ATOM     23  C   UNL     1       3.981  -4.979   1.308  0.00  0.00    +0.341 C 
ATOM     24  O   UNL     1       5.183  -4.800   1.219  0.00  0.00    -0.245 OA
BRANCH  23  25
ATOM     25  O   UNL     1       3.438  -5.340   2.491  0.00  0.00    -0.465 OA
ATOM     26  C   UNL     1       4.331  -5.495   3.595  0.00  0.00    +0.280 C 
ENDBRANCH  23  25
ENDBRANCH   9  23
BRANCH   1  27
ATOM     27  C   UNL     1       1.097  -0.992  -1.516  0.00  0.00    +0.057 C 
BRANCH  27  29
ATOM     28  C   UNL     1       0.071   0.892  -0.235  0.00  0.00    +0.004 C 
ATOM     29  C   UNL     1       0.046  -0.620  -0.468  0.00  0.00    +0.003 C 
ENDBRANCH  27  29
ENDBRANCH   1  27
BRANCH  17  30
ATOM     30  C   UNL     1       3.261  -0.462   1.950  0.00  0.00    +0.153 C 
BRANCH  30  31
ATOM     31  C   UNL     1       3.903  -0.939   3.227  0.00  0.00    +0.024 A 
ATOM     32  C   UNL     1       3.132  -1.545   4.205  0.00  0.00    +0.129 A 
ATOM     33  C   UNL     1       3.723  -1.983   5.378  0.00  0.00    +0.039 A 
ATOM     34  C   UNL     1       5.081  -1.814   5.572  0.00  0.00    +0.004 A 
ATOM     35  C   UNL     1       5.850  -1.209   4.596  0.00  0.00    +0.020 A 
ATOM     36  C   UNL     1       5.262  -0.776   3.421  0.00  0.00    +0.048 A 
ATOM     37 CL   UNL     1       6.230  -0.022   2.193  0.00  0.00    -0.083 Cl
ATOM     38  F   UNL     1       1.805  -1.710   4.014  0.00  0.00    -0.205 F 
ENDBRANCH  30  31
ENDBRANCH  17  30
TORSDOF 7
