REMARK  Name = ZINC10998031
REMARK  9 active torsions:
REMARK  status: ('A' for Active; 'I' for Inactive)
REMARK    1  A    between atoms: C_1  and  C_2
REMARK    2  A    between atoms: C_4  and  C_32
REMARK    3  A    between atoms: C_5  and  N_9
REMARK    4  A    between atoms: C_6  and  C_8
REMARK    5  A    between atoms: C_10  and  C_12
REMARK    6  A    between atoms: C_12  and  N_13
REMARK    7  A    between atoms: C_14  and  C_16
REMARK    8  A    between atoms: C_18  and  C_27
REMARK    9  A    between atoms: N_19  and  C_21
REMARK                            x       y       z     vdW  Elec       q    Type
REMARK                         _______ _______ _______ _____ _____    ______ ____
ROOT
ATOM      1  N   UNL     1       0.831   8.405  -2.091  0.00  0.00    -0.300 N 
ATOM      2  C   UNL     1       0.442   7.204  -2.563  0.00  0.00    +0.283 C 
ATOM      3  O   UNL     1      -0.740   6.921  -2.607  0.00  0.00    -0.267 OA
ATOM      4  H   UNL     1       1.773   8.630  -2.056  0.00  0.00    +0.150 HD
ENDROOT
BRANCH   2   5
ATOM      5  C   UNL     1       1.452   6.229  -3.027  0.00  0.00    +0.237 A 
ATOM      6  N   UNL     1       2.777   6.425  -3.026  0.00  0.00    -0.202 NA
ATOM      7  C   UNL     1       3.385   5.359  -3.504  0.00  0.00    +0.171 A 
ATOM      8  N   UNL     1       2.426   4.439  -3.825  0.00  0.00    -0.211 N 
ATOM      9  N   UNL     1       1.192   5.032  -3.511  0.00  0.00    -0.139 NA
BRANCH   8  10
ATOM     10  C   UNL     1       2.632   3.164  -4.365  0.00  0.00    +0.068 A 
ATOM     11  C   UNL     1       1.802   2.112  -4.001  0.00  0.00    +0.028 A 
ATOM     12  C   UNL     1       2.008   0.855  -4.536  0.00  0.00    +0.002 A 
ATOM     13  C   UNL     1       3.039   0.644  -5.432  0.00  0.00    +0.000 A 
ATOM     14  C   UNL     1       3.868   1.689  -5.796  0.00  0.00    +0.002 A 
ATOM     15  C   UNL     1       3.668   2.948  -5.265  0.00  0.00    +0.028 A 
ENDBRANCH   8  10
BRANCH   7  16
ATOM     16  C   UNL     1       4.838   5.187  -3.663  0.00  0.00    +0.056 A 
ATOM     17  C   UNL     1       5.829   6.136  -3.631  0.00  0.00    +0.019 A 
ATOM     18  C   UNL     1       7.133   5.734  -3.805  0.00  0.00    +0.008 A 
ATOM     19  C   UNL     1       7.400   4.417  -4.004  0.00  0.00    +0.046 A 
ATOM     20  S   UNL     1       5.771   3.690  -3.941  0.00  0.00    -0.094 S 
ENDBRANCH   7  16
ENDBRANCH   2   5
BRANCH   1  21
ATOM     21  C   UNL     1      -0.171   9.370  -1.631  0.00  0.00    +0.200 C 
BRANCH  21  23
ATOM     22  N   UNL     1      -0.206  11.656  -0.686  0.00  0.00    -0.284 N 
ATOM     23  C   UNL     1       0.520  10.623  -1.157  0.00  0.00    +0.234 C 
ATOM     24  O   UNL     1       1.730  10.701  -1.199  0.00  0.00    -0.274 OA
ATOM     25  H   UNL     1      -1.175  11.614  -0.702  0.00  0.00    +0.155 HD
BRANCH  22  30
ATOM     26  C   UNL     1       2.402  16.248   1.387  0.00  0.00    +0.044 C 
ATOM     27  C   UNL     1       1.709  15.028   0.836  0.00  0.00    -0.050 A 
ATOM     28  C   UNL     1       0.736  15.167  -0.137  0.00  0.00    +0.008 A 
ATOM     29  C   UNL     1       0.099  14.051  -0.643  0.00  0.00    -0.029 A 
ATOM     30  C   UNL     1       0.437  12.788  -0.175  0.00  0.00    +0.039 A 
ATOM     31  C   UNL     1       1.411  12.652   0.805  0.00  0.00    -0.029 A 
ATOM     32  C   UNL     1       2.048  13.772   1.304  0.00  0.00    +0.008 A 
ATOM     33  C   UNL     1       1.777  11.284   1.320  0.00  0.00    +0.045 C 
ATOM     34  C   UNL     1      -0.961  14.204  -1.703  0.00  0.00    +0.045 C 
ENDBRANCH  22  30
ENDBRANCH  21  23
ENDBRANCH   1  21
TORSDOF 6
