REMARK  Name = ZINC09125614
REMARK  8 active torsions:
REMARK  status: ('A' for Active; 'I' for Inactive)
REMARK    1  A    between atoms: C_1  and  C_2
REMARK    2  A    between atoms: C_2  and  C_4
REMARK    3  A    between atoms: C_2  and  S_14
REMARK    4  A    between atoms: S_14  and  C_15
REMARK    5  A    between atoms: C_18  and  C_28
REMARK    6  A    between atoms: N_19  and  C_20
REMARK    7  A    between atoms: C_25  and  O_26
REMARK    8  A    between atoms: O_26  and  C_27
REMARK                            x       y       z     vdW  Elec       q    Type
REMARK                         _______ _______ _______ _____ _____    ______ ____
ROOT
ATOM      1  C   UNL     1       3.116   0.700  -1.115  0.00  0.00    +0.197 A 
ATOM      2  N   UNL     1       4.199   0.096  -0.681  0.00  0.00    -0.122 NA
ATOM      3  N   UNL     1       4.216   0.084   0.604  0.00  0.00    -0.127 NA
ATOM      4  C   UNL     1       3.145   0.686   1.073  0.00  0.00    +0.176 A 
ATOM      5  N   UNL     1       2.403   1.094  -0.015  0.00  0.00    -0.266 N 
ENDROOT
BRANCH   5   6
ATOM      6  C   UNL     1       1.177   1.777   0.002  0.00  0.00    +0.092 A 
ATOM      7  C   UNL     1      -0.014   1.066   0.008  0.00  0.00    +0.030 A 
ATOM      8  C   UNL     1      -1.220   1.741   0.018  0.00  0.00    +0.002 A 
ATOM      9  C   UNL     1      -1.243   3.123   0.033  0.00  0.00    +0.004 A 
ATOM     10  C   UNL     1      -0.060   3.838   0.027  0.00  0.00    +0.048 A 
ATOM     11  C   UNL     1       1.153   3.169   0.011  0.00  0.00    +0.144 A 
BRANCH  11  12
ATOM     12  O   UNL     1       2.318   3.871   0.005  0.00  0.00    -0.493 OA
ATOM     13  C   UNL     1       2.217   5.296   0.016  0.00  0.00    +0.277 C 
ENDBRANCH  11  12
ENDBRANCH   5   6
BRANCH   4  14
ATOM     14  C   UNL     1       2.802   0.883   2.490  0.00  0.00    +0.057 A 
ATOM     15  C   UNL     1       3.329   0.272   3.601  0.00  0.00    +0.019 A 
ATOM     16  C   UNL     1       2.846   0.626   4.841  0.00  0.00    +0.008 A 
ATOM     17  C   UNL     1       1.860   1.556   4.927  0.00  0.00    +0.046 A 
ATOM     18  S   UNL     1       1.586   1.972   3.213  0.00  0.00    -0.094 S 
ENDBRANCH   4  14
BRANCH   1  19
ATOM     19  S   UNL     1       2.666   0.954  -2.799  0.00  0.00    -0.073 S 
BRANCH  19  21
ATOM     20  C   UNL     1       4.078  -1.327  -3.315  0.00  0.00    +0.029 C 
ATOM     21  C   UNL     1       4.075   0.171  -3.623  0.00  0.00    +0.137 C 
BRANCH  21  22
ATOM     22  C   UNL     1       3.964   0.378  -5.112  0.00  0.00    +0.231 C 
ATOM     23  O   UNL     1       2.893   0.656  -5.608  0.00  0.00    -0.274 OA
ATOM     24  N   UNL     1       5.056   0.254  -5.893  0.00  0.00    -0.269 N 
ATOM     25  C   UNL     1       4.935   0.340  -7.279  0.00  0.00    +0.125 A 
ATOM     26  C   UNL     1       6.045   0.106  -8.083  0.00  0.00    +0.045 A 
ATOM     27  C   UNL     1       5.912   0.195  -9.457  0.00  0.00    +0.025 A 
ATOM     28  C   UNL     1       4.667   0.515  -9.983  0.00  0.00    +0.059 A 
ATOM     29  C   UNL     1       3.607   0.735  -9.124  0.00  0.00    +0.132 A 
ATOM     30  N   UNL     1       3.764   0.638  -7.818  0.00  0.00    -0.239 NA
ATOM     31 CL   UNL     1       4.445   0.640 -11.700  0.00  0.00    -0.082 Cl
ATOM     32  H   UNL     1       5.926   0.105  -5.490  0.00  0.00    +0.156 HD
ENDBRANCH  21  22
ENDBRANCH  19  21
ENDBRANCH   1  19
TORSDOF 6
