REMARK  Name = ZINC02139532
REMARK  10 active torsions:
REMARK  status: ('A' for Active; 'I' for Inactive)
REMARK    1  A    between atoms: C_1  and  O_2
REMARK    2  A    between atoms: O_2  and  C_3
REMARK    3  A    between atoms: C_6  and  C_11
REMARK    4  A    between atoms: C_8  and  O_9
REMARK    5  A    between atoms: O_9  and  C_10
REMARK    6  A    between atoms: C_12  and  C_28
REMARK    7  A    between atoms: C_13  and  C_22
REMARK    8  A    between atoms: N_29  and  C_30
REMARK    9  A    between atoms: C_30  and  C_31
REMARK   10  A    between atoms: C_31  and  C_32
REMARK                            x       y       z     vdW  Elec       q    Type
REMARK                         _______ _______ _______ _____ _____    ______ ____
ROOT
ATOM      1  C   UNL     1      -4.949  -2.619   0.184  0.00  0.00    +0.141 C 
ATOM      2  C   UNL     1      -6.080  -1.876   0.229  0.00  0.00    +0.023 C 
ATOM      3  C   UNL     1      -7.438  -2.517   0.166  0.00  0.00    +0.087 C 
ATOM      4  C   UNL     1      -7.335  -3.988   0.467  0.00  0.00    +0.007 A 
ATOM      5  C   UNL     1      -8.474  -4.697   0.804  0.00  0.00    +0.008 A 
ATOM      6  C   UNL     1      -8.395  -6.048   1.083  0.00  0.00    +0.001 A 
ATOM      7  C   UNL     1      -7.175  -6.696   1.027  0.00  0.00    +0.004 A 
ATOM      8  C   UNL     1      -6.035  -5.995   0.691  0.00  0.00    +0.046 A 
ATOM      9  C   UNL     1      -6.111  -4.636   0.409  0.00  0.00    +0.133 A 
ATOM     10  O   UNL     1      -4.982  -3.960   0.077  0.00  0.00    -0.455 OA
ENDROOT
BRANCH   1  14
ATOM     11  C   UNL     1      -1.187  -0.653   0.377  0.00  0.00    +0.162 A 
ATOM     12  C   UNL     1      -2.150  -0.405   1.346  0.00  0.00    +0.050 A 
ATOM     13  C   UNL     1      -3.372  -1.041   1.287  0.00  0.00    +0.015 A 
ATOM     14  C   UNL     1      -3.643  -1.937   0.249  0.00  0.00    +0.021 A 
ATOM     15  C   UNL     1      -2.674  -2.187  -0.726  0.00  0.00    +0.061 A 
ATOM     16  C   UNL     1      -1.453  -1.542  -0.663  0.00  0.00    +0.162 A 
BRANCH  11  18
ATOM     17  C   UNL     1       0.221   0.873   1.533  0.00  0.00    +0.277 C 
ATOM     18  O   UNL     1       0.015  -0.025   0.441  0.00  0.00    -0.491 OA
ENDBRANCH  11  18
BRANCH  16  19
ATOM     19  O   UNL     1      -0.510  -1.778  -1.613  0.00  0.00    -0.491 OA
ATOM     20  C   UNL     1      -0.850  -2.700  -2.651  0.00  0.00    +0.277 C 
ENDBRANCH  16  19
ENDBRANCH   1  14
BRANCH   3  21
ATOM     21  C   UNL     1      -8.013  -2.333  -1.215  0.00  0.00    -0.035 A 
ATOM     22  C   UNL     1      -7.352  -2.849  -2.313  0.00  0.00    +0.004 A 
ATOM     23  C   UNL     1      -7.879  -2.680  -3.580  0.00  0.00    +0.000 A 
ATOM     24  C   UNL     1      -9.068  -1.995  -3.748  0.00  0.00    +0.000 A 
ATOM     25  C   UNL     1      -9.730  -1.479  -2.649  0.00  0.00    +0.000 A 
ATOM     26  C   UNL     1      -9.205  -1.652  -1.382  0.00  0.00    +0.004 A 
ENDBRANCH   3  21
BRANCH   2  27
ATOM     27  C   UNL     1      -5.982  -0.473   0.338  0.00  0.00    +0.086 C 
ATOM     28  N   UNL     1      -7.061   0.248   0.450  0.00  0.00    -0.390 N 
ATOM     29  H   UNL     1      -7.926  -0.183   0.538  0.00  0.00    +0.159 HD
BRANCH  28  30
ATOM     30  C   UNL     1      -6.968   1.710   0.444  0.00  0.00    +0.117 C 
BRANCH  30  31
ATOM     31  C   UNL     1      -7.667   2.260  -0.802  0.00  0.00    +0.058 C 
BRANCH  31  32
ATOM     32  C   UNL     1      -7.471   3.752  -0.870  0.00  0.00    -0.021 A 
ATOM     33  C   UNL     1      -6.320   4.455  -1.443  0.00  0.00    +0.003 A 
ATOM     34  C   UNL     1      -5.137   4.040  -2.057  0.00  0.00    +0.010 A 
ATOM     35  C   UNL     1      -4.239   4.971  -2.497  0.00  0.00    +0.001 A 
ATOM     36  C   UNL     1      -4.492   6.326  -2.338  0.00  0.00    +0.002 A 
ATOM     37  C   UNL     1      -5.654   6.757  -1.735  0.00  0.00    +0.026 A 
ATOM     38  C   UNL     1      -6.583   5.827  -1.280  0.00  0.00    +0.047 A 
ATOM     39  N   UNL     1      -7.804   5.936  -0.654  0.00  0.00    -0.360 N 
ATOM     40  C   UNL     1      -8.321   4.690  -0.423  0.00  0.00    +0.087 A 
ATOM     41  H   UNL     1      -8.236   6.771  -0.415  0.00  0.00    +0.165 HD
ENDBRANCH  31  32
ENDBRANCH  30  31
ENDBRANCH  28  30
ENDBRANCH   2  27
TORSDOF 8
