REMARK  Name = ZINC61887464
REMARK  4 active torsions:
REMARK  status: ('A' for Active; 'I' for Inactive)
REMARK    1  A    between atoms: C_3  and  C_9
REMARK    2  A    between atoms: N_11  and  C_12
REMARK    3  A    between atoms: C_17  and  C_19
REMARK    4  A    between atoms: N_20  and  O_21
REMARK                            x       y       z     vdW  Elec       q    Type
REMARK                         _______ _______ _______ _____ _____    ______ ____
ROOT
ATOM      1  C   UNL     1       3.369   2.235   0.176  0.00  0.00    +0.246 C 
ATOM      2  O   UNL     1       4.374   1.552   0.219  0.00  0.00    -0.270 OA
ATOM      3  N   UNL     1       3.468   3.576   0.100  0.00  0.00    -0.308 N 
ATOM      4  H   UNL     1       2.666   4.121   0.066  0.00  0.00    +0.149 HD
ENDROOT
BRANCH   1   7
ATOM      5  C   UNL     1      -0.357   1.769   0.192  0.00  0.00    +0.016 A 
ATOM      6  C   UNL     1       0.882   2.374   0.161  0.00  0.00    +0.015 A 
ATOM      7  C   UNL     1       2.039   1.593   0.209  0.00  0.00    +0.055 A 
ATOM      8  C   UNL     1       1.932   0.202   0.289  0.00  0.00    +0.054 A 
ATOM      9  C   UNL     1       0.686  -0.391   0.319  0.00  0.00    +0.036 A 
ATOM     10  C   UNL     1      -0.456   0.390   0.270  0.00  0.00    +0.019 A 
ATOM     11 BR   UNL     1      -2.160  -0.430   0.312  0.00  0.00    -0.050 Br
ATOM     12 CL   UNL     1       3.364  -0.779   0.349  0.00  0.00    -0.083 Cl
ENDBRANCH   1   7
BRANCH   3  13
ATOM     13  C   UNL     1       4.787   4.213   0.067  0.00  0.00    +0.083 C 
ATOM     14  C   UNL     1       5.300   4.293  -1.386  0.00  0.00    +0.023 C 
ATOM     15  C   UNL     1       4.901   5.716  -1.851  0.00  0.00    +0.003 C 
ATOM     16  C   UNL     1       5.142   6.570  -0.582  0.00  0.00    +0.013 C 
ATOM     17  C   UNL     1       4.687   5.660   0.580  0.00  0.00    +0.076 C 
BRANCH  17  18
ATOM     18  C   UNL     1       5.592   5.850   1.770  0.00  0.00    +0.136 C 
ATOM     19  N   UNL     1       5.228   6.619   2.741  0.00  0.00    -0.076 NA
ATOM     20  N   UNL     1       6.807   5.203   1.821  0.00  0.00    -0.344 N 
ATOM     21  H   UNL     1       7.080   4.625   1.092  0.00  0.00    +0.144 HD
ATOM     22  H   UNL     1       7.389   5.325   2.587  0.00  0.00    +0.144 HD
BRANCH  19  23
ATOM     23  O   UNL     1       3.936   7.198   2.741  0.00  0.00    -0.408 OA
ATOM     24  H   UNL     1       3.755   7.757   3.508  0.00  0.00    +0.328 HD
ENDBRANCH  19  23
ENDBRANCH  17  18
ENDBRANCH   3  13
TORSDOF 4
