REMARK  Name = ZINC04483458
REMARK  5 active torsions:
REMARK  status: ('A' for Active; 'I' for Inactive)
REMARK    1  A    between atoms: C_1  and  C_2
REMARK    2  A    between atoms: C_2  and  C_3
REMARK    3  A    between atoms: C_6  and  C_9
REMARK    4  A    between atoms: C_9  and  N_10
REMARK    5  A    between atoms: N_17  and  C_20
REMARK                            x       y       z     vdW  Elec       q    Type
REMARK                         _______ _______ _______ _____ _____    ______ ____
ROOT
ATOM      1  N   UNL     1      -6.351  -0.832  -0.014  0.00  0.00    -0.219 N 
ATOM      2  C   UNL     1      -6.884  -0.321  -1.290  0.00  0.00    +0.216 C 
ATOM      3  C   UNL     1      -7.803   0.839  -0.820  0.00  0.00    +0.246 C 
ATOM      4  C   UNL     1      -7.122   2.070  -1.374  0.00  0.00    +0.255 C 
ATOM      5  O   UNL     1      -7.516   3.209  -1.242  0.00  0.00    -0.272 OA
ATOM      6  N   UNL     1      -6.015   1.707  -2.033  0.00  0.00    -0.207 N 
ATOM      7  C   UNL     1      -5.779   0.371  -2.056  0.00  0.00    +0.251 C 
ATOM      8  O   UNL     1      -4.845  -0.185  -2.594  0.00  0.00    -0.273 OA
ATOM      9  N   UNL     1      -7.685   0.807   0.642  0.00  0.00    -0.156 NA
ATOM     10  N   UNL     1      -6.912  -0.071   1.011  0.00  0.00    -0.082 NA
ENDROOT
BRANCH   6  11
ATOM     11  C   UNL     1      -5.167   2.633  -2.658  0.00  0.00    +0.044 A 
ATOM     12  C   UNL     1      -4.430   3.527  -1.893  0.00  0.00    +0.025 A 
ATOM     13  C   UNL     1      -3.595   4.438  -2.511  0.00  0.00    +0.022 A 
ATOM     14  C   UNL     1      -3.493   4.458  -3.891  0.00  0.00    +0.041 A 
ATOM     15  C   UNL     1      -4.226   3.568  -4.655  0.00  0.00    +0.022 A 
ATOM     16  C   UNL     1      -5.057   2.651  -4.042  0.00  0.00    +0.025 A 
ATOM     17 CL   UNL     1      -2.442   5.604  -4.665  0.00  0.00    -0.084 Cl
ENDBRANCH   6  11
BRANCH   1  18
ATOM     18  C   UNL     1      -5.410  -1.943   0.148  0.00  0.00    +0.163 C 
BRANCH  18  22
ATOM     19  C   UNL     1      -7.568  -5.622   0.367  0.00  0.00    -0.048 A 
ATOM     20  C   UNL     1      -7.231  -5.091  -0.864  0.00  0.00    +0.004 A 
ATOM     21  C   UNL     1      -6.533  -3.900  -0.935  0.00  0.00    +0.005 A 
ATOM     22  C   UNL     1      -6.172  -3.240   0.225  0.00  0.00    -0.029 A 
ATOM     23  C   UNL     1      -6.510  -3.771   1.456  0.00  0.00    +0.005 A 
ATOM     24  C   UNL     1      -7.212  -4.960   1.527  0.00  0.00    +0.004 A 
BRANCH  19  26
ATOM     25  C   UNL     1      -9.832  -6.632   0.437  0.00  0.00    +0.009 C 
ATOM     26  C   UNL     1      -8.330  -6.920   0.445  0.00  0.00    +0.032 C 
ENDBRANCH  19  26
ENDBRANCH  18  22
ENDBRANCH   1  18
TORSDOF 4
