REMARK  Name = ZINC40375162
REMARK  9 active torsions:
REMARK  status: ('A' for Active; 'I' for Inactive)
REMARK    1  A    between atoms: C_1  and  O_2
REMARK    2  A    between atoms: O_2  and  C_3
REMARK    3  A    between atoms: C_5  and  N_37
REMARK    4  A    between atoms: C_8  and  N_9
REMARK    5  A    between atoms: C_13  and  N_17
REMARK    6  A    between atoms: N_17  and  C_18
REMARK    7  A    between atoms: C_18  and  C_19
REMARK    8  A    between atoms: C_19  and  C_21
REMARK    9  A    between atoms: C_19  and  C_27
REMARK                            x       y       z     vdW  Elec       q    Type
REMARK                         _______ _______ _______ _____ _____    ______ ____
ROOT
ATOM      1  N   UNL     1       2.976  -3.279  -1.328  0.00  0.00    +0.388 N 
ATOM      2  H   UNL     1       2.960  -2.306  -1.060  0.00  0.00    -0.085 HD
ATOM      3  H   UNL     1       3.800  -3.720  -0.946  0.00  0.00    -0.085 HD
ENDROOT
BRANCH   1   8
ATOM      4  N   UNL     1      -0.072  -2.781  -0.013  0.00  0.00    -0.208 N 
ATOM      5  C   UNL     1       0.548  -3.180   1.105  0.00  0.00    +0.225 C 
ATOM      6  O   UNL     1       0.175  -2.950   2.235  0.00  0.00    -0.275 OA
ATOM      7  C   UNL     1       1.788  -3.964   0.734  0.00  0.00    +0.090 C 
ATOM      8  C   UNL     1       1.776  -3.950  -0.809  0.00  0.00    +0.026 C 
ATOM      9  C   UNL     1       0.529  -3.163  -1.147  0.00  0.00    +0.213 C 
ATOM     10  O   UNL     1       0.137  -2.916  -2.267  0.00  0.00    -0.277 OA
BRANCH   4  16
ATOM     11  C   UNL     1      -1.201  -0.638   0.010  0.00  0.00    +0.144 A 
ATOM     12  C   UNL     1      -2.374   0.100   0.019  0.00  0.00    +0.080 A 
ATOM     13  C   UNL     1      -3.596  -0.546   0.028  0.00  0.00    +0.130 A 
ATOM     14  C   UNL     1      -3.652  -1.928   0.028  0.00  0.00    +0.035 A 
ATOM     15  C   UNL     1      -2.487  -2.670   0.018  0.00  0.00    +0.030 A 
ATOM     16  C   UNL     1      -1.257  -2.029   0.003  0.00  0.00    +0.085 A 
BRANCH  13  17
ATOM     17  N   UNL     1      -4.848   0.243   0.039  0.00  0.00    +0.057 N 
ATOM     18  O   UNL     1      -4.801   1.451   0.040  0.00  0.00    -0.126 OA
ATOM     19  O   UNL     1      -5.918  -0.320   0.046  0.00  0.00    -0.126 OA
ENDBRANCH  13  17
BRANCH  11  21
ATOM     20  C   UNL     1      -0.017   1.425   0.010  0.00  0.00    +0.277 C 
ATOM     21  O   UNL     1       0.002  -0.004   0.002  0.00  0.00    -0.493 OA
ENDBRANCH  11  21
ENDBRANCH   4  16
ENDBRANCH   1   8
BRANCH   1  22
ATOM     22  C   UNL     1       3.000  -3.384  -2.793  0.00  0.00    -0.069 C 
BRANCH  22  23
ATOM     23  C   UNL     1       4.250  -2.686  -3.334  0.00  0.00    +0.034 C 
BRANCH  23  24
ATOM     24  C   UNL     1       4.212  -2.686  -4.840  0.00  0.00    -0.017 A 
ATOM     25  C   UNL     1       4.167  -3.764  -5.638  0.00  0.00    +0.087 A 
ATOM     26  N   UNL     1       4.144  -3.374  -6.949  0.00  0.00    -0.360 N 
ATOM     27  H   UNL     1       4.111  -3.976  -7.709  0.00  0.00    +0.165 HD
ATOM     28  C   UNL     1       4.175  -2.000  -7.030  0.00  0.00    +0.047 A 
ATOM     29  C   UNL     1       4.213  -1.508  -5.712  0.00  0.00    +0.003 A 
ATOM     30  C   UNL     1       4.244  -0.132  -5.483  0.00  0.00    +0.010 A 
ATOM     31  C   UNL     1       4.234   0.733  -6.542  0.00  0.00    +0.001 A 
ATOM     32  C   UNL     1       4.193   0.253  -7.843  0.00  0.00    +0.002 A 
ATOM     33  C   UNL     1       4.171  -1.102  -8.092  0.00  0.00    +0.026 A 
ENDBRANCH  23  24
BRANCH  23  34
ATOM     34  C   UNL     1       5.479  -3.419  -2.862  0.00  0.00    -0.042 A 
ATOM     35  C   UNL     1       5.667  -4.744  -3.205  0.00  0.00    +0.004 A 
ATOM     36  C   UNL     1       6.795  -5.417  -2.772  0.00  0.00    +0.000 A 
ATOM     37  C   UNL     1       7.734  -4.763  -1.996  0.00  0.00    +0.000 A 
ATOM     38  C   UNL     1       7.545  -3.437  -1.653  0.00  0.00    +0.000 A 
ATOM     39  C   UNL     1       6.420  -2.764  -2.090  0.00  0.00    +0.004 A 
ENDBRANCH  23  34
ENDBRANCH  22  23
ENDBRANCH   1  22
TORSDOF 8
