REMARK  Name = ZINC16161128
REMARK  10 active torsions:
REMARK  status: ('A' for Active; 'I' for Inactive)
REMARK    1  A    between atoms: C_1  and  C_2
REMARK    2  A    between atoms: C_2  and  C_3
REMARK    3  A    between atoms: C_4  and  C_31
REMARK    4  A    between atoms: C_5  and  C_29
REMARK    5  A    between atoms: C_15  and  N_16
REMARK    6  A    between atoms: N_16  and  C_17
REMARK    7  A    between atoms: C_20  and  S_23
REMARK    8  A    between atoms: S_23  and  C_26
REMARK    9  A    between atoms: C_26  and  C_27
REMARK   10  A    between atoms: C_27  and  O_28
REMARK                            x       y       z     vdW  Elec       q    Type
REMARK                         _______ _______ _______ _____ _____    ______ ____
ROOT
ATOM      1  C   UNL     1       3.683  -0.552  -0.942  0.00  0.00    -0.005 A 
ATOM      2  C   UNL     1       2.869  -1.675  -0.974  0.00  0.00    -0.023 A 
ATOM      3  C   UNL     1       1.811  -1.781  -0.072  0.00  0.00    +0.098 A 
ATOM      4  C   UNL     1       1.592  -0.694   0.888  0.00  0.00    +0.158 A 
ATOM      5  N   UNL     1       0.687  -0.531   1.836  0.00  0.00    -0.226 NA
ATOM      6  C   UNL     1       0.894   0.649   2.467  0.00  0.00    +0.090 A 
ATOM      7  C   UNL     1       0.246   1.298   3.524  0.00  0.00    +0.030 A 
ATOM      8  C   UNL     1       0.694   2.515   3.952  0.00  0.00    +0.002 A 
ATOM      9  C   UNL     1       1.794   3.115   3.355  0.00  0.00    +0.002 A 
ATOM     10  C   UNL     1       2.451   2.492   2.315  0.00  0.00    +0.028 A 
ATOM     11  C   UNL     1       2.009   1.257   1.862  0.00  0.00    +0.075 A 
ATOM     12  N   UNL     1       2.433   0.392   0.868  0.00  0.00    -0.279 N 
ATOM     13  C   UNL     1       3.460   0.457  -0.032  0.00  0.00    +0.113 A 
ATOM     14  C   UNL     1       3.126  -2.772  -1.976  0.00  0.00    +0.045 C 
ENDROOT
BRANCH   1  16
ATOM     15  C   UNL     1       4.344   0.262  -3.189  0.00  0.00    +0.009 C 
ATOM     16  C   UNL     1       4.828  -0.435  -1.916  0.00  0.00    +0.035 C 
ENDBRANCH   1  16
BRANCH  13  17
ATOM     17  N   UNL     1       4.287   1.555  -0.030  0.00  0.00    -0.300 N 
ATOM     18  H   UNL     1       5.131   1.525   0.447  0.00  0.00    +0.154 HD
BRANCH  17  19
ATOM     19  C   UNL     1       3.912   2.715  -0.714  0.00  0.00    +0.032 A 
ATOM     20  C   UNL     1       2.659   2.798  -1.308  0.00  0.00    +0.025 A 
ATOM     21  C   UNL     1       2.288   3.947  -1.977  0.00  0.00    +0.029 A 
ATOM     22  C   UNL     1       3.168   5.011  -2.067  0.00  0.00    +0.088 A 
ATOM     23  C   UNL     1       4.419   4.929  -1.483  0.00  0.00    +0.029 A 
ATOM     24  C   UNL     1       4.793   3.784  -0.806  0.00  0.00    +0.025 A 
BRANCH  22  25
ATOM     25  S   UNL     1       2.695   6.473  -2.929  0.00  0.00    -0.001 S 
ATOM     26  O   UNL     1       1.288   6.559  -2.752  0.00  0.00    -0.169 OA
ATOM     27  O   UNL     1       3.552   7.486  -2.422  0.00  0.00    -0.169 OA
BRANCH  25  28
ATOM     28  C   UNL     1       3.086   6.136  -4.668  0.00  0.00    +0.199 C 
BRANCH  28  29
ATOM     29  C   UNL     1       2.712   7.351  -5.520  0.00  0.00    +0.179 C 
BRANCH  29  30
ATOM     30  O   UNL     1       3.020   7.086  -6.890  0.00  0.00    -0.393 OA
ATOM     31  H   UNL     1       2.809   7.815  -7.489  0.00  0.00    +0.209 HD
ENDBRANCH  29  30
ENDBRANCH  28  29
ENDBRANCH  25  28
ENDBRANCH  22  25
ENDBRANCH  17  19
ENDBRANCH  13  17
BRANCH   3  32
ATOM     32  C   UNL     1       0.954  -2.929  -0.082  0.00  0.00    +0.103 C 
ATOM     33  N   UNL     1       0.275  -3.839  -0.091  0.00  0.00    -0.191 NA
ENDBRANCH   3  32
TORSDOF 8
