REMARK  Name = ZINC22467603
REMARK  5 active torsions:
REMARK  status: ('A' for Active; 'I' for Inactive)
REMARK    1  A    between atoms: C_3  and  S_8
REMARK    2  A    between atoms: S_8  and  N_11
REMARK    3  A    between atoms: C_15  and  C_17
REMARK    4  A    between atoms: N_19  and  N_20
REMARK    5  A    between atoms: C_21  and  C_23
REMARK                            x       y       z     vdW  Elec       q    Type
REMARK                         _______ _______ _______ _____ _____    ______ ____
ROOT
ATOM      1  C   UNL     1       7.962  -4.087  -1.771  0.00  0.00    +0.248 C 
ATOM      2  O   UNL     1       7.087  -4.923  -1.697  0.00  0.00    -0.273 OA
ATOM      3  N   UNL     1       7.644  -2.777  -1.771  0.00  0.00    -0.233 N 
ATOM      4  H   UNL     1       8.438  -2.018  -1.839  0.00  0.00    +0.173 HD
ENDROOT
BRANCH   1   9
ATOM      5  N   UNL     1       9.496  -5.979  -1.838  0.00  0.00    -0.165 NA
ATOM      6  C   UNL     1      10.315  -6.381  -0.681  0.00  0.00    +0.110 C 
ATOM      7  C   UNL     1      10.200  -5.202   0.316  0.00  0.00    +0.019 C 
ATOM      8  C   UNL     1      10.188  -3.979  -0.646  0.00  0.00    +0.031 C 
ATOM      9  C   UNL     1       9.405  -4.512  -1.864  0.00  0.00    +0.167 C 
BRANCH   5  10
ATOM     10  S   UNL     1       8.794  -7.009  -2.929  0.00  0.00    +0.062 S 
ATOM     11  O   UNL     1       8.643  -8.258  -2.268  0.00  0.00    -0.153 OA
ATOM     12  O   UNL     1       7.695  -6.311  -3.498  0.00  0.00    -0.153 OA
BRANCH  10  15
ATOM     13  C   UNL     1      11.780  -8.501  -5.165  0.00  0.00    +0.040 A 
ATOM     14  C   UNL     1      10.868  -8.300  -4.146  0.00  0.00    +0.031 A 
ATOM     15  C   UNL     1       9.956  -7.264  -4.228  0.00  0.00    +0.106 A 
ATOM     16  C   UNL     1       9.953  -6.431  -5.331  0.00  0.00    +0.031 A 
ATOM     17  C   UNL     1      10.867  -6.626  -6.349  0.00  0.00    +0.040 A 
ATOM     18  C   UNL     1      11.780  -7.664  -6.268  0.00  0.00    +0.124 A 
ATOM     19  F   UNL     1      12.672  -7.859  -7.264  0.00  0.00    -0.205 F 
ENDBRANCH  10  15
ENDBRANCH   5  10
ENDBRANCH   1   9
BRANCH   3  20
ATOM     20  N   UNL     1       6.303  -2.381  -1.685  0.00  0.00    -0.230 N 
ATOM     21  C   UNL     1       5.985  -1.072  -1.685  0.00  0.00    +0.267 C 
ATOM     22  O   UNL     1       6.863  -0.233  -1.759  0.00  0.00    -0.268 OA
ATOM     23  H   UNL     1       5.509  -3.140  -1.617  0.00  0.00    +0.173 HD
BRANCH  21  24
ATOM     24  C   UNL     1       4.582  -0.658  -1.594  0.00  0.00    +0.076 A 
ATOM     25  C   UNL     1       4.047   0.618  -1.578  0.00  0.00    +0.024 A 
ATOM     26  C   UNL     1       2.667   0.747  -1.478  0.00  0.00    -0.036 A 
ATOM     27  C   UNL     1       1.953  -0.401  -1.435  0.00  0.00    -0.006 A 
ATOM     28  S   UNL     1       3.114  -1.669  -1.476  0.00  0.00    -0.088 S 
ATOM     29  C   UNL     1       0.447  -0.525  -1.375  0.00  0.00    +0.043 C 
ATOM     30  C   UNL     1       0.002  -0.004   0.002  0.00  0.00    +0.005 C 
ATOM     31  C   UNL     1      -0.018   1.506   0.010  0.00  0.00    +0.001 C 
ATOM     32  C   UNL     1       1.322   2.196   0.001  0.00  0.00    +0.005 C 
ATOM     33  C   UNL     1       1.996   2.122  -1.370  0.00  0.00    +0.036 C 
ENDBRANCH  21  24
ENDBRANCH   3  20
TORSDOF 5
