REMARK  Name = ZINC09322592
REMARK  4 active torsions:
REMARK  status: ('A' for Active; 'I' for Inactive)
REMARK    1  A    between atoms: C_1  and  N_2
REMARK    2  A    between atoms: C_6  and  C_8
REMARK    3  A    between atoms: C_8  and  S_9
REMARK    4  A    between atoms: S_9  and  C_10
REMARK                            x       y       z     vdW  Elec       q    Type
REMARK                         _______ _______ _______ _____ _____    ______ ____
ROOT
ATOM      1  C   UNL     1       1.923  -6.569   3.390  0.00  0.00    +0.191 A 
ATOM      2  N   UNL     1       1.323  -7.109   2.336  0.00  0.00    -0.207 NA
ATOM      3  C   UNL     1       1.378  -8.406   2.084  0.00  0.00    +0.129 A 
ATOM      4  C   UNL     1       2.103  -9.255   2.966  0.00  0.00    +0.051 A 
ATOM      5  C   UNL     1       2.296 -10.708   2.881  0.00  0.00    -0.025 A 
ATOM      6  C   UNL     1       3.029 -11.280   3.855  0.00  0.00    -0.004 A 
ATOM      7  S   UNL     1       3.508  -9.945   4.922  0.00  0.00    -0.073 S 
ATOM      8  C   UNL     1       2.713  -8.615   4.061  0.00  0.00    +0.115 A 
ATOM      9  N   UNL     1       2.617  -7.312   4.243  0.00  0.00    -0.214 NA
ATOM     10  C   UNL     1       3.363 -12.730   4.022  0.00  0.00    +0.043 C 
ATOM     11  C   UNL     1       3.893 -13.284   2.693  0.00  0.00    +0.005 C 
ATOM     12  C   UNL     1       2.710 -13.804   1.883  0.00  0.00    +0.001 C 
ATOM     13  C   UNL     1       1.471 -12.956   2.166  0.00  0.00    +0.005 C 
ATOM     14  C   UNL     1       1.699 -11.514   1.730  0.00  0.00    +0.037 C 
ATOM     15  N   UNL     1       0.739  -8.931   0.975  0.00  0.00    -0.343 N 
ATOM     16  H   UNL     1       1.070  -9.745   0.565  0.00  0.00    +0.144 HD
ATOM     17  H   UNL     1      -0.041  -8.485   0.609  0.00  0.00    +0.144 HD
ENDROOT
BRANCH   1  18
ATOM     18  S   UNL     1       1.802  -4.832   3.658  0.00  0.00    -0.077 S 
BRANCH  18  19
ATOM     19  C   UNL     1       0.783  -4.245   2.276  0.00  0.00    +0.173 C 
BRANCH  19  25
ATOM     20  C   UNL     1      -1.197   1.350   0.743  0.00  0.00    +0.129 C 
ATOM     21  N   UNL     1      -1.018  -0.101   0.636  0.00  0.00    -0.302 N 
ATOM     22  C   UNL     1      -0.292  -0.760   1.560  0.00  0.00    +0.306 C 
ATOM     23  O   UNL     1       0.215  -0.151   2.482  0.00  0.00    -0.252 OA
ATOM     24  N   UNL     1      -0.127  -2.094   1.462  0.00  0.00    -0.240 N 
ATOM     25  C   UNL     1       0.600  -2.753   2.386  0.00  0.00    +0.231 C 
ATOM     26  O   UNL     1       1.105  -2.146   3.305  0.00  0.00    -0.274 OA
ATOM     27  H   UNL     1      -1.423  -0.586  -0.099  0.00  0.00    +0.150 HD
ATOM     28  H   UNL     1      -0.532  -2.579   0.727  0.00  0.00    +0.159 HD
ENDBRANCH  19  25
ENDBRANCH  18  19
ENDBRANCH   1  18
TORSDOF 3
