REMARK  Name = ZINC39628335
REMARK  8 active torsions:
REMARK  status: ('A' for Active; 'I' for Inactive)
REMARK    1  A    between atoms: C_1  and  C_2
REMARK    2  A    between atoms: N_8  and  C_9
REMARK    3  A    between atoms: C_9  and  C_10
REMARK    4  A    between atoms: C_10  and  C_11
REMARK    5  A    between atoms: C_11  and  N_12
REMARK    6  A    between atoms: C_13  and  C_15
REMARK    7  A    between atoms: C_26  and  C_28
REMARK    8  A    between atoms: C_31  and  C_34
REMARK                            x       y       z     vdW  Elec       q    Type
REMARK                         _______ _______ _______ _____ _____    ______ ____
ROOT
ATOM      1  C   UNL     1       0.779  -0.525   8.361  0.00  0.00    +0.100 C 
ATOM      2  C   UNL     1       1.040  -2.013   8.686  0.00  0.00    +0.121 C 
ATOM      3  N   UNL     1       1.027  -2.080  10.166  0.00  0.00    -0.296 N 
ATOM      4  C   UNL     1      -0.068  -1.164  10.568  0.00  0.00    +0.115 C 
ATOM      5  C   UNL     1       0.051   0.028   9.597  0.00  0.00    -0.004 C 
ATOM      6  C   UNL     1      -1.335   0.534   9.212  0.00  0.00    -0.010 C 
ATOM      7  C   UNL     1      -2.016   1.133  10.447  0.00  0.00    -0.082 C 
ATOM      8  N   UNL     1      -1.200   2.233  10.973  0.00  0.00    +0.379 N 
ATOM      9  C   UNL     1       0.099   1.721  11.427  0.00  0.00    -0.082 C 
ATOM     10  C   UNL     1       0.869   1.148  10.234  0.00  0.00    -0.010 C 
ATOM     11  C   UNL     1       1.829  -2.809  10.967  0.00  0.00    +0.247 C 
ATOM     12  O   UNL     1       2.770  -3.417  10.494  0.00  0.00    -0.270 OA
ATOM     13  H   UNL     1      -1.054   2.919  10.247  0.00  0.00    -0.086 HD
ATOM     14  H   UNL     1      -1.679   2.665  11.748  0.00  0.00    -0.086 HD
ENDROOT
BRANCH  11  15
ATOM     15  C   UNL     1       1.566  -2.869  12.421  0.00  0.00    +0.037 A 
ATOM     16  C   UNL     1       0.299  -2.558  12.917  0.00  0.00    +0.013 A 
ATOM     17  C   UNL     1       0.060  -2.617  14.274  0.00  0.00    +0.013 A 
ATOM     18  C   UNL     1       1.073  -2.982  15.143  0.00  0.00    +0.055 A 
ATOM     19  C   UNL     1       2.331  -3.290  14.658  0.00  0.00    +0.013 A 
ATOM     20  C   UNL     1       2.582  -3.242  13.302  0.00  0.00    +0.013 A 
BRANCH  18  21
ATOM     21  C   UNL     1       0.805  -3.043  16.625  0.00  0.00    +0.417 C 
ATOM     22  F   UNL     1       0.366  -4.326  16.967  0.00  0.00    -0.166 F 
ATOM     23  F   UNL     1       1.980  -2.750  17.324  0.00  0.00    -0.166 F 
ATOM     24  F   UNL     1      -0.182  -2.108  16.959  0.00  0.00    -0.166 F 
ENDBRANCH  18  21
ENDBRANCH  11  15
BRANCH   1  26
ATOM     25  N   UNL     1       0.026   0.671   6.331  0.00  0.00    -0.315 N 
ATOM     26  C   UNL     1      -0.095  -0.401   7.139  0.00  0.00    +0.218 C 
ATOM     27  O   UNL     1      -0.906  -1.265   6.883  0.00  0.00    -0.275 OA
ATOM     28  H   UNL     1       0.675   1.362   6.536  0.00  0.00    +0.149 HD
BRANCH  25  29
ATOM     29  C   UNL     1      -0.823   0.792   5.143  0.00  0.00    +0.102 C 
BRANCH  29  30
ATOM     30  C   UNL     1      -0.487   2.090   4.406  0.00  0.00    +0.000 C 
BRANCH  30  31
ATOM     31  C   UNL     1      -1.374   2.217   3.166  0.00  0.00    -0.077 C 
BRANCH  31  38
ATOM     32  C   UNL     1      -3.419   3.631   1.862  0.00  0.00    -0.013 C 
ATOM     33  C   UNL     1      -1.982   3.643   1.337  0.00  0.00    -0.072 C 
ATOM     34  C   UNL     1      -1.702   4.979   0.647  0.00  0.00    -0.016 C 
ATOM     35  C   UNL     1      -0.263   4.986   0.124  0.00  0.00    -0.003 C 
ATOM     36  C   UNL     1       0.695   4.723   1.289  0.00  0.00    -0.019 C 
ATOM     37  C   UNL     1       0.326   3.396   1.956  0.00  0.00    -0.078 C 
ATOM     38  N   UNL     1      -1.052   3.463   2.458  0.00  0.00    +0.381 N 
ATOM     39  H   UNL     1      -1.139   4.241   3.095  0.00  0.00    -0.081 HD
ENDBRANCH  31  38
ENDBRANCH  30  31
ENDBRANCH  29  30
ENDBRANCH  25  29
ENDBRANCH   1  26
TORSDOF 7
