REMARK  Name = ZINC39748232
REMARK  11 active torsions:
REMARK  status: ('A' for Active; 'I' for Inactive)
REMARK    1  A    between atoms: C_2  and  C_3
REMARK    2  A    between atoms: C_3  and  N_4
REMARK    3  A    between atoms: C_5  and  C_22
REMARK    4  A    between atoms: C_8  and  S_9
REMARK    5  A    between atoms: S_9  and  C_10
REMARK    6  A    between atoms: C_10  and  C_11
REMARK    7  A    between atoms: C_11  and  C_13
REMARK    8  A    between atoms: C_16  and  N_19
REMARK    9  A    between atoms: C_22  and  C_23
REMARK   10  A    between atoms: C_23  and  N_24
REMARK   11  A    between atoms: C_25  and  C_27
REMARK                            x       y       z     vdW  Elec       q    Type
REMARK                         _______ _______ _______ _____ _____    ______ ____
ROOT
ATOM      1  N   UNL     1      -1.318  -1.700  -1.126  0.00  0.00    -0.302 N 
ATOM      2  C   UNL     1      -1.790  -1.448  -2.385  0.00  0.00    +0.136 A 
ATOM      3  N   UNL     1      -1.624  -2.535  -3.085  0.00  0.00    -0.133 NA
ATOM      4  N   UNL     1      -1.084  -3.449  -2.361  0.00  0.00    -0.122 NA
ATOM      5  C   UNL     1      -0.869  -2.989  -1.150  0.00  0.00    +0.192 A 
ENDROOT
BRANCH   1   6
ATOM      6  C   UNL     1      -1.293  -0.775   0.010  0.00  0.00    +0.152 C 
BRANCH   6   8
ATOM      7  C   UNL     1      -0.016   1.306   0.009  0.00  0.00    +0.005 C 
ATOM      8  C   UNL     1       0.002  -0.004   0.002  0.00  0.00    -0.013 C 
ENDBRANCH   6   8
ENDBRANCH   1   6
BRANCH   5   9
ATOM      9  S   UNL     1      -0.142  -3.870   0.192  0.00  0.00    -0.078 S 
BRANCH   9  10
ATOM     10  C   UNL     1       0.221  -5.506  -0.503  0.00  0.00    +0.157 C 
BRANCH  10  11
ATOM     11  C   UNL     1       0.854  -6.372   0.555  0.00  0.00    +0.173 C 
ATOM     12  O   UNL     1       1.042  -5.930   1.668  0.00  0.00    -0.291 OA
BRANCH  11  13
ATOM     13  C   UNL     1       1.245  -7.755   0.237  0.00  0.00    +0.018 A 
ATOM     14  C   UNL     1       1.035  -8.267  -1.047  0.00  0.00    +0.013 A 
ATOM     15  C   UNL     1       1.404  -9.564  -1.337  0.00  0.00    +0.033 A 
ATOM     16  C   UNL     1       1.980 -10.358  -0.361  0.00  0.00    +0.126 A 
ATOM     17  C   UNL     1       2.191  -9.858   0.913  0.00  0.00    +0.033 A 
ATOM     18  C   UNL     1       1.833  -8.562   1.216  0.00  0.00    +0.013 A 
BRANCH  16  19
ATOM     19  N   UNL     1       2.372 -11.749  -0.680  0.00  0.00    +0.056 N 
ATOM     20  O   UNL     1       2.189 -12.189  -1.791  0.00  0.00    -0.126 OA
ATOM     21  O   UNL     1       2.875 -12.446   0.171  0.00  0.00    -0.126 OA
ENDBRANCH  16  19
ENDBRANCH  11  13
ENDBRANCH  10  11
ENDBRANCH   9  10
ENDBRANCH   5   9
BRANCH   2  22
ATOM     22  C   UNL     1      -2.390  -0.155  -2.872  0.00  0.00    +0.095 C 
BRANCH  22  23
ATOM     23  C   UNL     1      -1.285   0.740  -3.436  0.00  0.00    +0.112 C 
BRANCH  23  24
ATOM     24  N   UNL     1      -1.869   1.998  -3.909  0.00  0.00    -0.311 N 
ATOM     25  C   UNL     1      -1.079   2.946  -4.450  0.00  0.00    +0.244 C 
ATOM     26  O   UNL     1       0.119   2.758  -4.545  0.00  0.00    -0.270 OA
ATOM     27  H   UNL     1      -2.824   2.148  -3.833  0.00  0.00    +0.149 HD
BRANCH  25  28
ATOM     28  C   UNL     1      -1.668   4.215  -4.927  0.00  0.00    +0.037 A 
ATOM     29  C   UNL     1      -3.041   4.436  -4.814  0.00  0.00    +0.014 A 
ATOM     30  C   UNL     1      -3.585   5.622  -5.261  0.00  0.00    +0.021 A 
ATOM     31  C   UNL     1      -2.771   6.592  -5.822  0.00  0.00    +0.041 A 
ATOM     32  C   UNL     1      -1.408   6.378  -5.936  0.00  0.00    +0.021 A 
ATOM     33  C   UNL     1      -0.852   5.199  -5.488  0.00  0.00    +0.014 A 
ATOM     34 CL   UNL     1      -3.463   8.082  -6.383  0.00  0.00    -0.084 Cl
ENDBRANCH  25  28
ENDBRANCH  23  24
ENDBRANCH  22  23
ENDBRANCH   2  22
TORSDOF 11
