REMARK  Name = ZINC65390709
REMARK  4 active torsions:
REMARK  status: ('A' for Active; 'I' for Inactive)
REMARK    1  A    between atoms: N_13  and  C_14
REMARK    2  A    between atoms: C_14  and  C_15
REMARK    3  A    between atoms: C_15  and  C_16
REMARK    4  A    between atoms: C_16  and  N_17
REMARK                            x       y       z     vdW  Elec       q    Type
REMARK                         _______ _______ _______ _____ _____    ______ ____
ROOT
ATOM      1  C   UNL     1       3.772  -4.738   0.692  0.00  0.00    +0.000 A 
ATOM      2  C   UNL     1       4.859  -4.096   0.128  0.00  0.00    +0.002 A 
ATOM      3  C   UNL     1       4.807  -2.738  -0.114  0.00  0.00    +0.024 A 
ATOM      4  C   UNL     1       3.662  -2.018   0.206  0.00  0.00    +0.041 A 
ATOM      5  C   UNL     1       2.571  -2.662   0.768  0.00  0.00    -0.026 A 
ATOM      6  C   UNL     1       2.633  -4.024   1.010  0.00  0.00    +0.005 A 
ATOM      7  C   UNL     1       1.311  -1.916   1.118  0.00  0.00    +0.038 C 
ATOM      8  C   UNL     1       1.596  -0.421   1.260  0.00  0.00    +0.024 C 
ATOM      9  C   UNL     1       2.341   0.064   0.010  0.00  0.00    +0.115 C 
ATOM     10  N   UNL     1       3.631  -0.638  -0.044  0.00  0.00    -0.255 N 
ATOM     11  C   UNL     1       4.765   0.032  -0.329  0.00  0.00    +0.306 C 
ATOM     12  O   UNL     1       5.839  -0.532  -0.257  0.00  0.00    -0.252 OA
ATOM     13  N   UNL     1       4.707   1.329  -0.693  0.00  0.00    -0.299 N 
ATOM     14  H   UNL     1       3.859   1.799  -0.681  0.00  0.00    +0.150 HD
ENDROOT
BRANCH  13  15
ATOM     15  C   UNL     1       5.926   2.028  -1.107  0.00  0.00    +0.107 C 
BRANCH  15  16
ATOM     16  C   UNL     1       5.587   3.476  -1.466  0.00  0.00    +0.042 C 
BRANCH  16  17
ATOM     17  C   UNL     1       6.860   4.206  -1.898  0.00  0.00    +0.145 C 
BRANCH  17  18
ATOM     18  N   UNL     1       6.535   5.592  -2.242  0.00  0.00    -0.271 N 
ATOM     19  C   UNL     1       7.112   6.695  -1.721  0.00  0.00    +0.108 A 
ATOM     20  C   UNL     1       6.534   7.774  -2.298  0.00  0.00    +0.041 A 
ATOM     21  C   UNL     1       5.571   7.315  -3.202  0.00  0.00    +0.134 A 
ATOM     22  N   UNL     1       5.575   6.007  -3.174  0.00  0.00    -0.180 NA
ENDBRANCH  17  18
ENDBRANCH  16  17
ENDBRANCH  15  16
ENDBRANCH  13  15
TORSDOF 4
