REMARK  Name = ZINC35756315
REMARK  8 active torsions:
REMARK  status: ('A' for Active; 'I' for Inactive)
REMARK    1  A    between atoms: C_4  and  C_7
REMARK    2  A    between atoms: C_7  and  N_8
REMARK    3  A    between atoms: C_9  and  C_32
REMARK    4  A    between atoms: C_11  and  C_16
REMARK    5  A    between atoms: C_19  and  N_22
REMARK    6  A    between atoms: C_23  and  C_25
REMARK    7  A    between atoms: N_34  and  C_35
REMARK    8  A    between atoms: C_35  and  C_36
REMARK                            x       y       z     vdW  Elec       q    Type
REMARK                         _______ _______ _______ _____ _____    ______ ____
ROOT
ATOM      1  N   UNL     1       4.295  -0.781   1.243  0.00  0.00    -0.248 N 
ATOM      2  C   UNL     1       5.183   0.005   2.122  0.00  0.00    +0.210 C 
ATOM      3  C   UNL     1       5.414  -0.965   3.305  0.00  0.00    +0.238 C 
ATOM      4  O   UNL     1       4.249  -1.810   3.233  0.00  0.00    -0.440 OA
ATOM      5  C   UNL     1       3.814  -1.812   1.962  0.00  0.00    +0.405 C 
ATOM      6  O   UNL     1       3.067  -2.657   1.509  0.00  0.00    -0.226 OA
ENDROOT
BRANCH   3   7
ATOM      7  C   UNL     1       5.458  -0.218   4.613  0.00  0.00    -0.005 A 
ATOM      8  C   UNL     1       4.283   0.072   5.282  0.00  0.00    +0.009 A 
ATOM      9  C   UNL     1       4.320   0.757   6.481  0.00  0.00    +0.024 A 
ATOM     10  C   UNL     1       5.539   1.155   7.014  0.00  0.00    +0.034 A 
ATOM     11  C   UNL     1       6.717   0.862   6.340  0.00  0.00    +0.024 A 
ATOM     12  C   UNL     1       6.674   0.172   5.145  0.00  0.00    +0.009 A 
BRANCH  10  13
ATOM     13  N   UNL     1       5.580   1.849   8.228  0.00  0.00    -0.281 N 
ATOM     14  C   UNL     1       4.669   1.585   9.186  0.00  0.00    +0.251 C 
ATOM     15  O   UNL     1       3.873   0.679   9.035  0.00  0.00    -0.270 OA
ATOM     16  H   UNL     1       6.263   2.520   8.380  0.00  0.00    +0.155 HD
BRANCH  14  17
ATOM     17  C   UNL     1       4.639   2.397  10.419  0.00  0.00    +0.072 A 
ATOM     18  C   UNL     1       5.548   3.443  10.593  0.00  0.00    +0.016 A 
ATOM     19  C   UNL     1       5.515   4.197  11.747  0.00  0.00    +0.001 A 
ATOM     20  C   UNL     1       4.582   3.921  12.733  0.00  0.00    +0.003 A 
ATOM     21  C   UNL     1       3.678   2.889  12.570  0.00  0.00    +0.039 A 
ATOM     22  C   UNL     1       3.696   2.127  11.415  0.00  0.00    +0.135 A 
ATOM     23  F   UNL     1       2.808   1.121  11.253  0.00  0.00    -0.205 F 
ENDBRANCH  14  17
ENDBRANCH  10  13
ENDBRANCH   3   7
BRANCH   2  24
ATOM     24  C   UNL     1       4.501   1.267   2.583  0.00  0.00    +0.238 C 
ATOM     25  O   UNL     1       3.293   1.363   2.516  0.00  0.00    -0.274 OA
ATOM     26  N   UNL     1       5.232   2.289   3.070  0.00  0.00    -0.307 N 
ATOM     27  H   UNL     1       6.197   2.213   3.124  0.00  0.00    +0.149 HD
BRANCH  26  28
ATOM     28  C   UNL     1       4.568   3.516   3.518  0.00  0.00    +0.178 C 
BRANCH  28  29
ATOM     29  C   UNL     1       5.602   4.494   4.014  0.00  0.00    +0.122 A 
ATOM     30  C   UNL     1       6.227   5.423   3.268  0.00  0.00    +0.046 A 
ATOM     31  C   UNL     1       7.109   6.115   4.130  0.00  0.00    +0.041 A 
ATOM     32  C   UNL     1       6.970   5.567   5.351  0.00  0.00    +0.195 A 
ATOM     33  O   UNL     1       6.052   4.590   5.275  0.00  0.00    -0.466 OA
ENDBRANCH  28  29
ENDBRANCH  26  28
ENDBRANCH   2  24
BRANCH   1  34
ATOM     34  C   UNL     1       3.989  -0.488  -0.160  0.00  0.00    +0.147 C 
BRANCH  34  38
ATOM     35  C   UNL     1       0.567   2.060  -0.369  0.00  0.00    +0.000 A 
ATOM     36  C   UNL     1       1.834   2.608  -0.290  0.00  0.00    +0.000 A 
ATOM     37  C   UNL     1       2.941   1.784  -0.222  0.00  0.00    +0.005 A 
ATOM     38  C   UNL     1       2.782   0.410  -0.233  0.00  0.00    -0.030 A 
ATOM     39  C   UNL     1       1.515  -0.138  -0.311  0.00  0.00    +0.005 A 
ATOM     40  C   UNL     1       0.408   0.687  -0.381  0.00  0.00    +0.000 A 
ENDBRANCH  34  38
ENDBRANCH   1  34
TORSDOF 8
