REMARK  Name = ZINC20691221
REMARK  6 active torsions:
REMARK  status: ('A' for Active; 'I' for Inactive)
REMARK    1  A    between atoms: C_1  and  C_2
REMARK    2  A    between atoms: C_4  and  C_29
REMARK    3  A    between atoms: C_5  and  C_9
REMARK    4  A    between atoms: C_6  and  C_8
REMARK    5  A    between atoms: C_19  and  N_26
REMARK    6  A    between atoms: C_22  and  O_25
REMARK                            x       y       z     vdW  Elec       q    Type
REMARK                         _______ _______ _______ _____ _____    ______ ____
ROOT
ATOM      1  C   UNL     1      -0.630   0.606  -1.595  0.00  0.00    +0.105 C 
ATOM      2  C   UNL     1      -0.368   2.097  -1.635  0.00  0.00    +0.029 C 
ATOM      3  C   UNL     1      -0.807   2.850  -2.892  0.00  0.00    +0.033 C 
ATOM      4  C   UNL     1       0.203   4.001  -2.905  0.00  0.00    -0.030 C 
ATOM      5  C   UNL     1       1.320   3.630  -2.288  0.00  0.00    -0.023 C 
ATOM      6  C   UNL     1       1.172   2.220  -1.852  0.00  0.00    +0.051 C 
ATOM      7  C   UNL     1       1.818   1.690  -0.631  0.00  0.00    +0.014 A 
ATOM      8  C   UNL     1       3.017   2.195  -0.168  0.00  0.00    +0.132 A 
ATOM      9  C   UNL     1       3.612   1.668   0.962  0.00  0.00    +0.037 A 
ATOM     10  C   UNL     1       3.000   0.625   1.634  0.00  0.00    +0.049 A 
ATOM     11  C   UNL     1       1.798   0.119   1.183  0.00  0.00    +0.138 A 
ATOM     12  C   UNL     1       1.181   0.648   0.043  0.00  0.00    +0.076 A 
ATOM     13  N   UNL     1      -0.042   0.097  -0.345  0.00  0.00    -0.334 N 
ATOM     14  H   UNL     1      -0.563  -0.681   0.232  0.00  0.00    +0.147 HD
ENDROOT
BRANCH   1  19
ATOM     15  C   UNL     1       1.867  -1.953  -6.134  0.00  0.00    +0.044 C 
ATOM     16  C   UNL     1       1.216  -1.286  -4.950  0.00  0.00    -0.050 A 
ATOM     17  C   UNL     1       0.211  -0.357  -5.147  0.00  0.00    +0.007 A 
ATOM     18  C   UNL     1      -0.386   0.255  -4.061  0.00  0.00    -0.045 A 
ATOM     19  C   UNL     1       0.021  -0.062  -2.779  0.00  0.00    -0.021 A 
ATOM     20  C   UNL     1       1.029  -0.987  -2.582  0.00  0.00    -0.045 A 
ATOM     21  C   UNL     1       1.623  -1.604  -3.668  0.00  0.00    +0.007 A 
ATOM     22  C   UNL     1       1.477  -1.329  -1.184  0.00  0.00    +0.044 C 
ATOM     23  C   UNL     1      -1.481   1.268  -4.275  0.00  0.00    +0.044 C 
ENDBRANCH   1  19
BRANCH   8  24
ATOM     24  N   UNL     1       3.671   3.310  -0.889  0.00  0.00    +0.057 N 
ATOM     25  O   UNL     1       3.811   3.256  -2.097  0.00  0.00    -0.126 OA
ATOM     26  O   UNL     1       4.068   4.283  -0.273  0.00  0.00    -0.126 OA
ENDBRANCH   8  24
BRANCH  11  27
ATOM     27  O   UNL     1       1.205  -0.905   1.854  0.00  0.00    -0.505 OA
ATOM     28  H   UNL     1       0.247  -1.313   1.500  0.00  0.00    +0.292 HD
ENDBRANCH  11  27
TORSDOF 3
