REMARK  Name = ZINC39686622
REMARK  13 active torsions:
REMARK  status: ('A' for Active; 'I' for Inactive)
REMARK    1  A    between atoms: C_1  and  C_2
REMARK    2  A    between atoms: C_2  and  C_3
REMARK    3  A    between atoms: C_3  and  C_4
REMARK    4  A    between atoms: C_4  and  C_5
REMARK    5  A    between atoms: C_5  and  C_6
REMARK    6  A    between atoms: C_6  and  C_7
REMARK    7  A    between atoms: C_11  and  C_20
REMARK    8  A    between atoms: N_22  and  C_23
REMARK    9  A    between atoms: C_23  and  C_25
REMARK   10  A    between atoms: C_23  and  C_26
REMARK   11  A    between atoms: C_26  and  C_27
REMARK   12  A    between atoms: C_32  and  O_33
REMARK   13  A    between atoms: O_33  and  C_34
REMARK                            x       y       z     vdW  Elec       q    Type
REMARK                         _______ _______ _______ _____ _____    ______ ____
ROOT
ATOM      1  C   UNL     1       2.237  -4.545  -3.833  0.00  0.00    +0.216 C 
ATOM      2  O   UNL     1       2.661  -3.758  -4.653  0.00  0.00    -0.276 OA
ATOM      3  N   UNL     1       2.352  -5.870  -4.048  0.00  0.00    -0.300 N 
ATOM      4  C   UNL     1       1.893  -6.975  -3.173  0.00  0.00    +0.121 C 
ATOM      5  C   UNL     1       1.337  -8.038  -4.147  0.00  0.00    +0.100 C 
ATOM      6  C   UNL     1       2.045  -7.756  -5.482  0.00  0.00    -0.004 C 
ATOM      7  C   UNL     1       2.960  -6.552  -5.215  0.00  0.00    +0.115 C 
ATOM      8  C   UNL     1       1.023  -7.406  -6.559  0.00  0.00    -0.010 C 
ATOM      9  C   UNL     1       1.747  -7.186  -7.891  0.00  0.00    -0.082 C 
ATOM     10  N   UNL     1       2.478  -8.404  -8.259  0.00  0.00    +0.379 N 
ATOM     11  C   UNL     1       3.522  -8.682  -7.265  0.00  0.00    -0.082 C 
ATOM     12  C   UNL     1       2.873  -8.965  -5.907  0.00  0.00    -0.010 C 
ATOM     13  H   UNL     1       1.836  -9.182  -8.298  0.00  0.00    -0.086 HD
ATOM     14  H   UNL     1       2.904  -8.278  -9.166  0.00  0.00    -0.086 HD
ENDROOT
BRANCH   5  15
ATOM     15  C   UNL     1       1.668  -9.424  -3.656  0.00  0.00    +0.218 C 
ATOM     16  O   UNL     1       2.701  -9.622  -3.052  0.00  0.00    -0.275 OA
ATOM     17  N   UNL     1       0.818 -10.443  -3.889  0.00  0.00    -0.312 N 
ATOM     18  H   UNL     1      -0.008 -10.284  -4.373  0.00  0.00    +0.149 HD
BRANCH  17  19
ATOM     19  C   UNL     1       1.140 -11.790  -3.413  0.00  0.00    +0.074 C 
ATOM     20  C   UNL     1       0.688 -11.938  -1.959  0.00  0.00    +0.028 C 
BRANCH  19  21
ATOM     21  C   UNL     1       0.419 -12.824  -4.279  0.00  0.00    +0.060 C 
BRANCH  21  22
ATOM     22  C   UNL     1       0.953 -12.761  -5.687  0.00  0.00    -0.004 A 
ATOM     23  C   UNL     1       0.308 -11.993  -6.637  0.00  0.00    +0.007 A 
ATOM     24  C   UNL     1       0.798 -11.935  -7.929  0.00  0.00    +0.000 A 
ATOM     25  C   UNL     1       1.934 -12.644  -8.273  0.00  0.00    +0.004 A 
ATOM     26  C   UNL     1       2.583 -13.413  -7.326  0.00  0.00    +0.046 A 
ATOM     27  C   UNL     1       2.096 -13.469  -6.028  0.00  0.00    +0.123 A 
BRANCH  27  28
ATOM     28  O   UNL     1       2.736 -14.220  -5.093  0.00  0.00    -0.495 OA
ATOM     29  C   UNL     1       3.906 -14.923  -5.515  0.00  0.00    +0.277 C 
ENDBRANCH  27  28
ENDBRANCH  21  22
ENDBRANCH  19  21
ENDBRANCH  17  19
ENDBRANCH   5  15
BRANCH   1  30
ATOM     30  C   UNL     1       1.582  -4.040  -2.573  0.00  0.00    +0.096 C 
BRANCH  30  31
ATOM     31  C   UNL     1       1.580  -2.510  -2.577  0.00  0.00    +0.009 C 
BRANCH  31  32
ATOM     32  C   UNL     1       0.915  -1.997  -1.298  0.00  0.00    +0.000 C 
BRANCH  32  33
ATOM     33  C   UNL     1       0.913  -0.467  -1.302  0.00  0.00    -0.000 C 
BRANCH  33  35
ATOM     34  C   UNL     1       0.246   1.576  -0.027  0.00  0.00    +0.004 C 
ATOM     35  C   UNL     1       0.248   0.046  -0.023  0.00  0.00    -0.003 C 
ENDBRANCH  33  35
ENDBRANCH  32  33
ENDBRANCH  31  32
ENDBRANCH  30  31
ENDBRANCH   1  30
TORSDOF 10
