REMARK  Name = ZINC15548648
REMARK  11 active torsions:
REMARK  status: ('A' for Active; 'I' for Inactive)
REMARK    1  A    between atoms: C_1  and  C_2
REMARK    2  A    between atoms: C_3  and  C_30
REMARK    3  A    between atoms: C_4  and  N_11
REMARK    4  A    between atoms: C_6  and  C_7
REMARK    5  A    between atoms: C_7  and  O_9
REMARK    6  A    between atoms: O_9  and  C_10
REMARK    7  A    between atoms: C_12  and  C_14
REMARK    8  A    between atoms: C_14  and  N_15
REMARK    9  A    between atoms: C_23  and  C_25
REMARK   10  A    between atoms: C_30  and  O_32
REMARK   11  A    between atoms: O_32  and  C_33
REMARK                            x       y       z     vdW  Elec       q    Type
REMARK                         _______ _______ _______ _____ _____    ______ ____
ROOT
ATOM      1  N   UNL     1       0.033  -3.047  -2.112  0.00  0.00    -0.278 N 
ATOM      2  C   UNL     1       0.052  -4.365  -1.832  0.00  0.00    +0.232 C 
ATOM      3  O   UNL     1       0.063  -4.740  -0.679  0.00  0.00    -0.274 OA
ATOM      4  H   UNL     1       0.024  -2.747  -3.034  0.00  0.00    +0.155 HD
ENDROOT
BRANCH   1   8
ATOM      5  C   UNL     1      -0.018   1.503   0.010  0.00  0.00    +0.046 C 
ATOM      6  C   UNL     1       0.002  -0.004   0.002  0.00  0.00    -0.014 A 
ATOM      7  C   UNL     1       0.006  -0.730  -1.181  0.00  0.00    +0.091 A 
ATOM      8  C   UNL     1       0.025  -2.123  -1.085  0.00  0.00    +0.087 A 
ATOM      9  S   UNL     1       0.037  -2.413   0.569  0.00  0.00    -0.066 S 
ATOM     10  C   UNL     1       0.024  -0.733   1.162  0.00  0.00    +0.102 A 
BRANCH  10  11
ATOM     11  C   UNL     1       0.031  -0.252   2.543  0.00  0.00    +0.346 C 
ATOM     12  O   UNL     1       0.018   0.943   2.770  0.00  0.00    -0.244 OA
BRANCH  11  13
ATOM     13  O   UNL     1       0.053  -1.133   3.564  0.00  0.00    -0.464 OA
ATOM     14  C   UNL     1       0.060  -0.593   4.887  0.00  0.00    +0.280 C 
ENDBRANCH  11  13
ENDBRANCH  10  11
BRANCH   7  15
ATOM     15  C   UNL     1      -0.010  -0.058  -2.485  0.00  0.00    +0.342 C 
ATOM     16  O   UNL     1       1.036   0.236  -3.031  0.00  0.00    -0.245 OA
BRANCH  15  17
ATOM     17  O   UNL     1      -1.185   0.235  -3.078  0.00  0.00    -0.464 OA
ATOM     18  C   UNL     1      -1.126   0.890  -4.347  0.00  0.00    +0.280 C 
ENDBRANCH  15  17
ENDBRANCH   7  15
ENDBRANCH   1   8
BRANCH   2  19
ATOM     19  C   UNL     1       0.060  -5.373  -2.952  0.00  0.00    +0.181 C 
BRANCH  19  20
ATOM     20  N   UNL     1       0.081  -6.730  -2.389  0.00  0.00    -0.282 NA
ATOM     21  C   UNL     1      -1.151  -7.008  -1.639  0.00  0.00    +0.091 C 
ATOM     22  C   UNL     1      -0.920  -8.238  -0.744  0.00  0.00    +0.058 C 
ATOM     23  C   UNL     1      -0.262  -9.289  -1.576  0.00  0.00    -0.004 A 
ATOM     24  C   UNL     1       0.315  -9.116  -2.799  0.00  0.00    -0.015 A 
ATOM     25  C   UNL     1       0.868 -10.249  -3.392  0.00  0.00    +0.013 A 
ATOM     26  C   UNL     1       0.816 -11.441  -2.753  0.00  0.00    +0.046 A 
ATOM     27  S   UNL     1      -0.038 -11.013  -1.242  0.00  0.00    -0.101 S 
ATOM     28  C   UNL     1       0.328  -7.730  -3.436  0.00  0.00    +0.125 C 
BRANCH  28  29
ATOM     29  C   UNL     1       1.671  -7.477  -4.071  0.00  0.00    +0.011 A 
ATOM     30  C   UNL     1       2.026  -7.554  -5.376  0.00  0.00    +0.013 A 
ATOM     31  C   UNL     1       3.332  -7.275  -5.733  0.00  0.00    +0.008 A 
ATOM     32  C   UNL     1       4.219  -6.933  -4.767  0.00  0.00    +0.045 A 
ATOM     33  S   UNL     1       3.206  -6.991  -3.298  0.00  0.00    -0.100 S 
ENDBRANCH  28  29
ENDBRANCH  19  20
ENDBRANCH   2  19
TORSDOF 8
