REMARK  Name = ZINC27020249
REMARK  7 active torsions:
REMARK  status: ('A' for Active; 'I' for Inactive)
REMARK    1  A    between atoms: C_1  and  C_2
REMARK    2  A    between atoms: C_5  and  C_8
REMARK    3  A    between atoms: C_8  and  N_9
REMARK    4  A    between atoms: C_10  and  C_21
REMARK    5  A    between atoms: N_14  and  C_15
REMARK    6  A    between atoms: C_24  and  S_27
REMARK    7  A    between atoms: S_27  and  N_30
REMARK                            x       y       z     vdW  Elec       q    Type
REMARK                         _______ _______ _______ _____ _____    ______ ____
ROOT
ATOM      1  N   UNL     1       5.097   0.148   5.790  0.00  0.00    -0.316 N 
ATOM      2  C   UNL     1       4.038   0.996   5.975  0.00  0.00    +0.058 A 
ATOM      3  C   UNL     1       4.106   1.948   6.928  0.00  0.00    +0.075 A 
ATOM      4  S   UNL     1       5.723   1.663   7.629  0.00  0.00    -0.059 S 
ATOM      5  C   UNL     1       6.205   0.292   6.591  0.00  0.00    +0.152 A 
ATOM      6  N   UNL     1       7.328  -0.401   6.593  0.00  0.00    -0.336 N 
ATOM      7  H   UNL     1       7.435  -1.276   5.936  0.00  0.00    +0.168 HD
ENDROOT
BRANCH   6   8
ATOM      8  C   UNL     1       8.359  -0.030   7.411  0.00  0.00    +0.041 A 
ATOM      9  C   UNL     1       9.271   0.943   6.994  0.00  0.00    +0.025 A 
ATOM     10  C   UNL     1      10.305   1.316   7.827  0.00  0.00    +0.002 A 
ATOM     11  C   UNL     1      10.446   0.722   9.069  0.00  0.00    +0.000 A 
ATOM     12  C   UNL     1       9.550  -0.246   9.487  0.00  0.00    +0.002 A 
ATOM     13  C   UNL     1       8.508  -0.625   8.666  0.00  0.00    +0.025 A 
ENDBRANCH   6   8
BRANCH   2  14
ATOM     14  C   UNL     1       2.830   0.871   5.132  0.00  0.00    -0.001 A 
ATOM     15  C   UNL     1       2.184  -0.360   5.010  0.00  0.00    +0.012 A 
ATOM     16  C   UNL     1       1.057  -0.469   4.222  0.00  0.00    +0.029 A 
ATOM     17  C   UNL     1       0.567   0.639   3.553  0.00  0.00    +0.106 A 
ATOM     18  C   UNL     1       1.206   1.861   3.666  0.00  0.00    +0.029 A 
ATOM     19  C   UNL     1       2.330   1.985   4.455  0.00  0.00    +0.012 A 
BRANCH  17  20
ATOM     20  S   UNL     1      -0.873   0.491   2.548  0.00  0.00    +0.061 S 
ATOM     21  O   UNL     1      -0.965  -0.875   2.169  0.00  0.00    -0.153 OA
ATOM     22  O   UNL     1      -0.813   1.544   1.596  0.00  0.00    -0.153 OA
BRANCH  20  23
ATOM     23  N   UNL     1      -2.180   0.802   3.517  0.00  0.00    -0.177 NA
ATOM     24  C   UNL     1      -2.660   2.193   3.633  0.00  0.00    +0.109 C 
ATOM     25  C   UNL     1      -4.196   2.280   3.591  0.00  0.00    +0.017 C 
ATOM     26  C   UNL     1      -4.742   1.326   2.558  0.00  0.00    +0.001 C 
ATOM     27  C   UNL     1      -5.054  -0.012   3.222  0.00  0.00    +0.001 C 
ATOM     28  C   UNL     1      -3.903  -0.922   3.322  0.00  0.00    +0.017 C 
ATOM     29  C   UNL     1      -2.802  -0.300   4.215  0.00  0.00    +0.109 C 
ENDBRANCH  20  23
ENDBRANCH  17  20
ENDBRANCH   2  14
BRANCH   1  30
ATOM     30  C   UNL     1       5.051  -0.890   4.757  0.00  0.00    +0.159 C 
BRANCH  30  35
ATOM     31  C   UNL     1       7.613   1.055  -0.044  0.00  0.00    +0.044 C 
ATOM     32  C   UNL     1       6.945   0.547   1.208  0.00  0.00    -0.050 A 
ATOM     33  C   UNL     1       7.665  -0.199   2.122  0.00  0.00    +0.004 A 
ATOM     34  C   UNL     1       7.052  -0.664   3.270  0.00  0.00    +0.005 A 
ATOM     35  C   UNL     1       5.719  -0.383   3.505  0.00  0.00    -0.028 A 
ATOM     36  C   UNL     1       4.997   0.359   2.588  0.00  0.00    +0.005 A 
ATOM     37  C   UNL     1       5.611   0.828   1.442  0.00  0.00    +0.004 A 
ENDBRANCH  30  35
ENDBRANCH   1  30
TORSDOF 6
