REMARK  Name = ZINC43746654
REMARK  13 active torsions:
REMARK  status: ('A' for Active; 'I' for Inactive)
REMARK    1  A    between atoms: C_1  and  C_2
REMARK    2  A    between atoms: C_2  and  C_3
REMARK    3  A    between atoms: C_2  and  C_4
REMARK    4  A    between atoms: C_4  and  C_5
REMARK    5  A    between atoms: C_5  and  C_7
REMARK    6  A    between atoms: C_5  and  N_19
REMARK    7  A    between atoms: N_9  and  C_10
REMARK    8  A    between atoms: C_10  and  C_11
REMARK    9  A    between atoms: C_15  and  O_17
REMARK   10  A    between atoms: O_17  and  C_18
REMARK   11  A    between atoms: C_20  and  C_22
REMARK   12  A    between atoms: C_24  and  C_37
REMARK   13  A    between atoms: C_24  and  C_38
REMARK                            x       y       z     vdW  Elec       q    Type
REMARK                         _______ _______ _______ _____ _____    ______ ____
ROOT
ATOM      1  N   UNL     1       2.324   1.277  -1.161  0.00  0.00    -0.302 N 
ATOM      2  C   UNL     1       1.883   2.079  -2.151  0.00  0.00    +0.236 C 
ATOM      3  O   UNL     1       1.250   1.611  -3.074  0.00  0.00    -0.274 OA
ATOM      4  H   UNL     1       2.799   1.656  -0.405  0.00  0.00    +0.150 HD
ENDROOT
BRANCH   2   5
ATOM      5  C   UNL     1       2.177   3.557  -2.111  0.00  0.00    +0.179 C 
ATOM      6  C   UNL     1       3.593   3.796  -2.686  0.00  0.00    +0.040 C 
ATOM      7  S   UNL     1       3.212   4.731  -4.231  0.00  0.00    -0.125 S 
ATOM      8  C   UNL     1       1.417   4.319  -4.302  0.00  0.00    +0.167 C 
ATOM      9  N   UNL     1       1.125   4.264  -2.842  0.00  0.00    -0.269 N 
ATOM     10  C   UNL     1      -0.041   4.924  -2.679  0.00  0.00    +0.249 C 
ATOM     11  O   UNL     1      -0.798   4.787  -1.738  0.00  0.00    -0.270 OA
ATOM     12  C   UNL     1      -0.257   5.839  -3.817  0.00  0.00    +0.043 A 
ATOM     13  C   UNL     1       0.638   5.483  -4.843  0.00  0.00    -0.005 A 
ATOM     14  C   UNL     1       0.662   6.173  -6.033  0.00  0.00    +0.007 A 
ATOM     15  C   UNL     1      -0.219   7.220  -6.245  0.00  0.00    +0.000 A 
ATOM     16  C   UNL     1      -1.128   7.574  -5.264  0.00  0.00    +0.001 A 
ATOM     17  C   UNL     1      -1.153   6.886  -4.031  0.00  0.00    +0.013 A 
ATOM     18  C   UNL     1       4.439   4.639  -1.729  0.00  0.00    +0.025 C 
ATOM     19  C   UNL     1       4.287   2.470  -3.004  0.00  0.00    +0.025 C 
ENDBRANCH   2   5
BRANCH   1  20
ATOM     20  C   UNL     1       2.085  -0.167  -1.227  0.00  0.00    +0.159 C 
BRANCH  20  21
ATOM     21  C   UNL     1       2.678  -0.716  -2.499  0.00  0.00    +0.234 C 
ATOM     22  O   UNL     1       3.244   0.025  -3.274  0.00  0.00    -0.274 OA
ATOM     23  N   UNL     1       2.579  -2.031  -2.776  0.00  0.00    -0.310 N 
ATOM     24  H   UNL     1       2.126  -2.625  -2.156  0.00  0.00    +0.149 HD
BRANCH  23  25
ATOM     25  C   UNL     1       3.155  -2.566  -4.012  0.00  0.00    +0.139 C 
BRANCH  25  26
ATOM     26  C   UNL     1       2.909  -4.051  -4.080  0.00  0.00    -0.027 A 
ATOM     27  C   UNL     1       3.830  -4.929  -3.539  0.00  0.00    +0.005 A 
ATOM     28  C   UNL     1       3.608  -6.292  -3.599  0.00  0.00    +0.004 A 
ATOM     29  C   UNL     1       2.465  -6.780  -4.202  0.00  0.00    +0.045 A 
ATOM     30  C   UNL     1       1.540  -5.902  -4.747  0.00  0.00    +0.120 A 
ATOM     31  C   UNL     1       1.762  -4.534  -4.679  0.00  0.00    +0.050 A 
BRANCH  30  32
ATOM     32  O   UNL     1       0.414  -6.380  -5.340  0.00  0.00    -0.495 OA
ATOM     33  C   UNL     1       0.249  -7.799  -5.368  0.00  0.00    +0.277 C 
ENDBRANCH  30  32
ENDBRANCH  25  26
ENDBRANCH  23  25
ENDBRANCH  20  21
BRANCH  20  34
ATOM     34  C   UNL     1       0.579  -0.436  -1.208  0.00  0.00    +0.034 C 
BRANCH  34  36
ATOM     35  C   UNL     1       0.123   1.480   0.329  0.00  0.00    +0.007 C 
ATOM     36  C   UNL     1       0.006  -0.036   0.153  0.00  0.00    -0.015 C 
ATOM     37  C   UNL     1      -1.466  -0.446   0.227  0.00  0.00    +0.007 C 
ENDBRANCH  34  36
ENDBRANCH  20  34
ENDBRANCH   1  20
TORSDOF 8
