REMARK  Name = ZINC10682573
REMARK  4 active torsions:
REMARK  status: ('A' for Active; 'I' for Inactive)
REMARK    1  A    between atoms: C_1  and  C_2
REMARK    2  A    between atoms: N_8  and  C_13
REMARK    3  A    between atoms: C_13  and  C_14
REMARK    4  A    between atoms: N_16  and  C_17
REMARK                            x       y       z     vdW  Elec       q    Type
REMARK                         _______ _______ _______ _____ _____    ______ ____
ROOT
ATOM      1  C   UNL     1      -1.718   2.314   1.444  0.00  0.00    +0.231 C 
ATOM      2  O   UNL     1      -1.029   1.919   2.360  0.00  0.00    -0.274 OA
ATOM      3  N   UNL     1      -2.867   2.970   1.699  0.00  0.00    -0.308 N 
ATOM      4  H   UNL     1      -3.418   3.287   0.966  0.00  0.00    +0.149 HD
ENDROOT
BRANCH   3   5
ATOM      5  C   UNL     1      -3.285   3.205   3.083  0.00  0.00    +0.035 C 
ATOM      6  C   UNL     1      -3.458   1.863   3.798  0.00  0.00    +0.029 C 
ATOM      7  C   UNL     1      -3.894   2.108   5.244  0.00  0.00    -0.008 C 
ATOM      8  C   UNL     1      -5.223   2.867   5.255  0.00  0.00    +0.007 C 
ATOM      9  C   UNL     1      -5.049   4.209   4.540  0.00  0.00    -0.008 C 
ATOM     10  C   UNL     1      -4.613   3.963   3.094  0.00  0.00    +0.029 C 
ATOM     11  C   UNL     1      -3.984   5.037   5.261  0.00  0.00    +0.007 C 
ATOM     12  C   UNL     1      -2.655   4.278   5.250  0.00  0.00    -0.008 C 
ATOM     13  C   UNL     1      -2.828   2.936   5.965  0.00  0.00    +0.007 C 
ATOM     14  C   UNL     1      -2.219   4.033   3.804  0.00  0.00    +0.029 C 
ENDBRANCH   3   5
BRANCH   1  15
ATOM     15  C   UNL     1      -1.288   2.073   0.019  0.00  0.00    +0.209 C 
BRANCH  15  23
ATOM     16  C   UNL     1       2.514   5.521   0.661  0.00  0.00    +0.044 C 
ATOM     17  C   UNL     1       2.459   4.057   0.310  0.00  0.00    -0.048 A 
ATOM     18  C   UNL     1       3.621   3.385  -0.025  0.00  0.00    +0.007 A 
ATOM     19  C   UNL     1       3.579   2.041  -0.348  0.00  0.00    +0.048 A 
ATOM     20  C   UNL     1       2.371   1.365  -0.336  0.00  0.00    +0.143 A 
ATOM     21  C   UNL     1       1.201   2.043   0.002  0.00  0.00    +0.079 A 
ATOM     22  C   UNL     1       1.249   3.389   0.325  0.00  0.00    +0.030 A 
ATOM     23  N   UNL     1      -0.016   1.347   0.009  0.00  0.00    -0.257 N 
ATOM     24  C   UNL     1       0.002  -0.004   0.002  0.00  0.00    +0.258 C 
ATOM     25  O   UNL     1      -1.038  -0.627  -0.022  0.00  0.00    -0.271 OA
ATOM     26  C   UNL     1       1.321  -0.734   0.024  0.00  0.00    +0.325 C 
ATOM     27  O   UNL     1       2.312   0.044  -0.651  0.00  0.00    -0.481 OA
ENDBRANCH  15  23
ENDBRANCH   1  15
TORSDOF 3
