REMARK  Name = ZINC36829135
REMARK  3 active torsions:
REMARK  status: ('A' for Active; 'I' for Inactive)
REMARK    1  A    between atoms: C_7  and  N_12
REMARK    2  A    between atoms: N_12  and  S_13
REMARK    3  A    between atoms: S_13  and  C_16
REMARK                            x       y       z     vdW  Elec       q    Type
REMARK                         _______ _______ _______ _____ _____    ______ ____
ROOT
ATOM      1  N   UNL     1       0.165  -2.679   0.899  0.00  0.00    -0.182 NA
ATOM      2  H   UNL     1       0.230  -2.464   1.842  0.00  0.00    +0.149 HD
ENDROOT
BRANCH   1   9
ATOM      3  C   UNL     1       0.540   1.414   0.285  0.00  0.00    +0.001 A 
ATOM      4  C   UNL     1       1.815   1.949   0.299  0.00  0.00    +0.004 A 
ATOM      5  C   UNL     1       2.913   1.117   0.215  0.00  0.00    +0.046 A 
ATOM      6  C   UNL     1       2.741  -0.260   0.115  0.00  0.00    +0.125 A 
ATOM      7  C   UNL     1       1.464  -0.792   0.098  0.00  0.00    +0.013 A 
ATOM      8  C   UNL     1       0.366   0.048   0.185  0.00  0.00    +0.009 A 
ATOM      9  C   UNL     1       1.233  -2.277  -0.020  0.00  0.00    +0.113 C 
ATOM     10  C   UNL     1       2.519  -3.029   0.335  0.00  0.00    +0.066 C 
ATOM     11  C   UNL     1       3.681  -2.385  -0.432  0.00  0.00    +0.231 C 
ATOM     12  O   UNL     1       3.845  -1.047   0.040  0.00  0.00    -0.492 OA
ENDBRANCH   1   9
BRANCH   1  13
ATOM     13  S   UNL     1      -1.153  -3.502   0.326  0.00  0.00    +0.060 S 
ATOM     14  O   UNL     1      -1.992  -3.755   1.445  0.00  0.00    -0.153 OA
ATOM     15  O   UNL     1      -1.606  -2.795  -0.821  0.00  0.00    -0.153 OA
BRANCH  13  16
ATOM     16  C   UNL     1      -0.584  -5.070  -0.240  0.00  0.00    +0.121 A 
ATOM     17  C   UNL     1       0.212  -5.153  -1.392  0.00  0.00    +0.035 A 
ATOM     18  C   UNL     1       0.644  -6.375  -1.817  0.00  0.00    +0.072 A 
ATOM     19  C   UNL     1       0.283  -7.523  -1.091  0.00  0.00    +0.249 A 
ATOM     20  O   UNL     1       0.663  -8.623  -1.460  0.00  0.00    -0.268 OA
ATOM     21  N   UNL     1      -0.483  -7.410   0.011  0.00  0.00    -0.327 N 
ATOM     22  H   UNL     1      -0.729  -8.207   0.507  0.00  0.00    +0.168 HD
ATOM     23  C   UNL     1      -0.909  -6.195   0.438  0.00  0.00    +0.114 A 
ENDBRANCH  13  16
ENDBRANCH   1  13
TORSDOF 3
