REMARK  Name = ZINC22475264
REMARK  6 active torsions:
REMARK  status: ('A' for Active; 'I' for Inactive)
REMARK    1  A    between atoms: C_1  and  C_2
REMARK    2  A    between atoms: N_10  and  N_14
REMARK    3  A    between atoms: C_15  and  C_17
REMARK    4  A    between atoms: C_17  and  C_18
REMARK    5  A    between atoms: C_21  and  C_23
REMARK    6  A    between atoms: C_26  and  C_29
REMARK                            x       y       z     vdW  Elec       q    Type
REMARK                         _______ _______ _______ _____ _____    ______ ____
ROOT
ATOM      1  N   UNL     1      -4.521   1.617   1.393  0.00  0.00    -0.223 N 
ATOM      2  C   UNL     1      -3.234   1.962   1.188  0.00  0.00    +0.235 C 
ATOM      3  O   UNL     1      -2.686   2.735   1.946  0.00  0.00    -0.274 OA
ATOM      4  H   UNL     1      -5.019   0.917   0.706  0.00  0.00    +0.174 HD
ENDROOT
BRANCH   1  14
ATOM      5  C   UNL     1      -8.787   4.981   7.178  0.00  0.00    +0.007 C 
ATOM      6  C   UNL     1      -8.318   4.745   5.741  0.00  0.00    -0.014 C 
ATOM      7  C   UNL     1      -6.818   5.032   5.642  0.00  0.00    +0.006 C 
ATOM      8  C   UNL     1      -6.351   4.807   4.201  0.00  0.00    +0.035 C 
ATOM      9  C   UNL     1      -6.639   3.368   3.789  0.00  0.00    +0.114 C 
ATOM     10  C   UNL     1      -8.128   3.060   3.907  0.00  0.00    +0.035 C 
ATOM     11  C   UNL     1      -8.587   3.291   5.349  0.00  0.00    +0.006 C 
ATOM     12  C   UNL     1      -6.160   3.118   2.378  0.00  0.00    +0.263 C 
ATOM     13  O   UNL     1      -6.536   3.670   1.366  0.00  0.00    -0.271 OA
ATOM     14  N   UNL     1      -5.225   2.151   2.480  0.00  0.00    -0.137 N 
ATOM     15  C   UNL     1      -5.058   1.760   3.750  0.00  0.00    +0.326 C 
ATOM     16  O   UNL     1      -4.274   0.897   4.093  0.00  0.00    -0.251 OA
ATOM     17  N   UNL     1      -5.853   2.432   4.603  0.00  0.00    -0.284 N 
ATOM     18  H   UNL     1      -5.995   2.398   5.694  0.00  0.00    +0.151 HD
ENDBRANCH   1  14
BRANCH   2  19
ATOM     19  C   UNL     1      -2.477   1.389   0.018  0.00  0.00    +0.153 C 
BRANCH  19  20
ATOM     20  C   UNL     1      -1.071   1.930   0.017  0.00  0.00    +0.058 A 
ATOM     21  C   UNL     1      -0.013   1.076   0.008  0.00  0.00    +0.071 A 
ATOM     22  S   UNL     1       1.348   2.236   0.001  0.00  0.00    -0.075 S 
ATOM     23  C   UNL     1       0.362   3.728   0.019  0.00  0.00    +0.109 A 
ATOM     24  N   UNL     1      -0.865   3.226   0.028  0.00  0.00    -0.243 NA
BRANCH  23  25
ATOM     25  C   UNL     1       0.798   5.141   0.022  0.00  0.00    +0.007 A 
ATOM     26  C   UNL     1      -0.149   6.166   0.031  0.00  0.00    +0.011 A 
ATOM     27  C   UNL     1       0.264   7.482   0.039  0.00  0.00    +0.013 A 
ATOM     28  C   UNL     1       1.613   7.787   0.028  0.00  0.00    +0.055 A 
ATOM     29  C   UNL     1       2.557   6.776   0.013  0.00  0.00    +0.013 A 
ATOM     30  C   UNL     1       2.157   5.455   0.010  0.00  0.00    +0.011 A 
BRANCH  28  31
ATOM     31  C   UNL     1       2.057   9.227   0.030  0.00  0.00    +0.417 C 
ATOM     32  F   UNL     1       2.182   9.680  -1.288  0.00  0.00    -0.166 F 
ATOM     33  F   UNL     1       1.110  10.006   0.703  0.00  0.00    -0.166 F 
ATOM     34  F   UNL     1       3.293   9.333   0.678  0.00  0.00    -0.166 F 
ENDBRANCH  28  31
ENDBRANCH  23  25
ENDBRANCH  19  20
ENDBRANCH   2  19
TORSDOF 5
