REMARK  Name = ZINC36534343
REMARK  8 active torsions:
REMARK  status: ('A' for Active; 'I' for Inactive)
REMARK    1  A    between atoms: C_1  and  N_2
REMARK    2  A    between atoms: N_2  and  C_3
REMARK    3  A    between atoms: C_3  and  C_5
REMARK    4  A    between atoms: C_3  and  C_12
REMARK    5  A    between atoms: C_10  and  O_11
REMARK    6  A    between atoms: N_14  and  C_15
REMARK    7  A    between atoms: C_21  and  C_23
REMARK    8  A    between atoms: C_23  and  C_24
REMARK                            x       y       z     vdW  Elec       q    Type
REMARK                         _______ _______ _______ _____ _____    ______ ____
ROOT
ATOM      1  C   UNL     1       0.135  -0.742   1.261  0.00  0.00    +0.195 C 
ENDROOT
BRANCH   1   2
ATOM      2  C   UNL     1       1.368  -0.274   1.989  0.00  0.00    +0.023 A 
ATOM      3  C   UNL     1       1.247   0.463   3.151  0.00  0.00    +0.009 A 
ATOM      4  C   UNL     1       2.378   0.892   3.820  0.00  0.00    +0.001 A 
ATOM      5  C   UNL     1       3.634   0.585   3.328  0.00  0.00    +0.004 A 
ATOM      6  C   UNL     1       3.760  -0.152   2.167  0.00  0.00    +0.046 A 
ATOM      7  C   UNL     1       2.626  -0.589   1.497  0.00  0.00    +0.122 A 
BRANCH   7   8
ATOM      8  O   UNL     1       2.748  -1.319   0.357  0.00  0.00    -0.506 OA
ATOM      9  H   UNL     1       2.783  -0.787  -0.449  0.00  0.00    +0.292 HD
ENDBRANCH   7   8
ENDBRANCH   1   2
BRANCH   1  11
ATOM     10  C   UNL     1      -0.191   1.561   0.245  0.00  0.00    +0.133 C 
ATOM     11  N   UNL     1      -0.091   0.107   0.089  0.00  0.00    -0.289 N 
ATOM     12  C   UNL     1      -0.208  -0.448  -1.134  0.00  0.00    +0.221 C 
ATOM     13  O   UNL     1      -0.126  -1.651  -1.263  0.00  0.00    -0.275 OA
BRANCH  12  14
ATOM     14  C   UNL     1      -0.441   0.426  -2.339  0.00  0.00    +0.131 C 
BRANCH  14  15
ATOM     15  C   UNL     1      -0.533  -0.435  -3.573  0.00  0.00    -0.035 A 
ATOM     16  C   UNL     1       0.609  -0.736  -4.292  0.00  0.00    +0.008 A 
ATOM     17  C   UNL     1       0.529  -1.525  -5.424  0.00  0.00    +0.050 A 
ATOM     18  C   UNL     1      -0.698  -2.017  -5.841  0.00  0.00    +0.166 A 
ATOM     19  C   UNL     1      -1.848  -1.714  -5.117  0.00  0.00    +0.166 A 
ATOM     20  C   UNL     1      -1.760  -0.927  -3.980  0.00  0.00    +0.053 A 
ATOM     21  O   UNL     1      -2.916  -2.309  -5.725  0.00  0.00    -0.453 OA
ATOM     22  C   UNL     1      -2.467  -2.639  -7.053  0.00  0.00    +0.466 C 
ATOM     23  O   UNL     1      -1.044  -2.802  -6.902  0.00  0.00    -0.453 OA
ENDBRANCH  14  15
ENDBRANCH  12  14
ENDBRANCH   1  11
BRANCH   1  24
ATOM     24  C   UNL     1      -1.056  -0.655   2.181  0.00  0.00    +0.238 C 
ATOM     25  O   UNL     1      -2.000   0.047   1.887  0.00  0.00    -0.273 OA
ATOM     26  N   UNL     1      -1.071  -1.358   3.331  0.00  0.00    -0.311 N 
ATOM     27  H   UNL     1      -0.316  -1.919   3.566  0.00  0.00    +0.149 HD
BRANCH  26  28
ATOM     28  C   UNL     1      -2.228  -1.273   4.226  0.00  0.00    +0.073 C 
ATOM     29  C   UNL     1      -2.076  -0.057   5.142  0.00  0.00    +0.022 C 
ATOM     30  C   UNL     1      -3.285   0.031   6.076  0.00  0.00    +0.002 C 
ATOM     31  C   UNL     1      -3.367  -1.240   6.925  0.00  0.00    +0.000 C 
ATOM     32  C   UNL     1      -3.519  -2.456   6.008  0.00  0.00    +0.002 C 
ATOM     33  C   UNL     1      -2.310  -2.544   5.074  0.00  0.00    +0.022 C 
ENDBRANCH  26  28
ENDBRANCH   1  24
TORSDOF 7
