REMARK  Name = ZINC20731719
REMARK  10 active torsions:
REMARK  status: ('A' for Active; 'I' for Inactive)
REMARK    1  A    between atoms: C_1  and  O_2
REMARK    2  A    between atoms: O_2  and  C_3
REMARK    3  A    between atoms: C_3  and  C_5
REMARK    4  A    between atoms: C_5  and  C_6
REMARK    5  A    between atoms: C_6  and  C_7
REMARK    6  A    between atoms: C_7  and  C_9
REMARK    7  A    between atoms: C_7  and  N_13
REMARK    8  A    between atoms: C_9  and  O_11
REMARK    9  A    between atoms: O_11  and  C_12
REMARK   10  A    between atoms: C_25  and  C_27
REMARK                            x       y       z     vdW  Elec       q    Type
REMARK                         _______ _______ _______ _____ _____    ______ ____
ROOT
ATOM      1  N   UNL     1       1.162  -6.565  -1.484  0.00  0.00    -0.286 N 
ATOM      2  C   UNL     1       2.103  -5.793  -0.907  0.00  0.00    +0.304 C 
ATOM      3  O   UNL     1       2.342  -4.688  -1.355  0.00  0.00    -0.253 OA
ATOM      4  N   UNL     1       2.778  -6.244   0.169  0.00  0.00    -0.273 N 
ATOM      5  C   UNL     1       3.728  -5.376   0.881  0.00  0.00    +0.116 C 
ATOM      6  C   UNL     1       3.213  -5.132   2.306  0.00  0.00    +0.074 C 
ATOM      7  C   UNL     1       2.750  -6.443   2.885  0.00  0.00    +0.040 A 
ATOM      8  C   UNL     1       2.465  -7.548   2.163  0.00  0.00    +0.062 A 
ATOM      9  N   UNL     1       2.085  -8.509   3.008  0.00  0.00    -0.348 N 
ATOM     10  C   UNL     1       2.125  -8.046   4.230  0.00  0.00    +0.171 A 
ATOM     11  N   UNL     1       2.538  -6.758   4.193  0.00  0.00    -0.349 N 
ATOM     12  H   UNL     1       2.659  -6.169   4.955  0.00  0.00    +0.166 HD
ATOM     13  C   UNL     1       2.579  -7.618   0.663  0.00  0.00    +0.157 C 
ATOM     14  H   UNL     1       1.026  -7.475  -1.178  0.00  0.00    +0.151 HD
ATOM     15  H   UNL     1       1.821  -9.408   2.755  0.00  0.00    +0.167 HD
ENDROOT
BRANCH  13  16
ATOM     16  C   UNL     1       3.758  -8.476   0.282  0.00  0.00    -0.003 A 
ATOM     17  C   UNL     1       5.011  -8.197   0.796  0.00  0.00    +0.009 A 
ATOM     18  C   UNL     1       6.092  -8.983   0.447  0.00  0.00    +0.020 A 
ATOM     19  C   UNL     1       5.922 -10.051  -0.416  0.00  0.00    +0.042 A 
ATOM     20  C   UNL     1       4.669 -10.332  -0.930  0.00  0.00    +0.040 A 
ATOM     21  C   UNL     1       3.585  -9.547  -0.577  0.00  0.00    +0.048 A 
ATOM     22 CL   UNL     1       2.011  -9.902  -1.216  0.00  0.00    -0.083 Cl
ATOM     23 CL   UNL     1       7.281 -11.038  -0.854  0.00  0.00    -0.083 Cl
ENDBRANCH  13  16
BRANCH   1  24
ATOM     24  C   UNL     1       0.344  -6.030  -2.576  0.00  0.00    +0.184 C 
BRANCH  24  25
ATOM     25  C   UNL     1      -0.831  -5.280  -2.002  0.00  0.00    +0.327 C 
ATOM     26  O   UNL     1      -0.970  -5.200  -0.804  0.00  0.00    -0.249 OA
BRANCH  25  27
ATOM     27  O   UNL     1      -1.722  -4.700  -2.821  0.00  0.00    -0.467 OA
ATOM     28  C   UNL     1      -2.810  -4.005  -2.209  0.00  0.00    +0.280 C 
ENDBRANCH  25  27
ENDBRANCH  24  25
BRANCH  24  29
ATOM     29  C   UNL     1      -0.163  -7.183  -3.445  0.00  0.00    +0.045 C 
BRANCH  29  30
ATOM     30  C   UNL     1       1.023  -7.867  -4.127  0.00  0.00    +0.123 C 
BRANCH  30  31
ATOM     31  C   UNL     1       0.524  -9.002  -4.984  0.00  0.00    +0.307 C 
ATOM     32  O   UNL     1      -0.659  -9.239  -5.043  0.00  0.00    -0.251 OA
BRANCH  31  34
ATOM     33  C   UNL     1       0.852 -10.809  -6.472  0.00  0.00    +0.280 C 
ATOM     34  O   UNL     1       1.394  -9.749  -5.681  0.00  0.00    -0.468 OA
ENDBRANCH  31  34
ENDBRANCH  30  31
ENDBRANCH  29  30
ENDBRANCH  24  29
ENDBRANCH   1  24
TORSDOF 8
