REMARK  Name = ZINC49813960
REMARK  4 active torsions:
REMARK  status: ('A' for Active; 'I' for Inactive)
REMARK    1  A    between atoms: C_1  and  C_2
REMARK    2  A    between atoms: C_7  and  C_17
REMARK    3  A    between atoms: C_13  and  C_16
REMARK    4  A    between atoms: C_17  and  O_18
REMARK                            x       y       z     vdW  Elec       q    Type
REMARK                         _______ _______ _______ _____ _____    ______ ____
ROOT
ATOM      1  C   UNL     1      -0.019   1.526   0.010  0.00  0.00    +0.008 C 
ATOM      2  C   UNL     1       0.002  -0.004   0.002  0.00  0.00    -0.009 C 
ATOM      3  C   UNL     1      -1.428  -0.539   0.028  0.00  0.00    +0.040 C 
ATOM      4  C   UNL     1      -1.436  -2.028   0.254  0.00  0.00    -0.027 A 
ATOM      5  C   UNL     1      -2.613  -2.728  -0.078  0.00  0.00    +0.016 A 
ATOM      6  C   UNL     1      -2.680  -4.073   0.111  0.00  0.00    +0.042 A 
ATOM      7  C   UNL     1      -1.563  -4.742   0.641  0.00  0.00    +0.254 A 
ATOM      8  O   UNL     1      -1.601  -5.949   0.822  0.00  0.00    -0.268 OA
ATOM      9  N   UNL     1      -0.455  -4.050   0.948  0.00  0.00    -0.325 N 
ATOM     10  H   UNL     1       0.310  -4.519   1.317  0.00  0.00    +0.169 HD
ATOM     11  C   UNL     1      -0.378  -2.700   0.751  0.00  0.00    +0.025 A 
ATOM     12  C   UNL     1       0.923  -2.026   1.104  0.00  0.00    +0.033 C 
ATOM     13  C   UNL     1       0.730  -0.518   1.250  0.00  0.00    +0.013 C 
ATOM     14  C   UNL     1       1.946  -2.296  -0.002  0.00  0.00    +0.014 C 
ENDROOT
BRANCH   6  15
ATOM     15  C   UNL     1      -3.931  -4.835  -0.243  0.00  0.00    +0.196 C 
BRANCH  15  16
ATOM     16  O   UNL     1      -4.910  -3.930  -0.758  0.00  0.00    -0.390 OA
ATOM     17  H   UNL     1      -5.743  -4.352  -1.008  0.00  0.00    +0.210 HD
ENDBRANCH  15  16
ENDBRANCH   6  15
TORSDOF 2
