REMARK  Name = ZINC22240172
REMARK  5 active torsions:
REMARK  status: ('A' for Active; 'I' for Inactive)
REMARK    1  A    between atoms: C_1  and  C_2
REMARK    2  A    between atoms: C_2  and  C_29
REMARK    3  A    between atoms: N_5  and  C_9
REMARK    4  A    between atoms: C_9  and  C_10
REMARK    5  A    between atoms: C_23  and  C_25
REMARK                            x       y       z     vdW  Elec       q    Type
REMARK                         _______ _______ _______ _____ _____    ______ ____
ROOT
ATOM      1  C   UNL     1       0.261   5.991  -0.963  0.00  0.00    +0.238 C 
ATOM      2  O   UNL     1       0.232   7.202  -0.891  0.00  0.00    -0.273 OA
ATOM      3  N   UNL     1      -0.067   5.244   0.110  0.00  0.00    -0.256 N 
ATOM      4  C   UNL     1      -0.038   3.844   0.041  0.00  0.00    +0.058 A 
ATOM      5  C   UNL     1       1.168   3.164   0.016  0.00  0.00    +0.025 A 
ATOM      6  C   UNL     1       1.177   1.781   0.000  0.00  0.00    +0.002 A 
ATOM      7  C   UNL     1      -0.013   1.076   0.008  0.00  0.00    +0.002 A 
ATOM      8  C   UNL     1      -1.221   1.748   0.017  0.00  0.00    +0.025 A 
ATOM      9  C   UNL     1      -1.238   3.133   0.031  0.00  0.00    +0.055 A 
ATOM     10  N   UNL     1      -2.449   3.835   0.016  0.00  0.00    -0.284 N 
ATOM     11  C   UNL     1      -2.669   4.837   0.895  0.00  0.00    +0.219 C 
ATOM     12  O   UNL     1      -3.687   5.493   0.818  0.00  0.00    -0.275 OA
ATOM     13  C   UNL     1      -1.660   5.145   1.969  0.00  0.00    +0.128 C 
ATOM     14  C   UNL     1      -0.461   5.880   1.369  0.00  0.00    +0.194 C 
ATOM     15  H   UNL     1      -3.229   3.572  -0.714  0.00  0.00    +0.155 HD
ENDROOT
BRANCH  14  16
ATOM     16  C   UNL     1       0.712   5.828   2.350  0.00  0.00    +0.409 C 
ATOM     17  F   UNL     1       1.056   4.494   2.595  0.00  0.00    -0.169 F 
ATOM     18  F   UNL     1       1.809   6.500   1.802  0.00  0.00    -0.169 F 
ATOM     19  F   UNL     1       0.341   6.442   3.552  0.00  0.00    -0.169 F 
ENDBRANCH  14  16
BRANCH   1  20
ATOM     20  C   UNL     1       0.663   5.322  -2.252  0.00  0.00    +0.214 C 
BRANCH  20  25
ATOM     21  C   UNL     1       0.779   7.474  -6.429  0.00  0.00    +0.047 C 
ATOM     22  C   UNL     1       0.820   7.869  -4.952  0.00  0.00    +0.135 C 
ATOM     23  C   UNL     1       0.062   6.862  -4.110  0.00  0.00    +0.251 C 
ATOM     24  O   UNL     1      -1.115   6.581  -4.187  0.00  0.00    -0.272 OA
ATOM     25  N   UNL     1       0.968   6.344  -3.258  0.00  0.00    -0.215 N 
ATOM     26  C   UNL     1       2.182   6.873  -3.447  0.00  0.00    +0.310 C 
ATOM     27  O   UNL     1       3.163   6.561  -2.801  0.00  0.00    -0.252 OA
ATOM     28  N   UNL     1       2.196   7.789  -4.432  0.00  0.00    -0.281 N 
ATOM     29  H   UNL     1       2.985   8.421  -4.865  0.00  0.00    +0.152 HD
BRANCH  22  30
ATOM     30  C   UNL     1       0.260   9.255  -4.759  0.00  0.00    -0.015 A 
ATOM     31  C   UNL     1      -1.095   9.430  -4.551  0.00  0.00    +0.007 A 
ATOM     32  C   UNL     1      -1.609  10.700  -4.369  0.00  0.00    +0.020 A 
ATOM     33  C   UNL     1      -0.767  11.798  -4.406  0.00  0.00    +0.041 A 
ATOM     34  C   UNL     1       0.589  11.623  -4.620  0.00  0.00    +0.020 A 
ATOM     35  C   UNL     1       1.101  10.351  -4.797  0.00  0.00    +0.007 A 
ATOM     36 CL   UNL     1      -1.412  13.394  -4.184  0.00  0.00    -0.084 Cl
ENDBRANCH  22  30
ENDBRANCH  20  25
ENDBRANCH   1  20
TORSDOF 4
