REMARK  Name = ZINC37282316
REMARK  9 active torsions:
REMARK  status: ('A' for Active; 'I' for Inactive)
REMARK    1  A    between atoms: C_1  and  C_2
REMARK    2  A    between atoms: C_2  and  C_4
REMARK    3  A    between atoms: C_2  and  O_13
REMARK    4  A    between atoms: N_6  and  C_7
REMARK    5  A    between atoms: O_13  and  C_14
REMARK    6  A    between atoms: C_20  and  C_30
REMARK    7  A    between atoms: C_25  and  C_27
REMARK    8  A    between atoms: C_27  and  C_28
REMARK    9  A    between atoms: C_27  and  C_29
REMARK                            x       y       z     vdW  Elec       q    Type
REMARK                         _______ _______ _______ _____ _____    ______ ____
ROOT
ATOM      1  C   UNL     1       3.618  -0.480  -0.481  0.00  0.00    +0.122 A 
ATOM      2  C   UNL     1       4.702  -0.504   0.384  0.00  0.00    +0.046 A 
ATOM      3  C   UNL     1       5.891  -1.069  -0.024  0.00  0.00    +0.007 A 
ATOM      4  C   UNL     1       6.015  -1.621  -1.294  0.00  0.00    -0.040 A 
ATOM      5  C   UNL     1       4.936  -1.606  -2.150  0.00  0.00    -0.016 A 
ATOM      6  C   UNL     1       3.738  -1.036  -1.744  0.00  0.00    +0.051 A 
ATOM      7  C   UNL     1       4.993  -2.212  -3.530  0.00  0.00    +0.137 C 
ATOM      8  N   UNL     1       6.383  -2.525  -3.875  0.00  0.00    -0.290 N 
ATOM      9  C   UNL     1       7.206  -3.178  -2.843  0.00  0.00    +0.113 C 
ATOM     10  C   UNL     1       7.350  -2.206  -1.673  0.00  0.00    +0.054 C 
ATOM     11  C   UNL     1       6.888  -2.227  -5.089  0.00  0.00    +0.219 C 
ATOM     12  O   UNL     1       6.216  -1.615  -5.892  0.00  0.00    -0.275 OA
ENDROOT
BRANCH   7  13
ATOM     13  C   UNL     1       4.436  -1.232  -4.531  0.00  0.00    -0.023 A 
ATOM     14  C   UNL     1       5.026   0.008  -4.685  0.00  0.00    +0.006 A 
ATOM     15  C   UNL     1       4.516   0.907  -5.603  0.00  0.00    +0.000 A 
ATOM     16  C   UNL     1       3.416   0.565  -6.368  0.00  0.00    +0.000 A 
ATOM     17  C   UNL     1       2.827  -0.676  -6.214  0.00  0.00    +0.000 A 
ATOM     18  C   UNL     1       3.340  -1.576  -5.299  0.00  0.00    +0.006 A 
ENDBRANCH   7  13
BRANCH  11  19
ATOM     19  C   UNL     1       8.288  -2.654  -5.448  0.00  0.00    +0.069 C 
ATOM     20  C   UNL     1       8.549  -2.355  -6.926  0.00  0.00    +0.017 C 
ATOM     21  C   UNL     1       9.293  -1.886  -4.587  0.00  0.00    +0.017 C 
ENDBRANCH  11  19
BRANCH   1  22
ATOM     22  O   UNL     1       2.443   0.080  -0.090  0.00  0.00    -0.480 OA
BRANCH  22  24
ATOM     23  C   UNL     1       2.930   1.941   1.373  0.00  0.00    +0.062 C 
ATOM     24  C   UNL     1       2.357   0.526   1.265  0.00  0.00    +0.256 C 
BRANCH  24  25
ATOM     25  C   UNL     1       0.914   0.535   1.700  0.00  0.00    +0.258 C 
ATOM     26  O   UNL     1       0.038   0.280   0.901  0.00  0.00    -0.271 OA
ATOM     27  N   UNL     1       0.597   0.825   2.978  0.00  0.00    -0.282 N 
ATOM     28  H   UNL     1       1.289   1.101   3.599  0.00  0.00    +0.155 HD
BRANCH  27  29
ATOM     29  C   UNL     1      -0.731   0.730   3.408  0.00  0.00    +0.033 A 
ATOM     30  C   UNL     1      -1.222   1.621   4.354  0.00  0.00    +0.023 A 
ATOM     31  C   UNL     1      -2.533   1.524   4.777  0.00  0.00    +0.002 A 
ATOM     32  C   UNL     1      -3.357   0.542   4.259  0.00  0.00    +0.000 A 
ATOM     33  C   UNL     1      -2.872  -0.346   3.317  0.00  0.00    +0.002 A 
ATOM     34  C   UNL     1      -1.563  -0.251   2.885  0.00  0.00    +0.023 A 
ENDBRANCH  27  29
ENDBRANCH  24  25
ENDBRANCH  22  24
ENDBRANCH   1  22
TORSDOF 6
