REMARK  Name = ZINC02913608
REMARK  7 active torsions:
REMARK  status: ('A' for Active; 'I' for Inactive)
REMARK    1  A    between atoms: C_1  and  C_2
REMARK    2  A    between atoms: C_2  and  C_3
REMARK    3  A    between atoms: C_3  and  C_4
REMARK    4  A    between atoms: C_4  and  C_5
REMARK    5  A    between atoms: C_8  and  C_10
REMARK    6  A    between atoms: N_12  and  N_13
REMARK    7  A    between atoms: N_16  and  C_17
REMARK                            x       y       z     vdW  Elec       q    Type
REMARK                         _______ _______ _______ _____ _____    ______ ____
ROOT
ATOM      1  N   UNL     1      -0.534   4.354  -3.425  0.00  0.00    -0.218 N 
ATOM      2  C   UNL     1      -0.540   4.419  -4.771  0.00  0.00    +0.320 C 
ATOM      3  O   UNL     1      -0.293   5.471  -5.329  0.00  0.00    -0.251 OA
ATOM      4  N   UNL     1      -0.819   3.320  -5.498  0.00  0.00    -0.268 N 
ATOM      5  H   UNL     1      -0.333   5.145  -2.901  0.00  0.00    +0.174 HD
ATOM      6  H   UNL     1      -0.950   2.466  -5.056  0.00  0.00    +0.156 HD
ENDROOT
BRANCH   4   7
ATOM      7  C   UNL     1      -0.921   3.409  -6.891  0.00  0.00    +0.035 A 
ATOM      8  C   UNL     1      -1.837   2.620  -7.574  0.00  0.00    +0.023 A 
ATOM      9  C   UNL     1      -1.938   2.714  -8.948  0.00  0.00    +0.002 A 
ATOM     10  C   UNL     1      -1.122   3.586  -9.645  0.00  0.00    +0.000 A 
ATOM     11  C   UNL     1      -0.204   4.369  -8.969  0.00  0.00    +0.002 A 
ATOM     12  C   UNL     1      -0.102   4.283  -7.594  0.00  0.00    +0.023 A 
ENDBRANCH   4   7
BRANCH   1  15
ATOM     13  C   UNL     1      -0.813   3.076  -1.435  0.00  0.00    +0.232 C 
ATOM     14  O   UNL     1      -0.561   4.066  -0.781  0.00  0.00    -0.274 OA
ATOM     15  N   UNL     1      -0.819   3.142  -2.781  0.00  0.00    -0.233 N 
ATOM     16  H   UNL     1      -1.020   2.350  -3.305  0.00  0.00    +0.173 HD
BRANCH  13  19
ATOM     17  C   UNL     1      -1.097   1.763   0.787  0.00  0.00    +0.002 C 
ATOM     18  C   UNL     1       0.025   1.082   0.001  0.00  0.00    +0.017 C 
ATOM     19  C   UNL     1      -1.119   1.773  -0.743  0.00  0.00    +0.080 C 
BRANCH  17  20
ATOM     20  C   UNL     1      -2.105   0.861   1.503  0.00  0.00    +0.004 C 
BRANCH  20  21
ATOM     21  C   UNL     1      -2.008   1.085   3.013  0.00  0.00    +0.000 C 
BRANCH  21  23
ATOM     22  C   UNL     1      -2.918   0.408   5.239  0.00  0.00    +0.004 C 
ATOM     23  C   UNL     1      -3.016   0.184   3.728  0.00  0.00    -0.003 C 
ENDBRANCH  21  23
ENDBRANCH  20  21
ENDBRANCH  17  20
ENDBRANCH  13  19
ENDBRANCH   1  15
TORSDOF 6
