REMARK  Name = ZINC64939095
REMARK  9 active torsions:
REMARK  status: ('A' for Active; 'I' for Inactive)
REMARK    1  A    between atoms: C_1  and  C_2
REMARK    2  A    between atoms: C_2  and  C_3
REMARK    3  A    between atoms: C_2  and  C_4
REMARK    4  A    between atoms: C_4  and  C_5
REMARK    5  A    between atoms: C_5  and  N_6
REMARK    6  A    between atoms: N_9  and  N_10
REMARK    7  A    between atoms: N_10  and  S_11
REMARK    8  A    between atoms: S_11  and  C_14
REMARK    9  A    between atoms: C_24  and  C_26
REMARK                            x       y       z     vdW  Elec       q    Type
REMARK                         _______ _______ _______ _____ _____    ______ ____
ROOT
ATOM      1  S   UNL     1       4.083  -1.004  -6.358  0.00  0.00    +0.074 S 
ATOM      2  O   UNL     1       3.360  -1.824  -7.266  0.00  0.00    -0.152 OA
ATOM      3  O   UNL     1       3.714   0.341  -6.086  0.00  0.00    -0.152 OA
ENDROOT
BRANCH   1   4
ATOM      4  C   UNL     1       5.748  -0.963  -6.934  0.00  0.00    +0.107 A 
ATOM      5  C   UNL     1       6.572   0.092  -6.587  0.00  0.00    +0.030 A 
ATOM      6  C   UNL     1       7.875   0.125  -7.039  0.00  0.00    +0.026 A 
ATOM      7  C   UNL     1       8.360  -0.902  -7.842  0.00  0.00    +0.040 A 
ATOM      8  C   UNL     1       7.535  -1.960  -8.187  0.00  0.00    -0.024 A 
ATOM      9  C   UNL     1       6.229  -1.987  -7.726  0.00  0.00    +0.034 A 
ATOM     10  C   UNL     1       8.028  -3.095  -9.046  0.00  0.00    +0.038 C 
ATOM     11  C   UNL     1       9.259  -2.666  -9.844  0.00  0.00    +0.024 C 
ATOM     12  C   UNL     1      10.285  -2.053  -8.882  0.00  0.00    +0.114 C 
ATOM     13  N   UNL     1       9.685  -0.847  -8.295  0.00  0.00    -0.271 N 
ATOM     14  C   UNL     1      10.397   0.293  -8.194  0.00  0.00    +0.217 C 
ATOM     15  O   UNL     1       9.860   1.312  -7.813  0.00  0.00    -0.276 OA
ATOM     16  C   UNL     1      11.860   0.302  -8.556  0.00  0.00    +0.109 C 
ENDBRANCH   1   4
BRANCH   1  17
ATOM     17  N   UNL     1       4.087  -1.798  -4.905  0.00  0.00    -0.107 NA
ATOM     18  H   UNL     1       3.569  -2.610  -4.794  0.00  0.00    +0.172 HD
BRANCH  17  22
ATOM     19  N   UNL     1       2.925  -1.277  -2.498  0.00  0.00    -0.298 N 
ATOM     20  C   UNL     1       4.243  -1.044  -2.652  0.00  0.00    +0.315 C 
ATOM     21  O   UNL     1       4.896  -0.608  -1.723  0.00  0.00    -0.251 OA
ATOM     22  N   UNL     1       4.839  -1.295  -3.835  0.00  0.00    -0.216 N 
ATOM     23  H   UNL     1       2.404  -1.625  -3.239  0.00  0.00    +0.150 HD
ATOM     24  H   UNL     1       5.788  -1.127  -3.945  0.00  0.00    +0.172 HD
BRANCH  19  25
ATOM     25  C   UNL     1       2.278  -1.005  -1.213  0.00  0.00    +0.106 C 
BRANCH  25  26
ATOM     26  C   UNL     1       0.791  -1.353  -1.306  0.00  0.00    +0.022 C 
BRANCH  26  28
ATOM     27  C   UNL     1       0.162   0.434   0.323  0.00  0.00    +0.007 C 
ATOM     28  C   UNL     1       0.115  -1.068   0.036  0.00  0.00    -0.016 C 
ATOM     29  C   UNL     1      -1.343  -1.532  -0.018  0.00  0.00    +0.007 C 
ENDBRANCH  26  28
ENDBRANCH  25  26
ENDBRANCH  19  25
ENDBRANCH  17  22
ENDBRANCH   1  17
TORSDOF 6
