REMARK  Name = ZINC00902392
REMARK  13 active torsions:
REMARK  status: ('A' for Active; 'I' for Inactive)
REMARK    1  A    between atoms: C_1  and  C_2
REMARK    2  A    between atoms: C_2  and  N_3
REMARK    3  A    between atoms: N_3  and  C_4
REMARK    4  A    between atoms: N_3  and  C_6
REMARK    5  A    between atoms: C_4  and  C_5
REMARK    6  A    between atoms: C_9  and  N_13
REMARK    7  A    between atoms: C_10  and  C_12
REMARK    8  A    between atoms: C_14  and  C_16
REMARK    9  A    between atoms: C_16  and  S_17
REMARK   10  A    between atoms: S_17  and  C_18
REMARK   11  A    between atoms: C_21  and  C_23
REMARK   12  A    between atoms: C_26  and  S_29
REMARK   13  A    between atoms: S_29  and  N_32
REMARK                            x       y       z     vdW  Elec       q    Type
REMARK                         _______ _______ _______ _____ _____    ______ ____
ROOT
ATOM      1  S   UNL     1      -0.062  -9.018  -1.958  0.00  0.00    -0.056 S 
ENDROOT
BRANCH   1   2
ATOM      2  C   UNL     1      -0.238 -10.758  -1.738  0.00  0.00    +0.278 A 
ATOM      3  N   UNL     1      -0.825 -11.358  -0.729  0.00  0.00    -0.101 NA
ATOM      4  N   UNL     1      -0.769 -12.633  -0.897  0.00  0.00    -0.106 NA
ATOM      5  C   UNL     1      -0.145 -12.897  -2.019  0.00  0.00    +0.249 A 
ATOM      6  O   UNL     1       0.199 -11.715  -2.578  0.00  0.00    -0.411 OA
BRANCH   5   7
ATOM      7  C   UNL     1       0.127 -14.239  -2.574  0.00  0.00    +0.039 A 
ATOM      8  C   UNL     1       0.811 -14.373  -3.784  0.00  0.00    +0.015 A 
ATOM      9  C   UNL     1       1.061 -15.629  -4.296  0.00  0.00    +0.029 A 
ATOM     10  C   UNL     1       0.636 -16.755  -3.614  0.00  0.00    +0.106 A 
ATOM     11  C   UNL     1      -0.043 -16.630  -2.414  0.00  0.00    +0.029 A 
ATOM     12  C   UNL     1      -0.294 -15.380  -1.888  0.00  0.00    +0.015 A 
BRANCH  10  13
ATOM     13  S   UNL     1       0.959 -18.355  -4.276  0.00  0.00    +0.061 S 
ATOM     14  O   UNL     1      -0.018 -19.228  -3.724  0.00  0.00    -0.153 OA
ATOM     15  O   UNL     1       1.127 -18.189  -5.677  0.00  0.00    -0.153 OA
BRANCH  13  16
ATOM     16  N   UNL     1       2.423 -18.846  -3.678  0.00  0.00    -0.177 NA
ATOM     17  C   UNL     1       3.731 -18.596  -4.302  0.00  0.00    +0.109 C 
ATOM     18  C   UNL     1       4.800 -19.257  -3.407  0.00  0.00    +0.018 C 
ATOM     19  C   UNL     1       3.988 -20.327  -2.629  0.00  0.00    +0.018 C 
ATOM     20  C   UNL     1       2.632 -19.600  -2.428  0.00  0.00    +0.109 C 
ENDBRANCH  13  16
ENDBRANCH  10  13
ENDBRANCH   5   7
ENDBRANCH   1   2
BRANCH   1  21
ATOM     21  C   UNL     1      -0.857  -8.309  -0.489  0.00  0.00    +0.175 C 
BRANCH  21  23
ATOM     22  N   UNL     1      -1.303  -6.060   0.439  0.00  0.00    -0.285 N 
ATOM     23  C   UNL     1      -0.775  -6.805  -0.552  0.00  0.00    +0.228 C 
ATOM     24  O   UNL     1      -0.234  -6.266  -1.494  0.00  0.00    -0.275 OA
ATOM     25  H   UNL     1      -1.677  -6.491   1.223  0.00  0.00    +0.155 HD
BRANCH  22  29
ATOM     26  C   UNL     1      -1.329  -1.905   0.133  0.00  0.00    +0.014 A 
ATOM     27  C   UNL     1      -0.272  -2.629  -0.388  0.00  0.00    +0.023 A 
ATOM     28  C   UNL     1      -0.261  -4.006  -0.289  0.00  0.00    +0.025 A 
ATOM     29  C   UNL     1      -1.312  -4.664   0.337  0.00  0.00    +0.036 A 
ATOM     30  C   UNL     1      -2.371  -3.935   0.860  0.00  0.00    -0.028 A 
ATOM     31  C   UNL     1      -2.374  -2.557   0.761  0.00  0.00    +0.026 A 
ATOM     32  C   UNL     1      -3.513  -4.645   1.540  0.00  0.00    +0.046 C 
BRANCH  26  33
ATOM     33  N   UNL     1      -1.337  -0.511   0.031  0.00  0.00    -0.394 NA
ATOM     34  H   UNL     1      -2.173  -0.147   0.464  0.00  0.00    +0.126 HD
BRANCH  33  36
ATOM     35  C   UNL     1      -0.228   1.566   0.705  0.00  0.00    +0.022 C 
ATOM     36  C   UNL     1      -0.155   0.037   0.709  0.00  0.00    +0.081 C 
ENDBRANCH  33  36
BRANCH  33  37
ATOM     37  C   UNL     1      -1.313  -0.124  -1.386  0.00  0.00    +0.081 C 
ATOM     38  C   UNL     1      -2.604  -0.588  -2.064  0.00  0.00    +0.022 C 
ENDBRANCH  33  37
ENDBRANCH  26  33
ENDBRANCH  22  29
ENDBRANCH  21  23
ENDBRANCH   1  21
TORSDOF 10
