REMARK  Name = ZINC62347251
REMARK  12 active torsions:
REMARK  status: ('A' for Active; 'I' for Inactive)
REMARK    1  A    between atoms: C_1  and  C_2
REMARK    2  A    between atoms: C_2  and  C_3
REMARK    3  A    between atoms: C_3  and  C_4
REMARK    4  A    between atoms: C_4  and  N_5
REMARK    5  A    between atoms: N_5  and  C_6
REMARK    6  A    between atoms: N_5  and  C_7
REMARK    7  A    between atoms: C_7  and  C_8
REMARK    8  A    between atoms: C_8  and  C_10
REMARK    9  A    between atoms: C_13  and  O_18
REMARK   10  A    between atoms: C_15  and  O_16
REMARK   11  A    between atoms: O_16  and  C_17
REMARK   12  A    between atoms: O_18  and  C_19
REMARK                            x       y       z     vdW  Elec       q    Type
REMARK                         _______ _______ _______ _____ _____    ______ ____
ROOT
ATOM      1  C   UNL     1       2.196  -4.545   3.708  0.00  0.00    +0.097 C 
ATOM      2 CL   UNL     1       3.707  -3.650   4.117  0.00  0.00    -0.119 Cl
ENDROOT
BRANCH   1   3
ATOM      3  C   UNL     1       2.490  -6.021   3.637  0.00  0.00    +0.010 A 
ATOM      4  C   UNL     1       3.772  -6.458   3.362  0.00  0.00    +0.012 A 
ATOM      5  C   UNL     1       4.044  -7.811   3.297  0.00  0.00    +0.046 A 
ATOM      6  C   UNL     1       3.030  -8.735   3.508  0.00  0.00    +0.124 A 
ATOM      7  C   UNL     1       1.744  -8.299   3.784  0.00  0.00    +0.091 A 
ATOM      8  C   UNL     1       1.474  -6.941   3.854  0.00  0.00    +0.128 A 
BRANCH   8   9
ATOM      9  O   UNL     1       0.215  -6.511   4.131  0.00  0.00    -0.495 OA
ATOM     10  C   UNL     1      -0.781  -7.513   4.344  0.00  0.00    +0.277 C 
ENDBRANCH   8   9
BRANCH   6  11
ATOM     11  O   UNL     1       3.299 -10.065   3.443  0.00  0.00    -0.495 OA
ATOM     12  C   UNL     1       4.647 -10.442   3.154  0.00  0.00    +0.277 C 
ENDBRANCH   6  11
ENDBRANCH   1   3
BRANCH   1  13
ATOM     13  C   UNL     1       1.671  -4.064   2.353  0.00  0.00    -0.055 C 
BRANCH  13  14
ATOM     14  N   UNL     1       1.345  -2.634   2.434  0.00  0.00    +0.379 N 
ATOM     15  C   UNL     1       0.982  -2.138   1.100  0.00  0.00    -0.096 C 
ATOM     16  H   UNL     1       2.146  -2.125   2.776  0.00  0.00    -0.082 HD
BRANCH  14  17
ATOM     17  C   UNL     1       0.214  -2.441   3.352  0.00  0.00    -0.079 C 
BRANCH  17  18
ATOM     18  C   UNL     1      -0.045  -0.944   3.533  0.00  0.00    -0.019 C 
BRANCH  18  20
ATOM     19  C   UNL     1      -1.482   0.755   4.670  0.00  0.00    +0.004 C 
ATOM     20  C   UNL     1      -1.222  -0.742   4.489  0.00  0.00    -0.005 C 
ENDBRANCH  18  20
ENDBRANCH  17  18
ENDBRANCH  14  17
ENDBRANCH  13  14
ENDBRANCH   1  13
TORSDOF 8
