REMARK  Name = ZINC20082489
REMARK  14 active torsions:
REMARK  status: ('A' for Active; 'I' for Inactive)
REMARK    1  A    between atoms: C_1  and  C_2
REMARK    2  A    between atoms: C_2  and  C_3
REMARK    3  A    between atoms: C_10  and  C_15
REMARK    4  A    between atoms: C_15  and  C_17
REMARK    5  A    between atoms: C_15  and  N_27
REMARK    6  A    between atoms: N_21  and  C_22
REMARK    7  A    between atoms: C_22  and  C_23
REMARK    8  A    between atoms: C_22  and  C_24
REMARK    9  A    between atoms: C_22  and  C_25
REMARK   10  A    between atoms: C_25  and  C_26
REMARK   11  A    between atoms: N_27  and  C_28
REMARK   12  A    between atoms: N_27  and  C_35
REMARK   13  A    between atoms: C_28  and  C_29
REMARK   14  A    between atoms: C_35  and  C_36
REMARK                            x       y       z     vdW  Elec       q    Type
REMARK                         _______ _______ _______ _____ _____    ______ ____
ROOT
ATOM      1  C   UNL     1       6.710  -0.189  -0.322  0.00  0.00    +0.163 C 
ENDROOT
BRANCH   1   9
ATOM      2  C   UNL     1       0.659  -0.864   0.783  0.00  0.00    -0.047 A 
ATOM      3  C   UNL     1       0.260   0.329   0.196  0.00  0.00    +0.005 A 
ATOM      4  C   UNL     1       1.185   1.178  -0.371  0.00  0.00    +0.026 A 
ATOM      5  C   UNL     1       2.534   0.838  -0.356  0.00  0.00    +0.049 A 
ATOM      6  C   UNL     1       2.935  -0.372   0.240  0.00  0.00    -0.001 A 
ATOM      7  C   UNL     1       1.978  -1.219   0.809  0.00  0.00    +0.013 A 
ATOM      8  C   UNL     1       4.357  -0.721   0.251  0.00  0.00    +0.021 A 
ATOM      9  C   UNL     1       5.239   0.139  -0.317  0.00  0.00    +0.042 A 
ATOM     10  C   UNL     1       4.785   1.341  -0.901  0.00  0.00    +0.254 A 
ATOM     11  O   UNL     1       5.594   2.100  -1.405  0.00  0.00    -0.268 OA
ATOM     12  N   UNL     1       3.481   1.670  -0.915  0.00  0.00    -0.322 N 
ATOM     13  H   UNL     1       3.174   2.617  -1.383  0.00  0.00    +0.169 HD
BRANCH   2  15
ATOM     14  C   UNL     1      -0.877  -2.760   0.340  0.00  0.00    +0.009 C 
ATOM     15  C   UNL     1      -0.371  -1.776   1.397  0.00  0.00    +0.032 C 
ENDBRANCH   2  15
ENDBRANCH   1   9
BRANCH   1  16
ATOM     16  C   UNL     1       7.434   0.735   0.623  0.00  0.00    +0.174 A 
ATOM     17  N   UNL     1       7.537   2.037   0.519  0.00  0.00    -0.111 NA
ATOM     18  N   UNL     1       8.230   2.462   1.519  0.00  0.00    -0.023 NA
ATOM     19  N   UNL     1       8.578   1.464   2.253  0.00  0.00    -0.043 NA
ATOM     20  N   UNL     1       8.107   0.381   1.734  0.00  0.00    -0.222 N 
BRANCH  20  21
ATOM     21  C   UNL     1       8.272  -0.978   2.256  0.00  0.00    +0.062 C 
ATOM     22  C   UNL     1       6.898  -1.582   2.550  0.00  0.00    +0.036 C 
ATOM     23  C   UNL     1       8.996  -1.837   1.218  0.00  0.00    +0.036 C 
BRANCH  21  24
ATOM     24  C   UNL     1       9.096  -0.932   3.545  0.00  0.00    +0.026 C 
ATOM     25  C   UNL     1       9.269  -2.351   4.090  0.00  0.00    +0.006 C 
ENDBRANCH  21  24
ENDBRANCH  20  21
ENDBRANCH   1  16
BRANCH   1  26
ATOM     26  N   UNL     1       7.244  -0.018  -1.680  0.00  0.00    -0.280 NA
BRANCH  26  27
ATOM     27  C   UNL     1       8.711   0.063  -1.662  0.00  0.00    +0.121 C 
BRANCH  27  28
ATOM     28  C   UNL     1       9.208   0.480  -3.022  0.00  0.00    -0.033 A 
ATOM     29  C   UNL     1       9.509  -0.478  -3.972  0.00  0.00    +0.005 A 
ATOM     30  C   UNL     1       9.959  -0.095  -5.221  0.00  0.00    +0.000 A 
ATOM     31  C   UNL     1      10.119   1.246  -5.518  0.00  0.00    +0.000 A 
ATOM     32  C   UNL     1       9.824   2.204  -4.566  0.00  0.00    +0.000 A 
ATOM     33  C   UNL     1       9.368   1.821  -3.318  0.00  0.00    +0.005 A 
ENDBRANCH  27  28
ENDBRANCH  26  27
BRANCH  26  34
ATOM     34  C   UNL     1       6.788  -1.098  -2.565  0.00  0.00    +0.128 C 
BRANCH  34  35
ATOM     35  C   UNL     1       5.369  -0.830  -2.995  0.00  0.00    +0.004 A 
ATOM     36  C   UNL     1       4.908   0.051  -3.917  0.00  0.00    +0.012 A 
ATOM     37  C   UNL     1       3.548   0.126  -4.150  0.00  0.00    +0.008 A 
ATOM     38  C   UNL     1       2.715  -0.682  -3.450  0.00  0.00    +0.045 A 
ATOM     39  S   UNL     1       3.858  -1.593  -2.426  0.00  0.00    -0.100 S 
ENDBRANCH  34  35
ENDBRANCH  26  34
ENDBRANCH   1  26
TORSDOF 10
