REMARK  Name = ZINC39330637
REMARK  4 active torsions:
REMARK  status: ('A' for Active; 'I' for Inactive)
REMARK    1  A    between atoms: C_4  and  C_7
REMARK    2  A    between atoms: C_17  and  N_19
REMARK    3  A    between atoms: C_23  and  C_26
REMARK    4  A    between atoms: C_31  and  C_34
REMARK                            x       y       z     vdW  Elec       q    Type
REMARK                         _______ _______ _______ _____ _____    ______ ____
ROOT
ATOM      1  N   UNL     1       2.892  -2.431  -1.151  0.00  0.00    +0.391 N 
ATOM      2  C   UNL     1       1.569  -1.797  -1.112  0.00  0.00    -0.077 C 
ATOM      3  C   UNL     1       0.804  -2.124  -2.397  0.00  0.00    -0.018 C 
ATOM      4  C   UNL     1       0.641  -3.642  -2.515  0.00  0.00    +0.009 C 
ATOM      5  C   UNL     1       2.024  -4.298  -2.480  0.00  0.00    +0.059 C 
ATOM      6  C   UNL     1       2.744  -3.890  -1.192  0.00  0.00    -0.065 C 
ATOM      7  H   UNL     1       3.387  -2.120  -1.974  0.00  0.00    -0.080 HD
ENDROOT
BRANCH   1  18
ATOM      8  C   UNL     1       5.068  -2.566  -0.116  0.00  0.00    -0.036 C 
ATOM      9  C   UNL     1       5.545  -3.434   0.871  0.00  0.00    +0.000 A 
ATOM     10  C   UNL     1       6.854  -3.955   0.800  0.00  0.00    +0.030 A 
ATOM     11  C   UNL     1       7.294  -4.798   1.774  0.00  0.00    +0.042 A 
ATOM     12  C   UNL     1       6.476  -5.158   2.844  0.00  0.00    +0.022 A 
ATOM     13  C   UNL     1       5.204  -4.687   2.966  0.00  0.00    +0.025 A 
ATOM     14  C   UNL     1       4.683  -3.812   1.996  0.00  0.00    +0.041 A 
ATOM     15  N   UNL     1       3.434  -3.349   2.119  0.00  0.00    -0.286 N 
ATOM     16  C   UNL     1       2.873  -2.528   1.253  0.00  0.00    +0.208 C 
ATOM     17  O   UNL     1       1.731  -2.148   1.428  0.00  0.00    -0.277 OA
ATOM     18  C   UNL     1       3.651  -2.051   0.048  0.00  0.00    +0.052 C 
ATOM     19 CL   UNL     1       8.905  -5.438   1.682  0.00  0.00    -0.084 Cl
ATOM     20  H   UNL     1       2.913  -3.635   2.885  0.00  0.00    +0.155 HD
BRANCH   8  24
ATOM     21  C   UNL     1       7.449  -1.428  -3.370  0.00  0.00    +0.000 A 
ATOM     22  C   UNL     1       7.196  -2.770  -3.139  0.00  0.00    +0.001 A 
ATOM     23  C   UNL     1       6.415  -3.155  -2.072  0.00  0.00    +0.008 A 
ATOM     24  C   UNL     1       5.874  -2.181  -1.217  0.00  0.00    -0.022 A 
ATOM     25  C   UNL     1       6.137  -0.823  -1.459  0.00  0.00    +0.008 A 
ATOM     26  C   UNL     1       6.920  -0.459  -2.532  0.00  0.00    +0.001 A 
ENDBRANCH   8  24
ENDBRANCH   1  18
BRANCH   5  27
ATOM     27  C   UNL     1       1.872  -5.796  -2.520  0.00  0.00    +0.217 C 
ATOM     28  O   UNL     1       1.714  -6.418  -1.490  0.00  0.00    -0.275 OA
ATOM     29  N   UNL     1       1.910  -6.447  -3.700  0.00  0.00    -0.301 N 
ATOM     30  C   UNL     1       2.009  -5.702  -4.962  0.00  0.00    +0.108 C 
ATOM     31  C   UNL     1       0.871  -6.146  -5.887  0.00  0.00    +0.032 C 
ATOM     32  C   UNL     1       0.916  -7.667  -6.050  0.00  0.00    +0.078 C 
ATOM     33  C   UNL     1       0.718  -8.334  -4.687  0.00  0.00    +0.032 C 
ATOM     34  C   UNL     1       1.859  -7.914  -3.748  0.00  0.00    +0.108 C 
BRANCH  32  35
ATOM     35  C   UNL     1      -0.180  -8.105  -6.987  0.00  0.00    +0.214 C 
ATOM     36  O   UNL     1      -0.924  -7.281  -7.476  0.00  0.00    -0.276 OA
ATOM     37  N   UNL     1      -0.335  -9.411  -7.280  0.00  0.00    -0.329 N 
ATOM     38  H   UNL     1       0.261 -10.069  -6.889  0.00  0.00    +0.145 HD
ATOM     39  H   UNL     1      -1.040  -9.692  -7.883  0.00  0.00    +0.145 HD
ENDBRANCH  32  35
ENDBRANCH   5  27
TORSDOF 4
