REMARK  Name = ZINC48261991
REMARK  5 active torsions:
REMARK  status: ('A' for Active; 'I' for Inactive)
REMARK    1  A    between atoms: C_3  and  N_19
REMARK    2  A    between atoms: C_6  and  C_7
REMARK    3  A    between atoms: C_7  and  N_8
REMARK    4  A    between atoms: N_11  and  C_12
REMARK    5  A    between atoms: C_12  and  C_13
REMARK                            x       y       z     vdW  Elec       q    Type
REMARK                         _______ _______ _______ _____ _____    ______ ____
ROOT
ATOM      1  C   UNL     1      -1.294  -0.773   0.011  0.00  0.00    +0.141 C 
ENDROOT
BRANCH   1   7
ATOM      2  C   UNL     1      -0.016   1.378   0.030  0.00  0.00    +0.007 A 
ATOM      3  C   UNL     1       1.169   2.087   0.022  0.00  0.00    +0.023 A 
ATOM      4  C   UNL     1       2.381   1.409  -0.013  0.00  0.00    +0.030 A 
ATOM      5  C   UNL     1       2.396   0.020  -0.041  0.00  0.00    +0.023 A 
ATOM      6  C   UNL     1       1.207  -0.682  -0.033  0.00  0.00    +0.007 A 
ATOM      7  C   UNL     1       0.002  -0.004   0.002  0.00  0.00    -0.030 A 
BRANCH   4   8
ATOM      8  N   UNL     1       3.582   2.122  -0.021  0.00  0.00    -0.328 N 
ATOM      9  C   UNL     1       4.852   1.400   0.068  0.00  0.00    +0.116 C 
ATOM     10  C   UNL     1       5.632   1.575  -1.241  0.00  0.00    +0.088 C 
ATOM     11  S   UNL     1       5.869   3.352  -1.543  0.00  0.00    -0.158 S 
ATOM     12  C   UNL     1       4.180   4.017  -1.450  0.00  0.00    +0.088 C 
ATOM     13  C   UNL     1       3.555   3.582  -0.124  0.00  0.00    +0.116 C 
ENDBRANCH   4   8
ENDBRANCH   1   7
BRANCH   1  14
ATOM     14  N   UNL     1      -1.739  -0.995  -1.367  0.00  0.00    -0.295 N 
ATOM     15  C   UNL     1      -2.883  -1.667  -1.606  0.00  0.00    +0.300 C 
ATOM     16  O   UNL     1      -3.545  -2.089  -0.677  0.00  0.00    -0.253 OA
ATOM     17  N   UNL     1      -3.293  -1.871  -2.873  0.00  0.00    -0.294 N 
ATOM     18  H   UNL     1      -1.211  -0.659  -2.108  0.00  0.00    +0.151 HD
ATOM     19  H   UNL     1      -2.764  -1.535  -3.614  0.00  0.00    +0.151 HD
BRANCH  17  20
ATOM     20  C   UNL     1      -4.536  -2.601  -3.133  0.00  0.00    +0.163 C 
BRANCH  20  21
ATOM     21  C   UNL     1      -4.765  -2.691  -4.619  0.00  0.00    +0.080 A 
ATOM     22  C   UNL     1      -4.402  -3.763  -5.442  0.00  0.00    +0.045 A 
ATOM     23  C   UNL     1      -4.778  -3.463  -6.707  0.00  0.00    +0.105 A 
ATOM     24  N   UNL     1      -5.358  -2.245  -6.686  0.00  0.00    -0.284 N 
ATOM     25  H   UNL     1      -5.724  -1.774  -7.450  0.00  0.00    +0.188 HD
ATOM     26  N   UNL     1      -5.343  -1.783  -5.363  0.00  0.00    -0.177 NA
ENDBRANCH  20  21
ENDBRANCH  17  20
ENDBRANCH   1  14
TORSDOF 5
