REMARK  Name = ZINC20842292
REMARK  11 active torsions:
REMARK  status: ('A' for Active; 'I' for Inactive)
REMARK    1  A    between atoms: C_1  and  C_2
REMARK    2  A    between atoms: C_2  and  C_3
REMARK    3  A    between atoms: C_2  and  C_4
REMARK    4  A    between atoms: C_2  and  C_5
REMARK    5  A    between atoms: C_8  and  S_11
REMARK    6  A    between atoms: N_9  and  N_10
REMARK    7  A    between atoms: S_11  and  C_12
REMARK    8  A    between atoms: C_12  and  C_13
REMARK    9  A    between atoms: C_19  and  S_21
REMARK   10  A    between atoms: S_21  and  C_22
REMARK   11  A    between atoms: C_22  and  C_23
REMARK                            x       y       z     vdW  Elec       q    Type
REMARK                         _______ _______ _______ _____ _____    ______ ____
ROOT
ATOM      1  C   UNL     1       0.748   7.696   0.037  0.00  0.00    +0.229 C 
ATOM      2  O   UNL     1       1.951   7.852   0.027  0.00  0.00    -0.275 OA
ATOM      3  N   UNL     1      -0.070   8.768   0.050  0.00  0.00    -0.263 N 
ATOM      4  C   UNL     1       0.466  10.053   0.052  0.00  0.00    +0.189 A 
ATOM      5  N   UNL     1       1.729  10.448   0.043  0.00  0.00    -0.125 NA
ATOM      6  N   UNL     1       2.048  11.668   0.046  0.00  0.00    -0.133 NA
ATOM      7  C   UNL     1       1.137  12.630   0.060  0.00  0.00    +0.160 A 
ATOM      8  S   UNL     1      -0.357  11.643   0.061  0.00  0.00    -0.024 S 
ATOM      9  H   UNL     1      -1.161   8.627   0.059  0.00  0.00    +0.157 HD
ENDROOT
BRANCH   1  10
ATOM     10  C   UNL     1       0.168   6.305   0.035  0.00  0.00    +0.173 C 
BRANCH  10  11
ATOM     11  S   UNL     1       1.510   5.092   0.015  0.00  0.00    -0.075 S 
BRANCH  11  15
ATOM     12  C   UNL     1      -0.018   1.503   0.010  0.00  0.00    +0.156 A 
ATOM     13  N   UNL     1      -1.078   2.261   0.019  0.00  0.00    -0.131 NA
ATOM     14  N   UNL     1      -0.735   3.499   0.028  0.00  0.00    -0.121 NA
ATOM     15  C   UNL     1       0.574   3.599   0.016  0.00  0.00    +0.209 A 
ATOM     16  N   UNL     1       1.072   2.328   0.004  0.00  0.00    -0.227 N 
BRANCH  12  18
ATOM     17  C   UNL     1       0.742  -0.511   1.242  0.00  0.00    +0.019 C 
ATOM     18  C   UNL     1       0.002  -0.004   0.002  0.00  0.00    +0.024 C 
ATOM     19  C   UNL     1      -1.433  -0.534   0.013  0.00  0.00    +0.019 C 
ATOM     20  C   UNL     1       0.718  -0.497  -1.257  0.00  0.00    +0.019 C 
ENDBRANCH  12  18
BRANCH  16  21
ATOM     21  N   UNL     1       2.387   1.958  -0.010  0.00  0.00    -0.295 N 
ATOM     22  H   UNL     1       3.175   2.725  -0.014  0.00  0.00    +0.163 HD
ATOM     23  H   UNL     1       2.658   0.891  -0.018  0.00  0.00    +0.163 HD
ENDBRANCH  16  21
ENDBRANCH  11  15
ENDBRANCH  10  11
ENDBRANCH   1  10
BRANCH   7  24
ATOM     24  S   UNL     1       1.339  14.380   0.066  0.00  0.00    -0.088 S 
BRANCH  24  25
ATOM     25  C   UNL     1       3.137  14.615   0.050  0.00  0.00    +0.171 C 
BRANCH  25  26
ATOM     26  C   UNL     1       3.451  16.089   0.055  0.00  0.00    +0.221 C 
ATOM     27  O   UNL     1       2.551  16.901   0.067  0.00  0.00    -0.275 OA
ATOM     28  N   UNL     1       4.733  16.505   0.044  0.00  0.00    -0.329 N 
ATOM     29  H   UNL     1       4.963  17.581   0.048  0.00  0.00    +0.145 HD
ATOM     30  H   UNL     1       5.550  15.768   0.033  0.00  0.00    +0.145 HD
ENDBRANCH  25  26
ENDBRANCH  24  25
ENDBRANCH   7  24
TORSDOF 8
