REMARK  Name = ZINC53617619
REMARK  9 active torsions:
REMARK  status: ('A' for Active; 'I' for Inactive)
REMARK    1  A    between atoms: C_1  and  C_2
REMARK    2  A    between atoms: C_2  and  C_3
REMARK    3  A    between atoms: C_2  and  C_4
REMARK    4  A    between atoms: C_2  and  C_5
REMARK    5  A    between atoms: C_5  and  C_7
REMARK    6  A    between atoms: C_5  and  N_13
REMARK    7  A    between atoms: N_13  and  C_14
REMARK    8  A    between atoms: C_14  and  C_15
REMARK    9  A    between atoms: N_17  and  C_18
REMARK                            x       y       z     vdW  Elec       q    Type
REMARK                         _______ _______ _______ _____ _____    ______ ____
ROOT
ATOM      1  C   UNL     1      -0.877  -0.596  -3.189  0.00  0.00    +0.178 C 
ENDROOT
BRANCH   1   2
ATOM      2  C   UNL     1      -1.496   0.235  -4.284  0.00  0.00    +0.228 C 
ATOM      3  O   UNL     1      -0.874   1.157  -4.770  0.00  0.00    -0.274 OA
ATOM      4  N   UNL     1      -2.739  -0.045  -4.722  0.00  0.00    -0.303 N 
ATOM      5  H   UNL     1      -3.235  -0.782  -4.334  0.00  0.00    +0.149 HD
BRANCH   4   6
ATOM      6  C   UNL     1      -3.340   0.763  -5.786  0.00  0.00    +0.159 C 
ATOM      7  C   UNL     1      -4.851   0.525  -5.821  0.00  0.00    +0.032 C 
ATOM      8  C   UNL     1      -5.177  -0.915  -5.468  0.00  0.00    +0.004 C 
ATOM      9  C   UNL     1      -4.697  -1.922  -6.496  0.00  0.00    +0.019 C 
ATOM     10  C   UNL     1      -3.168  -1.972  -6.538  0.00  0.00    +0.104 C 
ATOM     11  N   UNL     1      -2.688  -0.932  -7.462  0.00  0.00    -0.314 N 
ATOM     12  C   UNL     1      -2.755   0.360  -7.123  0.00  0.00    +0.233 C 
ATOM     13  O   UNL     1      -2.352   1.211  -7.888  0.00  0.00    -0.274 OA
ATOM     14  H   UNL     1      -2.318  -1.185  -8.322  0.00  0.00    +0.149 HD
ENDBRANCH   4   6
ENDBRANCH   1   2
BRANCH   1  15
ATOM     15  N   UNL     1       0.471  -0.092  -2.894  0.00  0.00    -0.301 NA
ATOM     16  H   UNL     1       0.443   0.880  -2.627  0.00  0.00    +0.123 HD
BRANCH  15  17
ATOM     17  C   UNL     1       1.120  -0.904  -1.856  0.00  0.00    +0.090 C 
BRANCH  17  18
ATOM     18  C   UNL     1       2.520  -1.252  -2.293  0.00  0.00    -0.030 A 
ATOM     19  C   UNL     1       3.299  -0.308  -2.935  0.00  0.00    +0.005 A 
ATOM     20  C   UNL     1       4.582  -0.627  -3.336  0.00  0.00    +0.000 A 
ATOM     21  C   UNL     1       5.087  -1.891  -3.095  0.00  0.00    +0.000 A 
ATOM     22  C   UNL     1       4.309  -2.836  -2.453  0.00  0.00    +0.000 A 
ATOM     23  C   UNL     1       3.027  -2.515  -2.048  0.00  0.00    +0.005 A 
ENDBRANCH  17  18
BRANCH  17  25
ATOM     24  C   UNL     1       1.997   1.163  -0.761  0.00  0.00    +0.012 C 
ATOM     25  C   UNL     1       1.177  -0.111  -0.549  0.00  0.00    -0.018 C 
ATOM     26  C   UNL     1       1.833  -0.965   0.538  0.00  0.00    +0.012 C 
ATOM     27  C   UNL     1      -0.242   0.262  -0.117  0.00  0.00    +0.012 C 
ENDBRANCH  17  25
ENDBRANCH  15  17
ENDBRANCH   1  15
TORSDOF 6
