REMARK  Name = ZINC03518960
REMARK  12 active torsions:
REMARK  status: ('A' for Active; 'I' for Inactive)
REMARK    1  A    between atoms: C_1  and  C_2
REMARK    2  A    between atoms: C_5  and  C_32
REMARK    3  A    between atoms: C_6  and  N_8
REMARK    4  A    between atoms: C_9  and  C_11
REMARK    5  A    between atoms: C_11  and  C_12
REMARK    6  A    between atoms: N_16  and  C_27
REMARK    7  A    between atoms: N_18  and  C_19
REMARK    8  A    between atoms: C_24  and  C_25
REMARK    9  A    between atoms: C_27  and  C_28
REMARK   10  A    between atoms: C_28  and  C_29
REMARK   11  A    between atoms: C_29  and  O_30
REMARK   12  A    between atoms: O_30  and  C_31
REMARK                            x       y       z     vdW  Elec       q    Type
REMARK                         _______ _______ _______ _____ _____    ______ ____
ROOT
ATOM      1  C   UNL     1       2.868   8.190  -0.651  0.00  0.00    +0.149 C 
ATOM      2  C   UNL     1       4.276   8.762  -0.709  0.00  0.00    +0.235 C 
ATOM      3  O   UNL     1       4.977   8.650  -1.692  0.00  0.00    -0.274 OA
ATOM      4  N   UNL     1       4.686   9.389   0.381  0.00  0.00    -0.250 N 
ATOM      5  C   UNL     1       3.892   9.519   1.501  0.00  0.00    +0.164 C 
ATOM      6  N   UNL     1       4.181  10.114   2.635  0.00  0.00    -0.226 NA
ATOM      7  S   UNL     1       2.377   8.689   1.046  0.00  0.00    -0.077 S 
ENDROOT
BRANCH   6   8
ATOM      8  C   UNL     1       3.302  10.054   3.683  0.00  0.00    +0.069 A 
ATOM      9  C   UNL     1       2.760   8.829   4.075  0.00  0.00    +0.028 A 
ATOM     10  C   UNL     1       1.875   8.776   5.132  0.00  0.00    +0.002 A 
ATOM     11  C   UNL     1       1.524   9.934   5.803  0.00  0.00    +0.000 A 
ATOM     12  C   UNL     1       2.057  11.152   5.419  0.00  0.00    +0.005 A 
ATOM     13  C   UNL     1       2.948  11.218   4.368  0.00  0.00    -0.025 A 
ATOM     14  C   UNL     1       3.532  12.545   3.955  0.00  0.00    +0.046 C 
ENDBRANCH   6   8
BRANCH   1  15
ATOM     15  C   UNL     1       2.883   6.667  -0.799  0.00  0.00    +0.120 C 
BRANCH  15  17
ATOM     16  N   UNL     1       1.235   4.823  -0.880  0.00  0.00    -0.285 N 
ATOM     17  C   UNL     1       1.469   6.146  -0.766  0.00  0.00    +0.219 C 
ATOM     18  O   UNL     1       0.541   6.917  -0.637  0.00  0.00    -0.275 OA
ATOM     19  H   UNL     1       2.078   4.117  -0.917  0.00  0.00    +0.155 HD
BRANCH  16  25
ATOM     20  C   UNL     1      -3.522   5.659  -1.794  0.00  0.00    +0.044 C 
ATOM     21  C   UNL     1      -2.405   4.732  -1.391  0.00  0.00    -0.049 A 
ATOM     22  C   UNL     1      -2.677   3.409  -1.097  0.00  0.00    +0.004 A 
ATOM     23  C   UNL     1      -1.655   2.556  -0.721  0.00  0.00    +0.005 A 
ATOM     24  C   UNL     1      -0.357   3.022  -0.651  0.00  0.00    -0.029 A 
ATOM     25  C   UNL     1      -0.079   4.349  -0.951  0.00  0.00    +0.037 A 
ATOM     26  C   UNL     1      -1.109   5.204  -1.323  0.00  0.00    +0.027 A 
ATOM     27  C   UNL     1       0.758   2.091  -0.248  0.00  0.00    +0.045 C 
ENDBRANCH  16  25
ENDBRANCH  15  17
ENDBRANCH   1  15
BRANCH   4  28
ATOM     28  C   UNL     1       6.033   9.966   0.399  0.00  0.00    +0.118 C 
BRANCH  28  29
ATOM     29  C   UNL     1       7.026   8.926   0.922  0.00  0.00    +0.047 C 
BRANCH  29  30
ATOM     30  C   UNL     1       8.432   9.529   0.941  0.00  0.00    +0.161 C 
BRANCH  30  31
ATOM     31  O   UNL     1       9.360   8.558   1.429  0.00  0.00    -0.383 OA
ATOM     32  C   UNL     1      10.710   9.022   1.487  0.00  0.00    +0.193 C 
ENDBRANCH  30  31
ENDBRANCH  29  30
ENDBRANCH  28  29
ENDBRANCH   4  28
TORSDOF 8
