REMARK  Name = ZINC37675683
REMARK  6 active torsions:
REMARK  status: ('A' for Active; 'I' for Inactive)
REMARK    1  A    between atoms: C_1  and  C_2
REMARK    2  A    between atoms: C_3  and  C_18
REMARK    3  A    between atoms: C_4  and  N_7
REMARK    4  A    between atoms: C_8  and  C_10
REMARK    5  A    between atoms: C_15  and  S_16
REMARK    6  A    between atoms: S_16  and  C_17
REMARK                            x       y       z     vdW  Elec       q    Type
REMARK                         _______ _______ _______ _____ _____    ______ ____
ROOT
ATOM      1  N   UNL     1       0.035  -3.095  -2.003  0.00  0.00    -0.274 N 
ATOM      2  C   UNL     1       0.055  -4.395  -1.646  0.00  0.00    +0.250 C 
ATOM      3  O   UNL     1       0.065  -4.702  -0.469  0.00  0.00    -0.270 OA
ATOM      4  H   UNL     1       0.026  -2.850  -2.941  0.00  0.00    +0.156 HD
ENDROOT
BRANCH   1   8
ATOM      5  C   UNL     1      -0.018   1.503   0.010  0.00  0.00    +0.067 C 
ATOM      6  C   UNL     1       0.002  -0.004   0.002  0.00  0.00    +0.063 A 
ATOM      7  C   UNL     1       0.006  -0.723  -1.196  0.00  0.00    +0.114 A 
ATOM      8  C   UNL     1       0.026  -2.112  -1.031  0.00  0.00    +0.106 A 
ATOM      9  S   UNL     1       0.037  -2.289   0.637  0.00  0.00    +0.028 S 
ATOM     10  N   UNL     1       0.022  -0.686   1.111  0.00  0.00    -0.213 NA
BRANCH   7  11
ATOM     11  C   UNL     1      -0.010  -0.079  -2.509  0.00  0.00    +0.391 C 
ATOM     12  O   UNL     1      -0.028   1.143  -2.592  0.00  0.00    -0.240 OA
ATOM     13  O   UNL     1      -0.006  -0.761  -3.526  0.00  0.00    -0.240 OA
ENDBRANCH   7  11
ENDBRANCH   1   8
BRANCH   2  14
ATOM     14  C   UNL     1       0.064  -5.443  -2.681  0.00  0.00    +0.050 A 
ATOM     15  C   UNL     1       0.058  -5.095  -4.035  0.00  0.00    +0.014 A 
ATOM     16  C   UNL     1       0.067  -6.079  -4.998  0.00  0.00    +0.001 A 
ATOM     17  C   UNL     1       0.081  -7.417  -4.633  0.00  0.00    +0.001 A 
ATOM     18  C   UNL     1       0.087  -7.778  -3.302  0.00  0.00    +0.015 A 
ATOM     19  C   UNL     1       0.085  -6.799  -2.315  0.00  0.00    +0.020 A 
BRANCH  19  20
ATOM     20  S   UNL     1       0.101  -7.256  -0.613  0.00  0.00    -0.128 S 
ATOM     21  C   UNL     1       0.126  -9.070  -0.646  0.00  0.00    +0.090 C 
ENDBRANCH  19  20
ENDBRANCH   2  14
TORSDOF 4
