REMARK  Name = ZINC20701092
REMARK  4 active torsions:
REMARK  status: ('A' for Active; 'I' for Inactive)
REMARK    1  A    between atoms: C_1  and  C_2
REMARK    2  A    between atoms: C_4  and  C_27
REMARK    3  A    between atoms: C_15  and  C_18
REMARK    4  A    between atoms: C_23  and  O_24
REMARK                            x       y       z     vdW  Elec       q    Type
REMARK                         _______ _______ _______ _____ _____    ______ ____
ROOT
ATOM      1  C   UNL     1      -1.847   9.321   0.978  0.00  0.00    +0.044 C 
ATOM      2  C   UNL     1      -1.379   7.939   0.603  0.00  0.00    -0.050 A 
ATOM      3  C   UNL     1      -2.137   7.154  -0.246  0.00  0.00    +0.008 A 
ATOM      4  C   UNL     1      -1.714   5.888  -0.583  0.00  0.00    -0.029 A 
ATOM      5  C   UNL     1      -0.517   5.375  -0.077  0.00  0.00    +0.034 A 
ATOM      6  C   UNL     1       0.246   6.184   0.768  0.00  0.00    -0.019 A 
ATOM      7  C   UNL     1      -0.189   7.448   1.107  0.00  0.00    +0.009 A 
ATOM      8  C   UNL     1       1.534   5.647   1.260  0.00  0.00    +0.049 C 
ATOM      9  C   UNL     1       2.125   6.050   2.559  0.00  0.00    -0.023 C 
ATOM     10  C   UNL     1       2.803   5.020   3.053  0.00  0.00    -0.030 C 
ATOM     11  C   UNL     1       2.679   3.816   2.115  0.00  0.00    +0.033 C 
ATOM     12  C   UNL     1       1.343   4.106   1.422  0.00  0.00    +0.029 C 
ATOM     13  C   UNL     1       1.148   3.595   0.010  0.00  0.00    +0.109 C 
ATOM     14  N   UNL     1      -0.164   4.080  -0.449  0.00  0.00    -0.336 N 
ATOM     15  C   UNL     1      -2.552   5.045  -1.509  0.00  0.00    +0.045 C 
ATOM     16  H   UNL     1      -0.810   3.427  -1.053  0.00  0.00    +0.147 HD
ENDROOT
BRANCH  13  17
ATOM     17  C   UNL     1       1.170   2.088   0.002  0.00  0.00    +0.017 A 
ATOM     18  C   UNL     1      -0.017   1.379   0.010  0.00  0.00    +0.029 A 
ATOM     19  C   UNL     1       0.002  -0.004   0.002  0.00  0.00    +0.043 A 
ATOM     20  C   UNL     1       1.209  -0.682  -0.013  0.00  0.00    +0.043 A 
ATOM     21  C   UNL     1       2.398   0.023  -0.021  0.00  0.00    +0.084 A 
ATOM     22  C   UNL     1       2.380   1.411  -0.013  0.00  0.00    +0.140 A 
ATOM     23 CL   UNL     1       3.911  -0.827  -0.039  0.00  0.00    -0.080 Cl
ATOM     24 CL   UNL     1      -1.490  -0.891   0.011  0.00  0.00    -0.083 Cl
BRANCH  22  25
ATOM     25  O   UNL     1       3.548   2.107  -0.020  0.00  0.00    -0.505 OA
ATOM     26  H   UNL     1       4.508   1.570  -0.032  0.00  0.00    +0.292 HD
ENDBRANCH  22  25
ENDBRANCH  13  17
TORSDOF 2
