REMARK  Name = ZINC12658542
REMARK  13 active torsions:
REMARK  status: ('A' for Active; 'I' for Inactive)
REMARK    1  A    between atoms: C_1  and  C_2
REMARK    2  A    between atoms: C_2  and  C_4
REMARK    3  A    between atoms: C_10  and  C_45
REMARK    4  A    between atoms: N_22  and  O_23
REMARK    5  A    between atoms: O_23  and  C_24
REMARK    6  A    between atoms: C_24  and  C_25
REMARK    7  A    between atoms: N_27  and  C_28
REMARK    8  A    between atoms: C_28  and  C_30
REMARK    9  A    between atoms: C_28  and  C_37
REMARK   10  A    between atoms: C_30  and  C_31
REMARK   11  A    between atoms: C_37  and  O_39
REMARK   12  A    between atoms: O_39  and  C_40
REMARK   13  A    between atoms: C_43  and  C_44
REMARK                            x       y       z     vdW  Elec       q    Type
REMARK                         _______ _______ _______ _____ _____    ______ ____
ROOT
ATOM      1  C   UNL     1      -0.860   3.043   1.499  0.00  0.00    +0.061 C 
ATOM      2  C   UNL     1      -2.131   3.564   0.784  0.00  0.00    +0.012 C 
ATOM      3  C   UNL     1      -3.020   4.206   1.883  0.00  0.00    +0.005 C 
ATOM      4  C   UNL     1      -2.008   4.569   2.975  0.00  0.00    -0.001 C 
ATOM      5  C   UNL     1      -1.090   3.317   2.982  0.00  0.00    -0.019 C 
ATOM      6  C   UNL     1       0.135   3.666   3.804  0.00  0.00    +0.008 C 
ATOM      7  C   UNL     1      -0.339   3.897   5.248  0.00  0.00    +0.005 C 
ATOM      8  C   UNL     1      -1.400   4.991   5.326  0.00  0.00    +0.002 C 
ATOM      9  C   UNL     1      -2.575   4.715   4.376  0.00  0.00    -0.003 C 
ATOM     10  C   UNL     1      -3.542   5.902   4.422  0.00  0.00    +0.008 C 
ATOM     11  C   UNL     1      -4.160   5.991   5.819  0.00  0.00    +0.031 C 
ATOM     12  C   UNL     1      -3.043   6.071   6.843  0.00  0.00    -0.062 C 
ATOM     13  C   UNL     1      -3.128   7.011   7.778  0.00  0.00    +0.026 C 
ATOM     14  C   UNL     1      -2.093   7.110   8.822  0.00  0.00    +0.080 C 
ATOM     15  N   UNL     1      -1.909   8.200   9.497  0.00  0.00    -0.089 NA
ATOM     16  C   UNL     1      -1.254   5.871   9.063  0.00  0.00    +0.059 C 
ATOM     17  C   UNL     1      -0.765   5.379   7.702  0.00  0.00    +0.017 C 
ATOM     18  C   UNL     1      -1.923   5.080   6.765  0.00  0.00    -0.007 C 
ATOM     19  C   UNL     1      -2.495   3.713   7.144  0.00  0.00    +0.016 C 
ATOM     20  C   UNL     1      -1.827   2.137   3.618  0.00  0.00    +0.012 C 
ENDROOT
BRANCH   1  22
ATOM     21  C   UNL     1       0.675   0.940   1.318  0.00  0.00    +0.086 C 
ATOM     22  C   UNL     1      -0.695   1.564   1.261  0.00  0.00    +0.134 C 
ATOM     23  O   UNL     1      -1.661   0.880   1.024  0.00  0.00    -0.297 OA
ENDBRANCH   1  22
BRANCH  15  24
ATOM     24  O   UNL     1      -2.714   9.337   9.241  0.00  0.00    -0.384 OA
BRANCH  24  25
ATOM     25  C   UNL     1      -2.401  10.467  10.058  0.00  0.00    +0.358 C 
BRANCH  25  26
ATOM     26  C   UNL     1      -3.314  11.612   9.703  0.00  0.00    +0.254 C 
ATOM     27  O   UNL     1      -4.149  11.474   8.835  0.00  0.00    -0.272 OA
ATOM     28  N   UNL     1      -3.201  12.789  10.349  0.00  0.00    -0.299 N 
ATOM     29  H   UNL     1      -2.533  12.899  11.043  0.00  0.00    +0.150 HD
BRANCH  28  30
ATOM     30  C   UNL     1      -4.088  13.902  10.003  0.00  0.00    +0.188 C 
BRANCH  30  31
ATOM     31  C   UNL     1      -5.381  13.771  10.767  0.00  0.00    +0.328 C 
ATOM     32  O   UNL     1      -5.544  12.843  11.523  0.00  0.00    -0.249 OA
BRANCH  31  33
ATOM     33  O   UNL     1      -6.350  14.685  10.608  0.00  0.00    -0.467 OA
ATOM     34  C   UNL     1      -7.568  14.495  11.376  0.00  0.00    +0.280 C 
ENDBRANCH  31  33
ENDBRANCH  30  31
BRANCH  30  35
ATOM     35  C   UNL     1      -3.412  15.226  10.368  0.00  0.00    +0.090 C 
BRANCH  35  36
ATOM     36  C   UNL     1      -2.185  15.414   9.514  0.00  0.00    +0.061 A 
ATOM     37  C   UNL     1      -1.919  16.480   8.735  0.00  0.00    +0.107 A 
ATOM     38  N   UNL     1      -0.709  16.243   8.140  0.00  0.00    -0.351 N 
ATOM     39  H   UNL     1      -0.233  16.848   7.501  0.00  0.00    +0.166 HD
ATOM     40  C   UNL     1      -0.277  15.041   8.577  0.00  0.00    +0.196 A 
ATOM     41  N   UNL     1      -1.162  14.553   9.403  0.00  0.00    -0.241 NA
ENDBRANCH  35  36
ENDBRANCH  30  35
ENDBRANCH  28  30
ENDBRANCH  25  26
ENDBRANCH  24  25
ENDBRANCH  15  24
TORSDOF 9
