REMARK  Name = ZINC63730227
REMARK  9 active torsions:
REMARK  status: ('A' for Active; 'I' for Inactive)
REMARK    1  A    between atoms: C_1  and  C_2
REMARK    2  A    between atoms: C_5  and  C_13
REMARK    3  A    between atoms: C_11  and  C_12
REMARK    4  A    between atoms: C_17  and  S_25
REMARK    5  A    between atoms: N_18  and  C_19
REMARK    6  A    between atoms: S_25  and  C_26
REMARK    7  A    between atoms: C_26  and  C_27
REMARK    8  A    between atoms: N_29  and  C_30
REMARK    9  A    between atoms: C_34  and  N_36
REMARK                            x       y       z     vdW  Elec       q    Type
REMARK                         _______ _______ _______ _____ _____    ______ ____
ROOT
ATOM      1  C   UNL     1      -4.683  -1.553  -1.264  0.00  0.00    +0.213 C 
ATOM      2  N   UNL     1      -5.407  -2.710  -0.709  0.00  0.00    -0.242 N 
ATOM      3  N   UNL     1      -6.044  -3.328  -1.792  0.00  0.00    -0.162 NA
ATOM      4  C   UNL     1      -5.803  -2.708  -2.898  0.00  0.00    +0.180 C 
ATOM      5  N   UNL     1      -4.982  -1.603  -2.705  0.00  0.00    -0.254 N 
ATOM      6  H   UNL     1      -5.437  -2.988   0.220  0.00  0.00    +0.170 HD
ENDROOT
BRANCH   1  11
ATOM      7  C   UNL     1      -0.071   1.320  -0.156  0.00  0.00    +0.046 C 
ATOM      8  C   UNL     1      -0.059  -0.187  -0.170  0.00  0.00    -0.024 C 
ATOM      9  C   UNL     1      -1.147  -0.967  -0.170  0.00  0.00    -0.014 C 
ATOM     10  C   UNL     1      -2.521  -0.715  -0.355  0.00  0.00    +0.013 C 
ATOM     11  C   UNL     1      -3.201  -1.694  -1.026  0.00  0.00    -0.008 C 
ATOM     12  C   UNL     1      -2.493  -2.874  -1.512  0.00  0.00    +0.005 C 
ATOM     13  C   UNL     1      -1.277  -3.221  -1.074  0.00  0.00    +0.004 C 
ATOM     14  C   UNL     1      -0.627  -2.389  -0.007  0.00  0.00    +0.159 C 
ATOM     15  N   UNL     1       0.818  -2.262  -0.129  0.00  0.00    -0.276 NA
ATOM     16  C   UNL     1       1.102  -0.992  -0.191  0.00  0.00    +0.037 C 
ATOM     17  C   UNL     1       2.504  -0.445  -0.271  0.00  0.00    +0.065 C 
ENDBRANCH   1  11
BRANCH   5  18
ATOM     18  C   UNL     1      -4.528  -0.714  -3.683  0.00  0.00    +0.038 A 
ATOM     19  C   UNL     1      -4.925   0.617  -3.653  0.00  0.00    +0.023 A 
ATOM     20  C   UNL     1      -4.474   1.492  -4.621  0.00  0.00    +0.002 A 
ATOM     21  C   UNL     1      -3.629   1.046  -5.620  0.00  0.00    +0.000 A 
ATOM     22  C   UNL     1      -3.232  -0.279  -5.654  0.00  0.00    +0.002 A 
ATOM     23  C   UNL     1      -3.674  -1.158  -4.685  0.00  0.00    +0.023 A 
ENDBRANCH   5  18
BRANCH   4  24
ATOM     24  S   UNL     1      -6.440  -3.202  -4.465  0.00  0.00    -0.079 S 
BRANCH  24  25
ATOM     25  C   UNL     1      -7.426  -4.678  -4.092  0.00  0.00    +0.173 C 
BRANCH  25  26
ATOM     26  C   UNL     1      -8.036  -5.209  -5.364  0.00  0.00    +0.227 C 
ATOM     27  O   UNL     1      -7.826  -4.647  -6.418  0.00  0.00    -0.275 OA
ATOM     28  N   UNL     1      -8.815  -6.309  -5.330  0.00  0.00    -0.285 N 
ATOM     29  H   UNL     1      -9.047  -6.713  -4.479  0.00  0.00    +0.155 HD
BRANCH  28  30
ATOM     30  C   UNL     1      -9.290  -6.867  -6.522  0.00  0.00    +0.036 A 
ATOM     31  C   UNL     1     -10.552  -7.445  -6.566  0.00  0.00    +0.023 A 
ATOM     32  C   UNL     1     -11.017  -7.995  -7.743  0.00  0.00    +0.004 A 
ATOM     33  C   UNL     1     -10.228  -7.971  -8.879  0.00  0.00    +0.033 A 
ATOM     34  C   UNL     1      -8.972  -7.396  -8.839  0.00  0.00    +0.128 A 
ATOM     35  C   UNL     1      -8.503  -6.838  -7.665  0.00  0.00    +0.056 A 
BRANCH  34  36
ATOM     36  N   UNL     1      -8.130  -7.372 -10.056  0.00  0.00    +0.056 N 
ATOM     37  O   UNL     1      -8.542  -7.856 -11.085  0.00  0.00    -0.126 OA
ATOM     38  O   UNL     1      -7.031  -6.870 -10.022  0.00  0.00    -0.126 OA
ENDBRANCH  34  36
ENDBRANCH  28  30
ENDBRANCH  25  26
ENDBRANCH  24  25
ENDBRANCH   4  24
TORSDOF 7
