REMARK  Name = ZINC43114742
REMARK  6 active torsions:
REMARK  status: ('A' for Active; 'I' for Inactive)
REMARK    1  A    between atoms: C_3  and  C_6
REMARK    2  A    between atoms: C_6  and  C_8
REMARK    3  A    between atoms: C_6  and  S_10
REMARK    4  A    between atoms: C_8  and  N_9
REMARK    5  A    between atoms: S_10  and  C_11
REMARK    6  A    between atoms: C_16  and  N_18
REMARK                            x       y       z     vdW  Elec       q    Type
REMARK                         _______ _______ _______ _____ _____    ______ ____
ROOT
ATOM      1  C   UNL     1       3.463   1.989   0.085  0.00  0.00    +0.073 C 
ENDROOT
BRANCH   1   4
ATOM      2  C   UNL     1      -0.298   1.777  -0.482  0.00  0.00    +0.008 A 
ATOM      3  C   UNL     1       0.922   2.364  -0.205  0.00  0.00    +0.012 A 
ATOM      4  C   UNL     1       2.035   1.591  -0.186  0.00  0.00    +0.001 A 
ATOM      5  S   UNL     1       1.371  -0.022  -0.567  0.00  0.00    -0.101 S 
ATOM      6  C   UNL     1      -0.346   0.444  -0.726  0.00  0.00    +0.045 A 
ENDBRANCH   1   4
BRANCH   1   7
ATOM      7  C   UNL     1       3.983   1.222   1.303  0.00  0.00    -0.066 C 
BRANCH   7   8
ATOM      8  N   UNL     1       5.332   1.697   1.641  0.00  0.00    +0.379 N 
ATOM      9  H   UNL     1       5.316   2.699   1.758  0.00  0.00    -0.090 HD
ATOM     10  H   UNL     1       5.636   1.263   2.499  0.00  0.00    -0.090 HD
ATOM     11  H   UNL     1       5.970   1.456   0.897  0.00  0.00    -0.090 HD
ENDBRANCH   7   8
ENDBRANCH   1   7
BRANCH   1  12
ATOM     12  S   UNL     1       4.486   1.594  -1.360  0.00  0.00    -0.079 S 
BRANCH  12  13
ATOM     13  C   UNL     1       3.908   2.697  -2.606  0.00  0.00    +0.194 A 
ATOM     14  N   UNL     1       3.006   3.615  -2.288  0.00  0.00    -0.183 NA
ATOM     15  C   UNL     1       2.547   4.465  -3.201  0.00  0.00    +0.276 A 
ATOM     16  O   UNL     1       1.626   5.401  -2.866  0.00  0.00    -0.266 OA
ATOM     17  C   UNL     1       3.025   4.382  -4.503  0.00  0.00    +0.115 A 
ATOM     18  C   UNL     1       3.971   3.405  -4.802  0.00  0.00    +0.124 A 
ATOM     19  N   UNL     1       4.389   2.592  -3.836  0.00  0.00    -0.207 NA
BRANCH  18  20
ATOM     20  N   UNL     1       4.475   3.286  -6.088  0.00  0.00    -0.343 N 
ATOM     21  H   UNL     1       4.168   3.885  -6.787  0.00  0.00    +0.144 HD
ATOM     22  H   UNL     1       5.134   2.603  -6.289  0.00  0.00    +0.144 HD
ENDBRANCH  18  20
ENDBRANCH  12  13
ENDBRANCH   1  12
TORSDOF 6
