REMARK  Name = ZINC59804821
REMARK  8 active torsions:
REMARK  status: ('A' for Active; 'I' for Inactive)
REMARK    1  A    between atoms: C_1  and  C_2
REMARK    2  A    between atoms: C_2  and  N_3
REMARK    3  A    between atoms: C_4  and  C_6
REMARK    4  A    between atoms: C_11  and  N_12
REMARK    5  A    between atoms: N_12  and  C_13
REMARK    6  A    between atoms: C_13  and  C_14
REMARK    7  A    between atoms: N_16  and  C_17
REMARK    8  A    between atoms: C_19  and  C_24
REMARK                            x       y       z     vdW  Elec       q    Type
REMARK                         _______ _______ _______ _____ _____    ______ ____
ROOT
ATOM      1  C   UNL     1       0.966  -6.006   2.360  0.00  0.00    +0.198 C 
ENDROOT
BRANCH   1   2
ATOM      2  C   UNL     1       0.265  -6.773   1.269  0.00  0.00    +0.234 C 
ATOM      3  O   UNL     1      -0.173  -6.188   0.301  0.00  0.00    -0.274 OA
ATOM      4  N   UNL     1       0.125  -8.110   1.368  0.00  0.00    -0.283 N 
ATOM      5  H   UNL     1       0.419  -8.570   2.169  0.00  0.00    +0.155 HD
BRANCH   4   6
ATOM      6  C   UNL     1      -0.446  -8.834   0.314  0.00  0.00    +0.052 A 
ATOM      7  C   UNL     1      -1.461  -8.271  -0.448  0.00  0.00    +0.037 A 
ATOM      8  C   UNL     1      -2.021  -8.987  -1.487  0.00  0.00    +0.057 A 
ATOM      9  C   UNL     1      -1.573 -10.265  -1.770  0.00  0.00    +0.014 A 
ATOM     10  C   UNL     1      -0.563 -10.829  -1.013  0.00  0.00    +0.022 A 
ATOM     11  C   UNL     1       0.006 -10.115   0.025  0.00  0.00    +0.062 A 
ATOM     12 CL   UNL     1       1.280 -10.822   0.969  0.00  0.00    -0.082 Cl
BRANCH   8  13
ATOM     13  C   UNL     1      -3.123  -8.376  -2.314  0.00  0.00    +0.417 C 
ATOM     14  F   UNL     1      -2.566  -7.689  -3.398  0.00  0.00    -0.166 F 
ATOM     15  F   UNL     1      -3.966  -9.387  -2.787  0.00  0.00    -0.166 F 
ATOM     16  F   UNL     1      -3.859  -7.485  -1.526  0.00  0.00    -0.166 F 
ENDBRANCH   8  13
ENDBRANCH   4   6
ENDBRANCH   1   2
BRANCH   1  17
ATOM     17  N   UNL     1       0.988  -4.582   2.019  0.00  0.00    -0.335 N 
ATOM     18  H   UNL     1       0.586  -4.275   1.192  0.00  0.00    +0.147 HD
BRANCH  17  24
ATOM     19  C   UNL     1       1.512  -2.294   2.613  0.00  0.00    +0.058 A 
ATOM     20  C   UNL     1       2.113  -1.387   3.491  0.00  0.00    +0.016 A 
ATOM     21  C   UNL     1       2.777  -1.847   4.606  0.00  0.00    +0.021 A 
ATOM     22  C   UNL     1       2.853  -3.208   4.865  0.00  0.00    +0.043 A 
ATOM     23  C   UNL     1       2.264  -4.117   4.007  0.00  0.00    +0.043 A 
ATOM     24  C   UNL     1       1.586  -3.671   2.880  0.00  0.00    +0.041 A 
ATOM     25 CL   UNL     1       3.694  -3.773   6.275  0.00  0.00    -0.083 Cl
BRANCH  19  27
ATOM     26  N   UNL     1       0.628  -0.485   1.228  0.00  0.00    -0.312 N 
ATOM     27  C   UNL     1       0.800  -1.808   1.418  0.00  0.00    +0.246 C 
ATOM     28  O   UNL     1       0.367  -2.601   0.604  0.00  0.00    -0.270 OA
ATOM     29  H   UNL     1       0.974   0.147   1.877  0.00  0.00    +0.149 HD
BRANCH  26  31
ATOM     30  C   UNL     1      -0.136   1.527   0.066  0.00  0.00    +0.024 C 
ATOM     31  C   UNL     1      -0.080  -0.002   0.040  0.00  0.00    +0.101 C 
ENDBRANCH  26  31
ENDBRANCH  19  27
ENDBRANCH  17  24
ENDBRANCH   1  17
TORSDOF 7
