REMARK  Name = ZINC11452703
REMARK  15 active torsions:
REMARK  status: ('A' for Active; 'I' for Inactive)
REMARK    1  A    between atoms: C_1  and  C_2
REMARK    2  A    between atoms: C_2  and  C_3
REMARK    3  A    between atoms: C_2  and  C_4
REMARK    4  A    between atoms: C_4  and  N_5
REMARK    5  A    between atoms: C_6  and  N_34
REMARK    6  A    between atoms: C_7  and  C_14
REMARK    7  A    between atoms: C_14  and  C_16
REMARK    8  A    between atoms: C_16  and  S_17
REMARK    9  A    between atoms: S_17  and  C_18
REMARK   10  A    between atoms: C_21  and  C_24
REMARK   11  A    between atoms: N_22  and  C_23
REMARK   12  A    between atoms: C_27  and  C_30
REMARK   13  A    between atoms: C_30  and  C_31
REMARK   14  A    between atoms: C_30  and  C_32
REMARK   15  A    between atoms: C_30  and  C_33
REMARK                            x       y       z     vdW  Elec       q    Type
REMARK                         _______ _______ _______ _____ _____    ______ ____
ROOT
ATOM      1  C   UNL     1      -0.167  -2.881  -2.313  0.00  0.00    +0.182 C 
ATOM      2  O   UNL     1      -0.455  -2.295  -3.337  0.00  0.00    -0.291 OA
ENDROOT
BRANCH   1   5
ATOM      3  N   UNL     1      -0.018  -0.119   0.123  0.00  0.00    -0.281 N 
ATOM      4  C   UNL     1      -0.142  -0.765  -1.073  0.00  0.00    +0.116 A 
ATOM      5  C   UNL     1      -0.050  -2.167  -1.101  0.00  0.00    +0.120 A 
ATOM      6  C   UNL     1       0.166  -2.866   0.172  0.00  0.00    +0.266 A 
ATOM      7  O   UNL     1       0.250  -4.080   0.208  0.00  0.00    -0.267 OA
ATOM      8  N   UNL     1       0.270  -2.135   1.301  0.00  0.00    -0.274 N 
ATOM      9  H   UNL     1       0.417  -2.597   2.176  0.00  0.00    +0.173 HD
ATOM     10  C   UNL     1       0.178  -0.796   1.265  0.00  0.00    +0.331 A 
ATOM     11  O   UNL     1       0.277  -0.175   2.305  0.00  0.00    -0.246 OA
BRANCH   4  12
ATOM     12  N   UNL     1      -0.347  -0.062  -2.221  0.00  0.00    -0.344 N 
ATOM     13  H   UNL     1      -0.080  -0.439  -3.074  0.00  0.00    +0.144 HD
ATOM     14  H   UNL     1      -0.759   0.815  -2.185  0.00  0.00    +0.144 HD
ENDBRANCH   4  12
BRANCH   3  15
ATOM     15  C   UNL     1      -0.108   1.343   0.162  0.00  0.00    +0.131 C 
BRANCH  15  17
ATOM     16  C   UNL     1       1.814   1.609  -1.411  0.00  0.00    +0.009 C 
ATOM     17  C   UNL     1       1.287   1.945  -0.015  0.00  0.00    +0.003 C 
ATOM     18  C   UNL     1       1.212   3.464   0.150  0.00  0.00    +0.009 C 
ENDBRANCH  15  17
ENDBRANCH   3  15
ENDBRANCH   1   5
BRANCH   1  19
ATOM     19  C   UNL     1       0.067  -4.369  -2.337  0.00  0.00    +0.157 C 
BRANCH  19  20
ATOM     20  S   UNL     1      -0.154  -4.988  -4.023  0.00  0.00    -0.078 S 
BRANCH  20  21
ATOM     21  C   UNL     1       0.169  -6.701  -3.765  0.00  0.00    +0.192 A 
ATOM     22  N   UNL     1       0.484  -7.272  -2.624  0.00  0.00    -0.122 NA
ATOM     23  N   UNL     1       0.648  -8.535  -2.793  0.00  0.00    -0.128 NA
ATOM     24  C   UNL     1       0.458  -8.847  -4.054  0.00  0.00    +0.165 A 
ATOM     25  N   UNL     1       0.145  -7.682  -4.715  0.00  0.00    -0.305 N 
ATOM     26  C   UNL     1      -0.152  -7.526  -6.141  0.00  0.00    +0.153 C 
BRANCH  24  27
ATOM     27  C   UNL     1       0.561 -10.196  -4.651  0.00  0.00    +0.019 A 
ATOM     28  C   UNL     1       0.518 -11.328  -3.836  0.00  0.00    +0.012 A 
ATOM     29  C   UNL     1       0.609 -12.584  -4.400  0.00  0.00    +0.005 A 
ATOM     30  C   UNL     1       0.754 -12.722  -5.769  0.00  0.00    -0.042 A 
ATOM     31  C   UNL     1       0.803 -11.604  -6.582  0.00  0.00    +0.005 A 
ATOM     32  C   UNL     1       0.707 -10.342  -6.031  0.00  0.00    +0.012 A 
BRANCH  30  33
ATOM     33  C   UNL     1       0.860 -14.097  -6.377  0.00  0.00    -0.013 C 
ATOM     34  C   UNL     1       2.196 -14.229  -7.111  0.00  0.00    +0.015 C 
ATOM     35  C   UNL     1       0.779 -15.151  -5.271  0.00  0.00    +0.015 C 
ATOM     36  C   UNL     1      -0.288 -14.306  -7.366  0.00  0.00    +0.015 C 
ENDBRANCH  30  33
ENDBRANCH  24  27
ENDBRANCH  20  21
ENDBRANCH  19  20
ENDBRANCH   1  19
TORSDOF 9
