REMARK  Name = ZINC35378826
REMARK  7 active torsions:
REMARK  status: ('A' for Active; 'I' for Inactive)
REMARK    1  A    between atoms: C_1  and  C_2
REMARK    2  A    between atoms: C_5  and  N_9
REMARK    3  A    between atoms: C_6  and  C_8
REMARK    4  A    between atoms: C_10  and  C_12
REMARK    5  A    between atoms: N_17  and  S_19
REMARK    6  A    between atoms: S_19  and  C_22
REMARK    7  A    between atoms: C_27  and  C_28
REMARK                            x       y       z     vdW  Elec       q    Type
REMARK                         _______ _______ _______ _____ _____    ______ ____
ROOT
ATOM      1  C   UNL     1      -0.085  -6.437  -1.023  0.00  0.00    +0.091 C 
ATOM      2  C   UNL     1       1.166  -7.069  -0.407  0.00  0.00    +0.015 C 
ATOM      3  C   UNL     1       1.047  -8.594  -0.458  0.00  0.00    +0.018 C 
ATOM      4  C   UNL     1       0.946  -9.045  -1.919  0.00  0.00    +0.109 C 
ATOM      5  N   UNL     1      -0.167  -8.331  -2.559  0.00  0.00    -0.176 NA
ATOM      6  C   UNL     1      -0.199  -6.864  -2.490  0.00  0.00    +0.122 C 
ENDROOT
BRANCH   1   8
ATOM      7  N   UNL     1       0.131  -4.331   0.256  0.00  0.00    -0.285 N 
ATOM      8  C   UNL     1       0.019  -4.936  -0.943  0.00  0.00    +0.222 C 
ATOM      9  O   UNL     1       0.002  -4.271  -1.958  0.00  0.00    -0.275 OA
ATOM     10  H   UNL     1       0.207  -4.864   1.063  0.00  0.00    +0.155 HD
BRANCH   7  15
ATOM     11  C   UNL     1       0.154   1.333   0.585  0.00  0.00    +0.044 C 
ATOM     12  C   UNL     1       0.148  -0.172   0.498  0.00  0.00    -0.050 A 
ATOM     13  C   UNL     1       0.717  -0.802  -0.594  0.00  0.00    +0.005 A 
ATOM     14  C   UNL     1       0.713  -2.180  -0.677  0.00  0.00    +0.024 A 
ATOM     15  C   UNL     1       0.137  -2.934   0.338  0.00  0.00    +0.036 A 
ATOM     16  C   UNL     1      -0.433  -2.298   1.432  0.00  0.00    -0.029 A 
ATOM     17  C   UNL     1      -0.422  -0.919   1.512  0.00  0.00    +0.008 A 
ATOM     18  C   UNL     1      -1.060  -3.112   2.535  0.00  0.00    +0.045 C 
ENDBRANCH   7  15
ENDBRANCH   1   8
BRANCH   5  19
ATOM     19  S   UNL     1      -1.363  -9.165  -3.344  0.00  0.00    +0.061 S 
ATOM     20  O   UNL     1      -1.832  -8.318  -4.385  0.00  0.00    -0.153 OA
ATOM     21  O   UNL     1      -0.855 -10.468  -3.592  0.00  0.00    -0.153 OA
BRANCH  19  22
ATOM     22  C   UNL     1      -2.698  -9.353  -2.208  0.00  0.00    +0.112 A 
ATOM     23  C   UNL     1      -3.889  -8.684  -2.428  0.00  0.00    +0.076 A 
ATOM     24  C   UNL     1      -4.937  -8.832  -1.537  0.00  0.00    +0.144 A 
ATOM     25  C   UNL     1      -4.789  -9.654  -0.421  0.00  0.00    +0.076 A 
ATOM     26  C   UNL     1      -3.595 -10.322  -0.207  0.00  0.00    +0.032 A 
ATOM     27  C   UNL     1      -2.553 -10.172  -1.105  0.00  0.00    -0.022 A 
ATOM     28  C   UNL     1      -1.254 -10.902  -0.877  0.00  0.00    +0.046 C 
ATOM     29  N   UNL     1      -5.858  -9.794   0.475  0.00  0.00    -0.280 N 
ATOM     30  C   UNL     1      -7.091  -9.398   0.089  0.00  0.00    +0.255 C 
ATOM     31  O   UNL     1      -8.025  -9.480   0.858  0.00  0.00    -0.272 OA
ATOM     32  C   UNL     1      -7.300  -8.852  -1.300  0.00  0.00    +0.325 C 
ATOM     33  O   UNL     1      -6.115  -8.183  -1.738  0.00  0.00    -0.481 OA
ATOM     34  H   UNL     1      -5.715 -10.169   1.357  0.00  0.00    +0.155 HD
ENDBRANCH  19  22
ENDBRANCH   5  19
TORSDOF 4
