REMARK  Name = ZINC15018899
REMARK  5 active torsions:
REMARK  status: ('A' for Active; 'I' for Inactive)
REMARK    1  A    between atoms: C_4  and  N_7
REMARK    2  A    between atoms: C_8  and  C_22
REMARK    3  A    between atoms: C_11  and  S_12
REMARK    4  A    between atoms: S_12  and  C_13
REMARK    5  A    between atoms: C_13  and  C_14
REMARK                            x       y       z     vdW  Elec       q    Type
REMARK                         _______ _______ _______ _____ _____    ______ ____
ROOT
ATOM      1  N   UNL     1       1.237  -2.082  -0.020  0.00  0.00    -0.268 N 
ATOM      2  C   UNL     1       1.705  -2.904  -1.025  0.00  0.00    +0.205 A 
ATOM      3  N   UNL     1       1.536  -4.143  -0.618  0.00  0.00    -0.125 NA
ATOM      4  N   UNL     1       1.004  -4.152   0.552  0.00  0.00    -0.122 NA
ATOM      5  C   UNL     1       0.804  -2.921   0.970  0.00  0.00    +0.197 A 
ENDROOT
BRANCH   2   6
ATOM      6  C   UNL     1       2.282  -2.475  -2.308  0.00  0.00    +0.174 A 
ATOM      7  C   UNL     1       2.996  -3.269  -3.147  0.00  0.00    +0.061 A 
ATOM      8  C   UNL     1       3.362  -2.428  -4.288  0.00  0.00    +0.021 A 
ATOM      9  C   UNL     1       4.079  -2.645  -5.466  0.00  0.00    +0.011 A 
ATOM     10  C   UNL     1       4.252  -1.618  -6.352  0.00  0.00    +0.001 A 
ATOM     11  C   UNL     1       3.721  -0.364  -6.087  0.00  0.00    +0.004 A 
ATOM     12  C   UNL     1       3.010  -0.131  -4.928  0.00  0.00    +0.047 A 
ATOM     13  C   UNL     1       2.821  -1.159  -4.014  0.00  0.00    +0.136 A 
ATOM     14  O   UNL     1       2.188  -1.234  -2.826  0.00  0.00    -0.452 OA
ENDBRANCH   2   6
BRANCH   1  18
ATOM     15  C   UNL     1       1.171   2.086   0.002  0.00  0.00    +0.000 A 
ATOM     16  C   UNL     1      -0.017   1.377   0.010  0.00  0.00    +0.002 A 
ATOM     17  C   UNL     1       0.002  -0.004   0.002  0.00  0.00    +0.026 A 
ATOM     18  C   UNL     1       1.214  -0.680  -0.013  0.00  0.00    +0.051 A 
ATOM     19  C   UNL     1       2.405   0.034  -0.021  0.00  0.00    +0.026 A 
ATOM     20  C   UNL     1       2.380   1.415  -0.013  0.00  0.00    +0.002 A 
ENDBRANCH   1  18
BRANCH   5  21
ATOM     21  S   UNL     1       0.106  -2.442   2.515  0.00  0.00    -0.076 S 
BRANCH  21  22
ATOM     22  C   UNL     1      -0.197  -4.072   3.241  0.00  0.00    +0.173 C 
BRANCH  22  23
ATOM     23  C   UNL     1      -0.811  -3.907   4.607  0.00  0.00    +0.229 C 
ATOM     24  O   UNL     1      -1.023  -2.796   5.047  0.00  0.00    -0.275 OA
ATOM     25  N   UNL     1      -1.125  -4.993   5.341  0.00  0.00    -0.264 N 
ATOM     26  C   UNL     1      -1.692  -4.840   6.601  0.00  0.00    +0.164 A 
ATOM     27  N   UNL     1      -1.989  -3.730   7.247  0.00  0.00    -0.233 NA
ATOM     28  C   UNL     1      -2.533  -3.763   8.448  0.00  0.00    +0.120 A 
ATOM     29  C   UNL     1      -2.771  -4.970   9.017  0.00  0.00    +0.068 A 
ATOM     30  S   UNL     1      -2.182  -6.064   7.732  0.00  0.00    -0.061 S 
ATOM     31  H   UNL     1      -0.956  -5.881   4.990  0.00  0.00    +0.157 HD
ENDBRANCH  22  23
ENDBRANCH  21  22
ENDBRANCH   5  21
TORSDOF 5
