REMARK  Name = ZINC65074750
REMARK  7 active torsions:
REMARK  status: ('A' for Active; 'I' for Inactive)
REMARK    1  A    between atoms: C_1  and  C_2
REMARK    2  A    between atoms: C_5  and  C_34
REMARK    3  A    between atoms: C_6  and  S_8
REMARK    4  A    between atoms: S_8  and  N_11
REMARK    5  A    between atoms: N_22  and  C_23
REMARK    6  A    between atoms: C_23  and  C_24
REMARK    7  A    between atoms: C_27  and  C_30
REMARK                            x       y       z     vdW  Elec       q    Type
REMARK                         _______ _______ _______ _____ _____    ______ ____
ROOT
ATOM      1  N   UNL     1      -1.860  -3.928   2.423  0.00  0.00    -0.176 NA
ATOM      2  C   UNL     1      -3.047  -3.222   2.925  0.00  0.00    +0.111 C 
ATOM      3  C   UNL     1      -4.107  -3.192   1.821  0.00  0.00    +0.047 C 
ATOM      4  C   UNL     1      -4.384  -4.620   1.345  0.00  0.00    +0.075 C 
ATOM      5  C   UNL     1      -3.099  -5.221   0.765  0.00  0.00    +0.047 C 
ATOM      6  C   UNL     1      -2.028  -5.272   1.853  0.00  0.00    +0.111 C 
ATOM      7  C   UNL     1      -5.450  -4.600   0.286  0.00  0.00    +0.089 C 
ATOM      8  N   UNL     1      -6.423  -5.429   0.245  0.00  0.00    -0.374 N 
ATOM      9  C   UNL     1      -6.623  -6.493   1.224  0.00  0.00    +0.129 C 
ATOM     10  C   UNL     1      -5.332  -6.734   2.009  0.00  0.00    +0.102 C 
ATOM     11  N   UNL     1      -4.827  -5.434   2.486  0.00  0.00    -0.303 NA
ATOM     12  N   UNL     1      -5.377  -3.639  -0.688  0.00  0.00    -0.329 N 
ATOM     13  H   UNL     1      -4.080  -5.559   3.153  0.00  0.00    +0.123 HD
ATOM     14  H   UNL     1      -4.651  -2.996  -0.681  0.00  0.00    +0.147 HD
ATOM     15  H   UNL     1      -7.063  -5.347  -0.479  0.00  0.00    +0.161 HD
ENDROOT
BRANCH   1  16
ATOM     16  S   UNL     1      -0.365  -3.221   2.493  0.00  0.00    +0.061 S 
ATOM     17  O   UNL     1       0.581  -4.279   2.571  0.00  0.00    -0.153 OA
ATOM     18  O   UNL     1      -0.445  -2.196   3.474  0.00  0.00    -0.153 OA
BRANCH  16  24
ATOM     19  C   UNL     1       2.113  -2.803  -2.091  0.00  0.00    +0.044 C 
ATOM     20  C   UNL     1       1.072  -2.274  -1.138  0.00  0.00    -0.049 A 
ATOM     21  C   UNL     1       0.328  -1.159  -1.477  0.00  0.00    +0.004 A 
ATOM     22  C   UNL     1      -0.627  -0.674  -0.603  0.00  0.00    +0.005 A 
ATOM     23  C   UNL     1      -0.839  -1.304   0.609  0.00  0.00    -0.024 A 
ATOM     24  C   UNL     1      -0.096  -2.419   0.947  0.00  0.00    +0.109 A 
ATOM     25  C   UNL     1       0.857  -2.906   0.072  0.00  0.00    +0.032 A 
ATOM     26  C   UNL     1      -1.879  -0.774   1.562  0.00  0.00    +0.046 C 
ENDBRANCH  16  24
ENDBRANCH   1  16
BRANCH  12  27
ATOM     27  C   UNL     1      -6.396  -3.582  -1.739  0.00  0.00    +0.138 C 
BRANCH  27  28
ATOM     28  C   UNL     1      -6.087  -2.444  -2.677  0.00  0.00    -0.030 A 
ATOM     29  C   UNL     1      -6.598  -1.184  -2.427  0.00  0.00    +0.006 A 
ATOM     30  C   UNL     1      -6.315  -0.140  -3.288  0.00  0.00    +0.013 A 
ATOM     31  C   UNL     1      -5.521  -0.356  -4.398  0.00  0.00    +0.055 A 
ATOM     32  C   UNL     1      -5.008  -1.615  -4.647  0.00  0.00    +0.013 A 
ATOM     33  C   UNL     1      -5.288  -2.658  -3.784  0.00  0.00    +0.006 A 
BRANCH  31  34
ATOM     34  C   UNL     1      -5.213   0.782  -5.337  0.00  0.00    +0.417 C 
ATOM     35  F   UNL     1      -4.046   1.430  -4.917  0.00  0.00    -0.166 F 
ATOM     36  F   UNL     1      -5.029   0.283  -6.631  0.00  0.00    -0.166 F 
ATOM     37  F   UNL     1      -6.277   1.690  -5.333  0.00  0.00    -0.166 F 
ENDBRANCH  31  34
ENDBRANCH  27  28
ENDBRANCH  12  27
TORSDOF 5
