REMARK  Name = ZINC26752567
REMARK  11 active torsions:
REMARK  status: ('A' for Active; 'I' for Inactive)
REMARK    1  A    between atoms: C_1  and  C_2
REMARK    2  A    between atoms: C_7  and  C_9
REMARK    3  A    between atoms: C_7  and  C_10
REMARK    4  A    between atoms: N_13  and  C_17
REMARK    5  A    between atoms: C_17  and  C_18
REMARK    6  A    between atoms: N_20  and  C_21
REMARK    7  A    between atoms: C_21  and  C_23
REMARK    8  A    between atoms: C_21  and  C_27
REMARK    9  A    between atoms: C_23  and  C_24
REMARK   10  A    between atoms: C_24  and  S_25
REMARK   11  A    between atoms: S_25  and  C_26
REMARK                            x       y       z     vdW  Elec       q    Type
REMARK                         _______ _______ _______ _____ _____    ______ ____
ROOT
ATOM      1  C   UNL     1      -1.431  -5.488  -2.763  0.00  0.00    +0.232 C 
ATOM      2  O   UNL     1      -1.057  -5.765  -1.643  0.00  0.00    -0.274 OA
ATOM      3  N   UNL     1      -1.311  -6.390  -3.757  0.00  0.00    -0.304 N 
ATOM      4  H   UNL     1      -1.611  -6.169  -4.652  0.00  0.00    +0.149 HD
ENDROOT
BRANCH   1   5
ATOM      5  C   UNL     1      -2.031  -4.134  -3.043  0.00  0.00    +0.213 C 
BRANCH   5  17
ATOM      6  C   UNL     1      -0.019   1.528   0.010  0.00  0.00    +0.007 C 
ATOM      7  C   UNL     1       0.002  -0.004   0.002  0.00  0.00    -0.011 C 
ATOM      8  C   UNL     1      -1.435  -0.529   0.021  0.00  0.00    +0.038 C 
ATOM      9  C   UNL     1      -1.427  -2.050  -0.036  0.00  0.00    +0.113 C 
ATOM     10  C   UNL     1      -0.575  -2.676   1.049  0.00  0.00    +0.041 C 
ATOM     11  C   UNL     1       0.782  -2.031   1.270  0.00  0.00    -0.032 C 
ATOM     12  C   UNL     1       0.719  -0.508   1.253  0.00  0.00    +0.009 C 
ATOM     13  C   UNL     1       1.296  -2.464   2.661  0.00  0.00    +0.011 C 
ATOM     14  C   UNL     1       1.795  -2.526   0.234  0.00  0.00    +0.011 C 
ATOM     15  C   UNL     1      -1.044  -2.534  -1.413  0.00  0.00    +0.247 C 
ATOM     16  O   UNL     1      -0.058  -2.253  -2.060  0.00  0.00    -0.273 OA
ATOM     17  N   UNL     1      -2.050  -3.344  -1.810  0.00  0.00    -0.215 N 
ATOM     18  C   UNL     1      -3.063  -3.331  -0.937  0.00  0.00    +0.310 C 
ATOM     19  O   UNL     1      -4.088  -3.969  -1.082  0.00  0.00    -0.252 OA
ATOM     20  N   UNL     1      -2.817  -2.537   0.119  0.00  0.00    -0.285 N 
ATOM     21  H   UNL     1      -3.418  -2.318   0.845  0.00  0.00    +0.151 HD
ENDBRANCH   5  17
ENDBRANCH   1   5
BRANCH   3  22
ATOM     22  C   UNL     1      -0.728  -7.706  -3.484  0.00  0.00    +0.140 C 
BRANCH  22  23
ATOM     23  C   UNL     1      -0.146  -8.271  -4.755  0.00  0.00    +0.129 A 
ATOM     24  N   UNL     1      -0.072  -7.607  -5.940  0.00  0.00    -0.340 N 
ATOM     25  H   UNL     1      -0.379  -6.704  -6.113  0.00  0.00    +0.167 HD
ATOM     26  C   UNL     1       0.521  -8.458  -6.851  0.00  0.00    +0.066 A 
ATOM     27  C   UNL     1       0.860  -8.354  -8.193  0.00  0.00    +0.028 A 
ATOM     28  C   UNL     1       1.461  -9.419  -8.830  0.00  0.00    +0.002 A 
ATOM     29  C   UNL     1       1.728 -10.592  -8.139  0.00  0.00    +0.002 A 
ATOM     30  C   UNL     1       1.401 -10.713  -6.818  0.00  0.00    +0.030 A 
ATOM     31  C   UNL     1       0.792  -9.647  -6.151  0.00  0.00    +0.089 A 
ATOM     32  N   UNL     1       0.364  -9.461  -4.876  0.00  0.00    -0.231 NA
ENDBRANCH  22  23
BRANCH  22  33
ATOM     33  C   UNL     1      -1.815  -8.647  -2.959  0.00  0.00    +0.041 C 
BRANCH  33  34
ATOM     34  C   UNL     1      -2.318  -8.140  -1.607  0.00  0.00    +0.071 C 
BRANCH  34  35
ATOM     35  S   UNL     1      -3.607  -9.255  -0.985  0.00  0.00    -0.164 S 
ATOM     36  C   UNL     1      -4.091  -8.523   0.603  0.00  0.00    +0.084 C 
ENDBRANCH  34  35
ENDBRANCH  33  34
ENDBRANCH  22  33
ENDBRANCH   3  22
TORSDOF 7
