REMARK  Name = ZINC00138939
REMARK  4 active torsions:
REMARK  status: ('A' for Active; 'I' for Inactive)
REMARK    1  A    between atoms: C_9  and  O_23
REMARK    2  A    between atoms: C_10  and  C_11
REMARK    3  A    between atoms: N_12  and  C_13
REMARK    4  A    between atoms: C_16  and  O_22
REMARK                            x       y       z     vdW  Elec       q    Type
REMARK                         _______ _______ _______ _____ _____    ______ ____
ROOT
ATOM      1  C   UNL     1       4.977   0.086  -0.046  0.00  0.00    +0.125 C 
ATOM      2  N   UNL     1       6.113  -0.568  -0.061  0.00  0.00    -0.229 NA
ENDROOT
BRANCH   1  12
ATOM      3  C   UNL     1      -0.016   1.358   0.009  0.00  0.00    +0.001 A 
ATOM      4  C   UNL     1       1.167   2.091   0.002  0.00  0.00    +0.001 A 
ATOM      5  C   UNL     1       2.378   1.464  -0.013  0.00  0.00    +0.009 A 
ATOM      6  C   UNL     1       2.434   0.066  -0.021  0.00  0.00    -0.006 A 
ATOM      7  C   UNL     1       1.232  -0.682  -0.013  0.00  0.00    -0.017 A 
ATOM      8  C   UNL     1       0.002  -0.004   0.002  0.00  0.00    +0.008 A 
ATOM      9  C   UNL     1       1.290  -2.088  -0.020  0.00  0.00    +0.012 A 
ATOM     10  C   UNL     1       2.484  -2.737  -0.035  0.00  0.00    +0.046 A 
ATOM     11  C   UNL     1       3.695  -2.046  -0.043  0.00  0.00    +0.126 A 
ATOM     12  C   UNL     1       3.712  -0.647  -0.037  0.00  0.00    +0.042 A 
BRANCH  11  13
ATOM     13  O   UNL     1       4.864  -2.735  -0.056  0.00  0.00    -0.506 OA
ATOM     14  H   UNL     1       5.194  -2.930  -0.943  0.00  0.00    +0.292 HD
ENDBRANCH  11  13
ENDBRANCH   1  12
BRANCH   2  15
ATOM     15  C   UNL     1       7.287   0.112  -0.069  0.00  0.00    +0.194 A 
ATOM     16  N   UNL     1       8.518  -0.361  -0.089  0.00  0.00    -0.217 NA
ATOM     17  C   UNL     1       9.601   0.441  -0.095  0.00  0.00    +0.122 A 
ATOM     18  C   UNL     1      10.970   0.064  -0.115  0.00  0.00    +0.143 A 
ATOM     19  C   UNL     1      11.958   1.019  -0.118  0.00  0.00    +0.047 A 
ATOM     20  C   UNL     1      11.657   2.374  -0.102  0.00  0.00    +0.005 A 
ATOM     21  C   UNL     1      10.334   2.775  -0.082  0.00  0.00    +0.017 A 
ATOM     22  C   UNL     1       9.336   1.830  -0.079  0.00  0.00    +0.045 A 
ATOM     23  S   UNL     1       7.561   1.879  -0.064  0.00  0.00    -0.048 S 
BRANCH  18  24
ATOM     24  O   UNL     1      11.305  -1.253  -0.131  0.00  0.00    -0.505 OA
ATOM     25  H   UNL     1      11.392  -1.626  -1.019  0.00  0.00    +0.292 HD
ENDBRANCH  18  24
ENDBRANCH   2  15
TORSDOF 4
