REMARK  Name = ZINC32500925
REMARK  7 active torsions:
REMARK  status: ('A' for Active; 'I' for Inactive)
REMARK    1  A    between atoms: C_1  and  C_2
REMARK    2  A    between atoms: C_3  and  C_20
REMARK    3  A    between atoms: C_5  and  C_16
REMARK    4  A    between atoms: C_6  and  S_7
REMARK    5  A    between atoms: S_7  and  N_10
REMARK    6  A    between atoms: C_16  and  O_18
REMARK    7  A    between atoms: O_18  and  C_19
REMARK                            x       y       z     vdW  Elec       q    Type
REMARK                         _______ _______ _______ _____ _____    ______ ____
ROOT
ATOM      1  C   UNL     1      -1.241   2.277   0.021  0.00  0.00    +0.049 C 
ATOM      2  C   UNL     1      -0.017   1.399   0.010  0.00  0.00    +0.017 A 
ATOM      3  C   UNL     1       1.269   1.815  -0.000  0.00  0.00    +0.108 A 
ATOM      4  O   UNL     1       2.069   0.741  -0.014  0.00  0.00    -0.451 OA
ATOM      5  C   UNL     1       1.316  -0.379  -0.013  0.00  0.00    +0.238 A 
ATOM      6  C   UNL     1       0.002  -0.004   0.002  0.00  0.00    +0.161 A 
ATOM      7  C   UNL     1       1.728   3.250   0.002  0.00  0.00    +0.086 C 
ENDROOT
BRANCH   6   8
ATOM      8  S   UNL     1      -1.397  -1.075   0.010  0.00  0.00    +0.065 S 
ATOM      9  O   UNL     1      -0.958  -2.314   0.550  0.00  0.00    -0.153 OA
ATOM     10  O   UNL     1      -2.471  -0.336   0.575  0.00  0.00    -0.153 OA
BRANCH   8  11
ATOM     11  N   UNL     1      -1.801  -1.364  -1.570  0.00  0.00    -0.180 NA
ATOM     12  C   UNL     1      -2.757  -0.497  -2.276  0.00  0.00    +0.090 C 
ATOM     13  C   UNL     1      -3.829  -1.372  -2.923  0.00  0.00    -0.065 C 
ATOM     14  N   UNL     1      -3.186  -2.396  -3.756  0.00  0.00    +0.381 N 
ATOM     15  C   UNL     1      -2.356  -3.298  -2.947  0.00  0.00    -0.065 C 
ATOM     16  C   UNL     1      -1.218  -2.498  -2.303  0.00  0.00    +0.090 C 
ATOM     17  H   UNL     1      -3.958  -2.993  -4.264  0.00  0.00    -0.086 HD
ATOM     18  H   UNL     1      -2.546  -1.910  -4.507  0.00  0.00    -0.086 HD
ENDBRANCH   8  11
ENDBRANCH   6   8
BRANCH   5  19
ATOM     19  C   UNL     1       1.819  -1.755  -0.024  0.00  0.00    +0.377 C 
ATOM     20  O   UNL     1       1.038  -2.687  -0.021  0.00  0.00    -0.241 OA
BRANCH  19  21
ATOM     21  O   UNL     1       3.147  -1.987  -0.038  0.00  0.00    -0.462 OA
ATOM     22  C   UNL     1       3.574  -3.375  -0.049  0.00  0.00    +0.280 C 
ENDBRANCH  19  21
ENDBRANCH   5  19
TORSDOF 4
