REMARK  Name = ZINC59310125
REMARK  3 active torsions:
REMARK  status: ('A' for Active; 'I' for Inactive)
REMARK    1  A    between atoms: C_4  and  N_7
REMARK    2  A    between atoms: N_16  and  C_17
REMARK    3  A    between atoms: C_17  and  C_19
REMARK                            x       y       z     vdW  Elec       q    Type
REMARK                         _______ _______ _______ _____ _____    ______ ____
ROOT
ATOM      1  N   UNL     1       3.624  -0.653  -0.039  0.00  0.00    -0.280 N 
ATOM      2  C   UNL     1       3.792  -2.031   0.065  0.00  0.00    +0.073 A 
ATOM      3  C   UNL     1       2.901  -3.088   0.180  0.00  0.00    +0.028 A 
ATOM      4  C   UNL     1       3.375  -4.381   0.267  0.00  0.00    +0.002 A 
ATOM      5  C   UNL     1       4.737  -4.629   0.241  0.00  0.00    +0.002 A 
ATOM      6  C   UNL     1       5.633  -3.585   0.128  0.00  0.00    +0.028 A 
ATOM      7  C   UNL     1       5.166  -2.280   0.039  0.00  0.00    +0.066 A 
ATOM      8  N   UNL     1       5.805  -1.050  -0.080  0.00  0.00    -0.326 N 
ATOM      9  C   UNL     1       4.855  -0.079  -0.131  0.00  0.00    +0.206 A 
ATOM     10  N   UNL     1       5.091   1.224  -0.249  0.00  0.00    -0.143 NA
ATOM     11  H   UNL     1       6.764  -0.910  -0.123  0.00  0.00    +0.169 HD
ENDROOT
BRANCH   1  15
ATOM     12  C   UNL     1      -0.021   1.366  -0.079  0.00  0.00    +0.000 A 
ATOM     13  C   UNL     1       0.875   1.540  -1.117  0.00  0.00    +0.002 A 
ATOM     14  C   UNL     1       2.084   0.872  -1.107  0.00  0.00    +0.026 A 
ATOM     15  C   UNL     1       2.399   0.026  -0.052  0.00  0.00    +0.050 A 
ATOM     16  C   UNL     1       1.497  -0.146   0.990  0.00  0.00    +0.026 A 
ATOM     17  C   UNL     1       0.290   0.524   0.973  0.00  0.00    +0.002 A 
ENDBRANCH   1  15
BRANCH  10  18
ATOM     18  C   UNL     1       6.332   1.660  -0.447  0.00  0.00    +0.280 C 
ATOM     19  O   UNL     1       7.235   0.865  -0.622  0.00  0.00    -0.270 OA
BRANCH  18  20
ATOM     20  C   UNL     1       6.619   3.139  -0.455  0.00  0.00    +0.265 C 
ATOM     21  C   UNL     1       6.411   3.745   0.954  0.00  0.00    +0.093 C 
ATOM     22  C   UNL     1       7.808   3.665   1.539  0.00  0.00    -0.002 A 
ATOM     23  C   UNL     1       8.278   3.775   2.829  0.00  0.00    +0.007 A 
ATOM     24  C   UNL     1       9.632   3.651   3.084  0.00  0.00    +0.000 A 
ATOM     25  C   UNL     1      10.509   3.418   2.041  0.00  0.00    +0.004 A 
ATOM     26  C   UNL     1      10.041   3.311   0.748  0.00  0.00    +0.046 A 
ATOM     27  C   UNL     1       8.679   3.438   0.481  0.00  0.00    +0.125 A 
ATOM     28  O   UNL     1       8.012   3.387  -0.709  0.00  0.00    -0.479 OA
ENDBRANCH  18  20
ENDBRANCH  10  18
TORSDOF 3
