REMARK  Name = ZINC37844522
REMARK  5 active torsions:
REMARK  status: ('A' for Active; 'I' for Inactive)
REMARK    1  A    between atoms: C_1  and  C_2
REMARK    2  A    between atoms: C_2  and  N_3
REMARK    3  A    between atoms: C_7  and  C_8
REMARK    4  A    between atoms: N_10  and  C_11
REMARK    5  A    between atoms: C_14  and  N_18
REMARK                            x       y       z     vdW  Elec       q    Type
REMARK                         _______ _______ _______ _____ _____    ______ ____
ROOT
ATOM      1  C   UNL     1      -1.656  -0.853  -2.525  0.00  0.00    +0.265 C 
ATOM      2  O   UNL     1      -2.407  -1.150  -3.435  0.00  0.00    -0.268 OA
ATOM      3  N   UNL     1      -0.448  -0.320  -2.795  0.00  0.00    -0.279 N 
ATOM      4  H   UNL     1       0.165  -0.116  -2.071  0.00  0.00    +0.155 HD
ENDROOT
BRANCH   3   5
ATOM      5  C   UNL     1      -0.078  -0.061  -4.118  0.00  0.00    +0.052 A 
ATOM      6  C   UNL     1      -1.005  -0.207  -5.142  0.00  0.00    +0.027 A 
ATOM      7  C   UNL     1      -0.637   0.050  -6.448  0.00  0.00    +0.034 A 
ATOM      8  C   UNL     1       0.654   0.453  -6.738  0.00  0.00    +0.128 A 
ATOM      9  C   UNL     1       1.580   0.600  -5.722  0.00  0.00    +0.054 A 
ATOM     10  C   UNL     1       1.217   0.349  -4.412  0.00  0.00    +0.064 A 
ATOM     11 CL   UNL     1       2.379   0.540  -3.136  0.00  0.00    -0.082 Cl
BRANCH   8  12
ATOM     12  N   UNL     1       1.044   0.728  -8.139  0.00  0.00    +0.056 N 
ATOM     13  O   UNL     1       0.235   0.600  -9.028  0.00  0.00    -0.126 OA
ATOM     14  O   UNL     1       2.172   1.081  -8.394  0.00  0.00    -0.126 OA
ENDBRANCH   8  12
ENDBRANCH   3   5
BRANCH   1  19
ATOM     15  N   UNL     1      -3.226  -1.684  -0.715  0.00  0.00    -0.342 N 
ATOM     16  C   UNL     1      -3.239  -1.707   0.641  0.00  0.00    +0.101 A 
ATOM     17  C   UNL     1      -2.108  -1.119   1.099  0.00  0.00    +0.036 A 
ATOM     18  C   UNL     1      -1.357  -0.711  -0.008  0.00  0.00    +0.047 A 
ATOM     19  C   UNL     1      -2.065  -1.076  -1.134  0.00  0.00    +0.106 A 
ATOM     20 BR   UNL     1      -1.630  -0.889   2.915  0.00  0.00    -0.049 Br
BRANCH  15  22
ATOM     21  C   UNL     1      -3.836  -3.588  -2.124  0.00  0.00    +0.027 C 
ATOM     22  C   UNL     1      -4.272  -2.223  -1.589  0.00  0.00    +0.118 C 
ENDBRANCH  15  22
ENDBRANCH   1  19
TORSDOF 4
