REMARK  Name = ZINC21989263
REMARK  10 active torsions:
REMARK  status: ('A' for Active; 'I' for Inactive)
REMARK    1  A    between atoms: C_1  and  C_2
REMARK    2  A    between atoms: C_2  and  C_4
REMARK    3  A    between atoms: C_2  and  O_23
REMARK    4  A    between atoms: N_6  and  C_7
REMARK    5  A    between atoms: O_23  and  C_24
REMARK    6  A    between atoms: C_24  and  C_26
REMARK    7  A    between atoms: C_31  and  N_32
REMARK    8  A    between atoms: N_32  and  C_33
REMARK    9  A    between atoms: C_33  and  C_34
REMARK   10  A    between atoms: C_34  and  O_35
REMARK                            x       y       z     vdW  Elec       q    Type
REMARK                         _______ _______ _______ _____ _____    ______ ____
ROOT
ATOM      1  C   UNL     1       1.168  -0.672  -0.163  0.00  0.00    +0.258 C 
ATOM      2  O   UNL     1       2.211  -0.054  -0.177  0.00  0.00    -0.271 OA
ATOM      3  N   UNL     1      -0.004  -0.015  -0.054  0.00  0.00    -0.282 N 
ATOM      4  H   UNL     1      -0.945  -0.578   0.031  0.00  0.00    +0.155 HD
ENDROOT
BRANCH   3   5
ATOM      5  C   UNL     1      -0.023   1.376  -0.050  0.00  0.00    +0.045 A 
ATOM      6  C   UNL     1       1.014   2.090   0.550  0.00  0.00    +0.024 A 
ATOM      7  C   UNL     1       0.998   3.469   0.556  0.00  0.00    +0.003 A 
ATOM      8  C   UNL     1      -0.046   4.166  -0.034  0.00  0.00    +0.012 A 
ATOM      9  C   UNL     1      -1.089   3.475  -0.636  0.00  0.00    +0.035 A 
ATOM     10  C   UNL     1      -1.079   2.066  -0.652  0.00  0.00    +0.054 A 
ATOM     11  C   UNL     1      -2.185   1.334  -1.298  0.00  0.00    +0.196 C 
ATOM     12  O   UNL     1      -2.078   0.147  -1.538  0.00  0.00    -0.287 OA
ATOM     13  C   UNL     1      -3.425   2.060  -1.650  0.00  0.00    +0.033 A 
ATOM     14  C   UNL     1      -4.580   1.365  -1.990  0.00  0.00    +0.012 A 
ATOM     15  C   UNL     1      -5.731   2.061  -2.316  0.00  0.00    +0.001 A 
ATOM     16  C   UNL     1      -5.742   3.444  -2.305  0.00  0.00    +0.001 A 
ATOM     17  C   UNL     1      -4.600   4.151  -1.968  0.00  0.00    +0.012 A 
ATOM     18  C   UNL     1      -3.435   3.467  -1.639  0.00  0.00    +0.033 A 
ATOM     19  C   UNL     1      -2.211   4.205  -1.267  0.00  0.00    +0.195 C 
ATOM     20  O   UNL     1      -2.122   5.397  -1.488  0.00  0.00    -0.287 OA
ENDBRANCH   3   5
BRANCH   1  22
ATOM     21  C   UNL     1       0.506  -2.602  -1.573  0.00  0.00    +0.062 C 
ATOM     22  C   UNL     1       1.181  -2.176  -0.268  0.00  0.00    +0.259 C 
BRANCH  22  23
ATOM     23  O   UNL     1       2.554  -2.649  -0.255  0.00  0.00    -0.449 OA
BRANCH  23  24
ATOM     24  C   UNL     1       2.775  -3.871   0.269  0.00  0.00    +0.342 C 
ATOM     25  O   UNL     1       1.846  -4.523   0.704  0.00  0.00    -0.245 OA
BRANCH  24  26
ATOM     26  C   UNL     1       4.142  -4.416   0.315  0.00  0.00    +0.080 A 
ATOM     27  C   UNL     1       5.228  -3.628  -0.077  0.00  0.00    +0.017 A 
ATOM     28  C   UNL     1       6.504  -4.142  -0.026  0.00  0.00    +0.001 A 
ATOM     29  C   UNL     1       6.719  -5.443   0.402  0.00  0.00    +0.002 A 
ATOM     30  C   UNL     1       5.658  -6.236   0.787  0.00  0.00    +0.024 A 
ATOM     31  C   UNL     1       4.363  -5.733   0.748  0.00  0.00    +0.041 A 
BRANCH  31  32
ATOM     32  N   UNL     1       3.294  -6.530   1.135  0.00  0.00    -0.341 N 
ATOM     33  H   UNL     1       2.281  -6.104   1.187  0.00  0.00    +0.146 HD
BRANCH  32  34
ATOM     34  C   UNL     1       3.514  -7.938   1.476  0.00  0.00    +0.129 C 
BRANCH  34  35
ATOM     35  C   UNL     1       2.183  -8.583   1.865  0.00  0.00    +0.174 C 
BRANCH  35  36
ATOM     36  O   UNL     1       1.312  -8.599   0.732  0.00  0.00    -0.393 OA
ATOM     37  H   UNL     1       0.303  -9.028   0.820  0.00  0.00    +0.209 HD
ENDBRANCH  35  36
ENDBRANCH  34  35
ENDBRANCH  32  34
ENDBRANCH  31  32
ENDBRANCH  24  26
ENDBRANCH  23  24
ENDBRANCH  22  23
ENDBRANCH   1  22
TORSDOF 9
