REMARK  Name = ZINC15680163
REMARK  8 active torsions:
REMARK  status: ('A' for Active; 'I' for Inactive)
REMARK    1  A    between atoms: C_1  and  C_2
REMARK    2  A    between atoms: C_5  and  N_9
REMARK    3  A    between atoms: C_6  and  C_8
REMARK    4  A    between atoms: N_13  and  S_28
REMARK    5  A    between atoms: C_15  and  C_16
REMARK    6  A    between atoms: C_15  and  C_17
REMARK    7  A    between atoms: N_19  and  C_20
REMARK    8  A    between atoms: S_28  and  C_31
REMARK                            x       y       z     vdW  Elec       q    Type
REMARK                         _______ _______ _______ _____ _____    ______ ____
ROOT
ATOM      1  N   UNL     1       0.153   3.811  -1.702  0.00  0.00    -0.254 N 
ATOM      2  C   UNL     1      -0.998   3.634  -1.053  0.00  0.00    +0.236 C 
ATOM      3  O   UNL     1      -1.979   4.232  -1.440  0.00  0.00    -0.274 OA
ATOM      4  C   UNL     1      -1.137   2.724   0.133  0.00  0.00    +0.205 C 
ATOM      5  N   UNL     1       0.068   1.886   0.239  0.00  0.00    -0.170 NA
ATOM      6  C   UNL     1       1.368   2.542   0.017  0.00  0.00    +0.145 C 
ATOM      7  C   UNL     1       1.387   3.094  -1.409  0.00  0.00    +0.129 C 
ATOM      8  C   UNL     1       1.542   1.935  -2.396  0.00  0.00    +0.043 C 
ENDROOT
BRANCH   1  13
ATOM      9  C   UNL     1       0.255   7.626  -5.900  0.00  0.00    +0.044 C 
ATOM     10  C   UNL     1       0.227   6.612  -4.785  0.00  0.00    -0.050 A 
ATOM     11  C   UNL     1       0.023   5.275  -5.072  0.00  0.00    +0.005 A 
ATOM     12  C   UNL     1       0.003   4.343  -4.053  0.00  0.00    +0.024 A 
ATOM     13  C   UNL     1       0.178   4.752  -2.737  0.00  0.00    +0.040 A 
ATOM     14  C   UNL     1       0.383   6.095  -2.452  0.00  0.00    -0.029 A 
ATOM     15  C   UNL     1       0.407   7.022  -3.476  0.00  0.00    +0.008 A 
ATOM     16  C   UNL     1       0.580   6.542  -1.026  0.00  0.00    +0.045 C 
ENDBRANCH   1  13
BRANCH   7  17
ATOM     17  C   UNL     1       2.554   4.034  -1.562  0.00  0.00    +0.238 C 
ATOM     18  O   UNL     1       3.083   4.508  -0.579  0.00  0.00    -0.273 OA
ATOM     19  N   UNL     1       3.011   4.348  -2.790  0.00  0.00    -0.311 N 
ATOM     20  H   UNL     1       2.618   3.934  -3.574  0.00  0.00    +0.149 HD
BRANCH  19  21
ATOM     21  C   UNL     1       4.100   5.317  -2.942  0.00  0.00    +0.073 C 
ATOM     22  C   UNL     1       3.527   6.736  -2.924  0.00  0.00    +0.022 C 
ATOM     23  C   UNL     1       4.657   7.738  -2.682  0.00  0.00    +0.002 C 
ATOM     24  C   UNL     1       5.569   7.221  -1.567  0.00  0.00    +0.000 C 
ATOM     25  C   UNL     1       6.942   6.882  -2.149  0.00  0.00    +0.000 C 
ATOM     26  C   UNL     1       6.859   5.560  -2.914  0.00  0.00    +0.000 C 
ATOM     27  C   UNL     1       6.168   5.792  -4.260  0.00  0.00    +0.002 C 
ATOM     28  C   UNL     1       4.817   5.073  -4.271  0.00  0.00    +0.022 C 
ENDBRANCH  19  21
ENDBRANCH   7  17
BRANCH   5  29
ATOM     29  S   UNL     1      -0.035   0.271   0.588  0.00  0.00    +0.029 S 
ATOM     30  O   UNL     1      -1.325  -0.117   0.135  0.00  0.00    -0.158 OA
ATOM     31  O   UNL     1       1.135  -0.298   0.016  0.00  0.00    -0.158 OA
ATOM     32  C   UNL     1       0.046   0.178   2.398  0.00  0.00    +0.215 C 
ENDBRANCH   5  29
TORSDOF 4
