REMARK  Name = ZINC36206550
REMARK  17 active torsions:
REMARK  status: ('A' for Active; 'I' for Inactive)
REMARK    1  A    between atoms: C_1  and  C_2
REMARK    2  A    between atoms: C_2  and  C_3
REMARK    3  A    between atoms: C_2  and  C_4
REMARK    4  A    between atoms: C_4  and  O_5
REMARK    5  A    between atoms: O_5  and  C_6
REMARK    6  A    between atoms: C_6  and  C_7
REMARK    7  A    between atoms: C_7  and  C_9
REMARK    8  A    between atoms: C_7  and  O_34
REMARK    9  A    between atoms: C_9  and  N_10
REMARK   10  A    between atoms: N_10  and  C_11
REMARK   11  A    between atoms: N_10  and  C_31
REMARK   12  A    between atoms: C_11  and  C_12
REMARK   13  A    between atoms: C_18  and  C_23
REMARK   14  A    between atoms: C_28  and  O_29
REMARK   15  A    between atoms: O_29  and  C_30
REMARK   16  A    between atoms: C_31  and  C_32
REMARK   17  A    between atoms: C_31  and  C_33
REMARK                            x       y       z     vdW  Elec       q    Type
REMARK                         _______ _______ _______ _____ _____    ______ ____
ROOT
ATOM      1  C   UNL     1       8.924   0.281  -3.696  0.00  0.00    +0.094 A 
ATOM      2  N   UNL     1       9.960   0.324  -4.574  0.00  0.00    -0.312 N 
ATOM      3  H   UNL     1       9.847  -0.050  -5.461  0.00  0.00    +0.170 HD
ATOM      4  C   UNL     1      11.140   0.875  -4.236  0.00  0.00    +0.260 A 
ATOM      5  O   UNL     1      12.060   0.907  -5.035  0.00  0.00    -0.267 OA
ATOM      6  C   UNL     1      11.298   1.426  -2.924  0.00  0.00    +0.080 A 
ATOM      7  C   UNL     1      12.463   2.070  -2.328  0.00  0.00    +0.007 A 
ATOM      8  C   UNL     1      12.377   2.519  -1.052  0.00  0.00    +0.056 A 
ATOM      9  S   UNL     1      10.712   2.097  -0.577  0.00  0.00    -0.076 S 
ATOM     10  C   UNL     1      10.174   1.336  -2.087  0.00  0.00    +0.116 A 
ATOM     11  N   UNL     1       9.037   0.779  -2.494  0.00  0.00    -0.229 NA
ENDROOT
BRANCH   7  12
ATOM     12  C   UNL     1      13.716   2.229  -3.102  0.00  0.00    +0.025 A 
ATOM     13  C   UNL     1      14.873   1.560  -2.707  0.00  0.00    +0.012 A 
ATOM     14  C   UNL     1      16.038   1.712  -3.432  0.00  0.00    +0.001 A 
ATOM     15  C   UNL     1      16.062   2.527  -4.550  0.00  0.00    +0.004 A 
ATOM     16  C   UNL     1      14.920   3.195  -4.950  0.00  0.00    +0.046 A 
ATOM     17  C   UNL     1      13.742   3.047  -4.236  0.00  0.00    +0.128 A 
BRANCH  17  18
ATOM     18  O   UNL     1      12.618   3.699  -4.632  0.00  0.00    -0.495 OA
ATOM     19  C   UNL     1      12.719   4.517  -5.800  0.00  0.00    +0.277 C 
ENDBRANCH  17  18
ENDBRANCH   7  12
BRANCH   1  20
ATOM     20  C   UNL     1       7.621  -0.347  -4.119  0.00  0.00    -0.003 C 
BRANCH  20  21
ATOM     21  N   UNL     1       6.721  -0.433  -2.962  0.00  0.00    +0.388 N 
ATOM     22  H   UNL     1       6.883   0.353  -2.350  0.00  0.00    -0.081 HD
BRANCH  21  23
ATOM     23  C   UNL     1       6.979  -1.682  -2.232  0.00  0.00    -0.074 C 
ATOM     24  C   UNL     1       6.663  -2.875  -3.136  0.00  0.00    -0.014 C 
ATOM     25  C   UNL     1       8.451  -1.734  -1.816  0.00  0.00    -0.014 C 
ENDBRANCH  21  23
BRANCH  21  26
ATOM     26  C   UNL     1       5.327  -0.416  -3.423  0.00  0.00    -0.044 C 
BRANCH  26  27
ATOM     27  C   UNL     1       4.389  -0.400  -2.214  0.00  0.00    +0.124 C 
BRANCH  27  28
ATOM     28  O   UNL     1       4.636   0.772  -1.435  0.00  0.00    -0.391 OA
ATOM     29  H   UNL     1       4.497   1.600  -1.915  0.00  0.00    +0.210 HD
ENDBRANCH  27  28
BRANCH  27  30
ATOM     30  C   UNL     1       2.937  -0.396  -2.695  0.00  0.00    +0.189 C 
BRANCH  30  31
ATOM     31  O   UNL     1       2.062  -0.499  -1.570  0.00  0.00    -0.377 OA
BRANCH  31  32
ATOM     32  C   UNL     1       0.674  -0.504  -1.911  0.00  0.00    +0.163 C 
BRANCH  32  34
ATOM     33  C   UNL     1       0.038   0.635   0.220  0.00  0.00    +0.009 C 
ATOM     34  C   UNL     1      -0.164  -0.617  -0.636  0.00  0.00    +0.009 C 
ATOM     35  C   UNL     1      -1.642  -0.747  -1.007  0.00  0.00    +0.009 C 
ENDBRANCH  32  34
ENDBRANCH  31  32
ENDBRANCH  30  31
ENDBRANCH  27  30
ENDBRANCH  26  27
ENDBRANCH  21  26
ENDBRANCH  20  21
ENDBRANCH   1  20
TORSDOF 12
