REMARK  Name = ZINC35415930
REMARK  14 active torsions:
REMARK  status: ('A' for Active; 'I' for Inactive)
REMARK    1  A    between atoms: C_1  and  C_2
REMARK    2  A    between atoms: C_5  and  C_8
REMARK    3  A    between atoms: C_8  and  N_9
REMARK    4  A    between atoms: N_9  and  C_10
REMARK    5  A    between atoms: N_9  and  C_22
REMARK    6  A    between atoms: C_10  and  C_11
REMARK    7  A    between atoms: C_11  and  C_12
REMARK    8  A    between atoms: C_22  and  C_23
REMARK    9  A    between atoms: C_25  and  C_28
REMARK   10  A    between atoms: N_30  and  C_31
REMARK   11  A    between atoms: C_31  and  C_32
REMARK   12  A    between atoms: C_32  and  C_33
REMARK   13  A    between atoms: C_33  and  O_34
REMARK   14  A    between atoms: O_34  and  C_35
REMARK                            x       y       z     vdW  Elec       q    Type
REMARK                         _______ _______ _______ _____ _____    ______ ____
ROOT
ATOM      1  N   UNL     1       1.447  -4.735  -0.159  0.00  0.00    +0.387 N 
ATOM      2  H   UNL     1       1.851  -4.198  -0.911  0.00  0.00    -0.081 HD
ENDROOT
BRANCH   1   3
ATOM      3  C   UNL     1       0.037  -4.359   0.009  0.00  0.00    -0.042 C 
BRANCH   3   8
ATOM      4  C   UNL     1      -0.363   1.362   0.720  0.00  0.00    +0.044 C 
ATOM      5  C   UNL     1      -0.259  -0.130   0.534  0.00  0.00    -0.050 A 
ATOM      6  C   UNL     1      -0.190  -0.665  -0.738  0.00  0.00    +0.003 A 
ATOM      7  C   UNL     1      -0.095  -2.034  -0.908  0.00  0.00    +0.002 A 
ATOM      8  C   UNL     1      -0.067  -2.867   0.194  0.00  0.00    -0.064 A 
ATOM      9  C   UNL     1      -0.134  -2.332   1.467  0.00  0.00    +0.002 A 
ATOM     10  C   UNL     1      -0.226  -0.963   1.637  0.00  0.00    +0.003 A 
ENDBRANCH   3   8
ENDBRANCH   1   3
BRANCH   1  11
ATOM     11  C   UNL     1       1.538  -6.167  -0.475  0.00  0.00    -0.073 C 
BRANCH  11  12
ATOM     12  C   UNL     1       0.884  -6.432  -1.833  0.00  0.00    +0.019 C 
BRANCH  12  13
ATOM     13  C   UNL     1       0.977  -7.901  -2.157  0.00  0.00    -0.024 A 
ATOM     14  C   UNL     1       1.928  -8.497  -2.892  0.00  0.00    +0.087 A 
ATOM     15  N   UNL     1       1.683  -9.841  -2.971  0.00  0.00    -0.360 N 
ATOM     16  H   UNL     1       2.234 -10.481  -3.449  0.00  0.00    +0.165 HD
ATOM     17  C   UNL     1       0.539 -10.150  -2.270  0.00  0.00    +0.047 A 
ATOM     18  C   UNL     1       0.050  -8.949  -1.724  0.00  0.00    +0.003 A 
ATOM     19  C   UNL     1      -1.111  -8.958  -0.950  0.00  0.00    +0.010 A 
ATOM     20  C   UNL     1      -1.766 -10.136  -0.723  0.00  0.00    +0.001 A 
ATOM     21  C   UNL     1      -1.286 -11.324  -1.256  0.00  0.00    +0.002 A 
ATOM     22  C   UNL     1      -0.146 -11.336  -2.030  0.00  0.00    +0.026 A 
ENDBRANCH  12  13
ENDBRANCH  11  12
ENDBRANCH   1  11
BRANCH   1  23
ATOM     23  C   UNL     1       2.178  -4.461   1.086  0.00  0.00    -0.014 C 
BRANCH  23  24
ATOM     24  C   UNL     1       3.648  -4.715   0.871  0.00  0.00    +0.063 A 
ATOM     25  N   UNL     1       4.542  -3.902   0.378  0.00  0.00    -0.241 NA
ATOM     26  C   UNL     1       5.803  -4.333   0.274  0.00  0.00    +0.133 A 
ATOM     27  C   UNL     1       6.040  -5.611   0.703  0.00  0.00    +0.079 A 
ATOM     28  S   UNL     1       4.519  -6.108   1.217  0.00  0.00    -0.082 S 
BRANCH  26  29
ATOM     29  C   UNL     1       6.875  -3.482  -0.271  0.00  0.00    +0.263 C 
ATOM     30  O   UNL     1       7.990  -3.940  -0.436  0.00  0.00    -0.269 OA
ATOM     31  N   UNL     1       6.620  -2.197  -0.587  0.00  0.00    -0.310 N 
ATOM     32  H   UNL     1       5.752  -1.812  -0.389  0.00  0.00    +0.149 HD
BRANCH  31  33
ATOM     33  C   UNL     1       7.654  -1.382  -1.230  0.00  0.00    +0.107 C 
BRANCH  33  34
ATOM     34  C   UNL     1       7.112   0.026  -1.480  0.00  0.00    +0.047 C 
BRANCH  34  35
ATOM     35  C   UNL     1       8.191   0.877  -2.151  0.00  0.00    +0.161 C 
BRANCH  35  36
ATOM     36  O   UNL     1       7.684   2.193  -2.384  0.00  0.00    -0.383 OA
ATOM     37  C   UNL     1       8.619   3.073  -3.011  0.00  0.00    +0.193 C 
ENDBRANCH  35  36
ENDBRANCH  34  35
ENDBRANCH  33  34
ENDBRANCH  31  33
ENDBRANCH  26  29
ENDBRANCH  23  24
ENDBRANCH   1  23
TORSDOF 12
