REMARK  Name = ZINC15179144
REMARK  11 active torsions:
REMARK  status: ('A' for Active; 'I' for Inactive)
REMARK    1  A    between atoms: C_1  and  C_2
REMARK    2  A    between atoms: C_2  and  C_3
REMARK    3  A    between atoms: C_6  and  C_9
REMARK    4  A    between atoms: C_9  and  C_11
REMARK    5  A    between atoms: C_11  and  C_12
REMARK    6  A    between atoms: C_12  and  C_13
REMARK    7  A    between atoms: N_15  and  C_16
REMARK    8  A    between atoms: N_15  and  C_17
REMARK    9  A    between atoms: C_17  and  C_19
REMARK   10  A    between atoms: C_17  and  C_20
REMARK   11  A    between atoms: C_24  and  N_26
REMARK                            x       y       z     vdW  Elec       q    Type
REMARK                         _______ _______ _______ _____ _____    ______ ____
ROOT
ATOM      1  C   UNL     1       6.110  -2.807  -6.083  0.00  0.00    +0.216 C 
ATOM      2  O   UNL     1       6.720  -2.583  -5.059  0.00  0.00    -0.276 OA
ATOM      3  N   UNL     1       6.763  -3.259  -7.172  0.00  0.00    -0.298 N 
ATOM      4  C   UNL     1       6.025  -3.530  -8.408  0.00  0.00    +0.132 C 
ENDROOT
BRANCH   3   5
ATOM      5  C   UNL     1       8.210  -3.479  -7.119  0.00  0.00    +0.103 C 
ATOM      6  C   UNL     1       8.525  -4.910  -7.562  0.00  0.00    +0.033 C 
BRANCH   5   7
ATOM      7  C   UNL     1       8.900  -2.505  -8.039  0.00  0.00    -0.025 A 
ATOM      8  C   UNL     1       9.905  -1.689  -7.553  0.00  0.00    +0.005 A 
ATOM      9  C   UNL     1      10.538  -0.795  -8.397  0.00  0.00    +0.003 A 
ATOM     10  C   UNL     1      10.166  -0.719  -9.727  0.00  0.00    +0.033 A 
ATOM     11  C   UNL     1       9.163  -1.535 -10.212  0.00  0.00    +0.127 A 
ATOM     12  C   UNL     1       8.533  -2.432  -9.369  0.00  0.00    +0.038 A 
BRANCH  11  13
ATOM     13  N   UNL     1       8.765  -1.453 -11.636  0.00  0.00    +0.056 N 
ATOM     14  O   UNL     1       9.318  -0.671 -12.373  0.00  0.00    -0.126 OA
ATOM     15  O   UNL     1       7.887  -2.167 -12.060  0.00  0.00    -0.126 OA
ENDBRANCH  11  13
ENDBRANCH   5   7
ENDBRANCH   3   5
BRANCH   1  16
ATOM     16  C   UNL     1       4.621  -2.581  -6.137  0.00  0.00    +0.104 C 
BRANCH  16  17
ATOM     17  C   UNL     1       4.133  -2.071  -4.780  0.00  0.00    +0.089 C 
BRANCH  17  18
ATOM     18  C   UNL     1       2.644  -1.844  -4.834  0.00  0.00    +0.164 C 
ATOM     19  O   UNL     1       2.033  -2.069  -5.857  0.00  0.00    -0.292 OA
BRANCH  18  23
ATOM     20  C   UNL     1       0.589  -0.423  -1.406  0.00  0.00    -0.048 A 
ATOM     21  C   UNL     1      -0.112  -0.677  -2.573  0.00  0.00    +0.004 A 
ATOM     22  C   UNL     1       0.549  -1.139  -3.691  0.00  0.00    +0.011 A 
ATOM     23  C   UNL     1       1.931  -1.351  -3.645  0.00  0.00    +0.017 A 
ATOM     24  C   UNL     1       2.631  -1.091  -2.463  0.00  0.00    +0.011 A 
ATOM     25  C   UNL     1       1.957  -0.624  -1.354  0.00  0.00    +0.004 A 
BRANCH  20  27
ATOM     26  C   UNL     1      -0.172   1.611  -0.209  0.00  0.00    +0.009 C 
ATOM     27  C   UNL     1      -0.142   0.082  -0.189  0.00  0.00    +0.032 C 
ENDBRANCH  20  27
ENDBRANCH  18  23
ENDBRANCH  17  18
ENDBRANCH  16  17
ENDBRANCH   1  16
TORSDOF 8
