REMARK  Name = ZINC16990045
REMARK  5 active torsions:
REMARK  status: ('A' for Active; 'I' for Inactive)
REMARK    1  A    between atoms: C_1  and  C_2
REMARK    2  A    between atoms: C_6  and  C_9
REMARK    3  A    between atoms: C_7  and  O_8
REMARK    4  A    between atoms: N_11  and  N_12
REMARK    5  A    between atoms: C_13  and  C_14
REMARK                            x       y       z     vdW  Elec       q    Type
REMARK                         _______ _______ _______ _____ _____    ______ ____
ROOT
ATOM      1  C   UNL     1       4.736   0.412  -0.041  0.00  0.00    +0.267 C 
ATOM      2  O   UNL     1       4.530  -0.786  -0.045  0.00  0.00    -0.268 OA
ATOM      3  N   UNL     1       3.700   1.274  -0.026  0.00  0.00    -0.203 N 
ATOM      4  H   UNL     1       3.864   2.230  -0.023  0.00  0.00    +0.178 HD
ENDROOT
BRANCH   1  10
ATOM      5  C   UNL     1       9.663  -0.433  -0.092  0.00  0.00    +0.047 C 
ATOM      6  C   UNL     1       8.497   0.521  -0.075  0.00  0.00    -0.008 A 
ATOM      7  C   UNL     1       8.721   1.884  -0.071  0.00  0.00    +0.007 A 
ATOM      8  C   UNL     1       7.656   2.769  -0.056  0.00  0.00    +0.001 A 
ATOM      9  C   UNL     1       6.361   2.298  -0.046  0.00  0.00    +0.017 A 
ATOM     10  C   UNL     1       6.120   0.923  -0.051  0.00  0.00    +0.080 A 
ATOM     11  C   UNL     1       7.200   0.030  -0.061  0.00  0.00    +0.132 A 
BRANCH  11  12
ATOM     12  O   UNL     1       6.979  -1.309  -0.060  0.00  0.00    -0.506 OA
ATOM     13  H   UNL     1       6.907  -1.696  -0.943  0.00  0.00    +0.292 HD
ENDBRANCH  11  12
ENDBRANCH   1  10
BRANCH   3  14
ATOM     14  N   UNL     1       2.385   0.789  -0.017  0.00  0.00    -0.192 NA
ATOM     15  C   UNL     1       1.401   1.607  -0.003  0.00  0.00    +0.106 C 
BRANCH  15  16
ATOM     16  C   UNL     1      -0.013   1.086   0.008  0.00  0.00    +0.032 C 
ATOM     17  C   UNL     1      -0.729   1.579   1.267  0.00  0.00    +0.009 C 
ATOM     18  C   UNL     1      -2.164   1.050   1.278  0.00  0.00    +0.001 C 
ATOM     19  C   UNL     1      -2.904   1.556   0.038  0.00  0.00    +0.000 C 
ATOM     20  C   UNL     1      -2.188   1.063  -1.221  0.00  0.00    +0.001 C 
ATOM     21  C   UNL     1      -0.753   1.593  -1.232  0.00  0.00    +0.009 C 
ENDBRANCH  15  16
ENDBRANCH   3  14
TORSDOF 4
