REMARK  Name = ZINC12079569
REMARK  9 active torsions:
REMARK  status: ('A' for Active; 'I' for Inactive)
REMARK    1  A    between atoms: C_1  and  C_2
REMARK    2  A    between atoms: C_3  and  C_21
REMARK    3  A    between atoms: C_5  and  C_7
REMARK    4  A    between atoms: C_12  and  N_13
REMARK    5  A    between atoms: C_14  and  C_16
REMARK    6  A    between atoms: C_21  and  N_57
REMARK    7  A    between atoms: C_22  and  N_57
REMARK    8  A    between atoms: C_23  and  C_24
REMARK    9  A    between atoms: C_23  and  N_57
REMARK                            x       y       z     vdW  Elec       q    Type
REMARK                         _______ _______ _______ _____ _____    ______ ____
ROOT
ATOM      1  C   UNL     1      -4.210   6.676  -0.168  0.00  0.00    +0.088 C 
ATOM      2  C   UNL     1      -5.174   5.518  -0.155  0.00  0.00    +0.124 A 
ATOM      3  C   UNL     1      -6.517   5.599  -0.134  0.00  0.00    +0.066 A 
ATOM      4  N   UNL     1      -7.004   4.348  -0.133  0.00  0.00    -0.216 NA
ATOM      5  C   UNL     1      -5.997   3.506  -0.144  0.00  0.00    +0.229 A 
ATOM      6  O   UNL     1      -4.851   4.209  -0.161  0.00  0.00    -0.440 OA
ENDROOT
BRANCH   5   7
ATOM      7  C   UNL     1      -6.105   2.033  -0.145  0.00  0.00    +0.058 A 
ATOM      8  C   UNL     1      -7.356   1.421  -0.235  0.00  0.00    +0.015 A 
ATOM      9  C   UNL     1      -7.450   0.045  -0.235  0.00  0.00    +0.001 A 
ATOM     10  C   UNL     1      -6.309  -0.734  -0.146  0.00  0.00    +0.002 A 
ATOM     11  C   UNL     1      -5.064  -0.141  -0.062  0.00  0.00    +0.024 A 
ATOM     12  C   UNL     1      -4.951   1.242  -0.055  0.00  0.00    +0.046 A 
BRANCH  12  13
ATOM     13  N   UNL     1      -3.695   1.842   0.036  0.00  0.00    -0.281 N 
ATOM     14  C   UNL     1      -2.629   1.268  -0.557  0.00  0.00    +0.249 C 
ATOM     15  O   UNL     1      -2.745   0.186  -1.101  0.00  0.00    -0.270 OA
ATOM     16  H   UNL     1      -3.588   2.672   0.526  0.00  0.00    +0.155 HD
BRANCH  14  17
ATOM     17  C   UNL     1      -1.326   1.951  -0.548  0.00  0.00    +0.044 A 
ATOM     18  C   UNL     1      -0.165   1.367  -1.172  0.00  0.00    +0.020 A 
ATOM     19  C   UNL     1       0.982   2.071  -1.115  0.00  0.00    +0.046 A 
ATOM     20  S   UNL     1       0.514   3.532  -0.210  0.00  0.00    -0.104 S 
ATOM     21  C   UNL     1      -1.159   3.176   0.064  0.00  0.00    +0.058 A 
ENDBRANCH  14  17
ENDBRANCH  12  13
ENDBRANCH   5   7
BRANCH   3  22
ATOM     22  C   UNL     1      -7.330   6.867  -0.121  0.00  0.00    -0.019 C 
BRANCH  22  24
ATOM     23  C   UNL     1      -6.381   7.663  -2.202  0.00  0.00    -0.096 C 
ATOM     24  N   UNL     1      -7.626   7.258  -1.515  0.00  0.00    +0.382 N 
ATOM     25  H   UNL     1      -8.032   6.454  -2.008  0.00  0.00    -0.082 HD
BRANCH  24  26
ATOM     26  C   UNL     1      -8.597   8.372  -1.532  0.00  0.00    -0.075 C 
BRANCH  26  27
ATOM     27  C   UNL     1      -9.055   8.607  -2.973  0.00  0.00    -0.024 C 
ATOM     28  C   UNL     1      -9.985   9.825  -3.027  0.00  0.00    +0.006 C 
ATOM     29  C   UNL     1     -10.282  10.143  -4.494  0.00  0.00    +0.027 C 
ATOM     30  C   UNL     1     -10.707   8.898  -5.216  0.00  0.00    -0.031 C 
ATOM     31  C   UNL     1     -10.506   7.698  -4.774  0.00  0.00    -0.031 C 
ATOM     32  C   UNL     1      -9.829   7.385  -3.472  0.00  0.00    +0.028 C 
ENDBRANCH  26  27
ENDBRANCH  24  26
ENDBRANCH  22  24
ENDBRANCH   3  22
TORSDOF 7
