REMARK  Name = ZINC44552859
REMARK  7 active torsions:
REMARK  status: ('A' for Active; 'I' for Inactive)
REMARK    1  A    between atoms: C_1  and  C_2
REMARK    2  A    between atoms: C_12  and  C_15
REMARK    3  A    between atoms: C_15  and  N_16
REMARK    4  A    between atoms: C_17  and  C_19
REMARK    5  A    between atoms: C_19  and  O_20
REMARK    6  A    between atoms: O_20  and  C_21
REMARK    7  A    between atoms: C_24  and  C_27
REMARK                            x       y       z     vdW  Elec       q    Type
REMARK                         _______ _______ _______ _____ _____    ______ ____
ROOT
ATOM      1  N   UNL     1       0.475  -5.557  -6.257  0.00  0.00    -0.308 N 
ATOM      2  C   UNL     1       0.349  -6.369  -7.325  0.00  0.00    +0.251 C 
ATOM      3  O   UNL     1      -0.671  -7.005  -7.486  0.00  0.00    -0.272 OA
ATOM      4  H   UNL     1       1.291  -5.048  -6.128  0.00  0.00    +0.149 HD
ENDROOT
BRANCH   1   5
ATOM      5  C   UNL     1      -0.619  -5.442  -5.290  0.00  0.00    +0.141 C 
BRANCH   5  16
ATOM      6  C   UNL     1       3.274  -2.149   1.783  0.00  0.00    +0.039 C 
ATOM      7  C   UNL     1       2.763  -1.746   0.398  0.00  0.00    +0.132 C 
ATOM      8  C   UNL     1       1.461  -2.497   0.095  0.00  0.00    +0.137 C 
ATOM      9  N   UNL     1       0.894  -1.957  -1.151  0.00  0.00    -0.312 N 
ATOM     10  C   UNL     1       0.744  -0.498  -1.267  0.00  0.00    +0.134 C 
ATOM     11  C   UNL     1       2.080   0.156  -0.897  0.00  0.00    +0.179 C 
ATOM     12  O   UNL     1       2.512  -0.339   0.373  0.00  0.00    -0.374 OA
ATOM     13  C   UNL     1       0.510  -2.800  -2.187  0.00  0.00    +0.099 A 
ATOM     14  C   UNL     1      -0.134  -2.274  -3.302  0.00  0.00    +0.042 A 
ATOM     15  C   UNL     1      -0.510  -3.124  -4.326  0.00  0.00    +0.010 A 
ATOM     16  C   UNL     1      -0.228  -4.478  -4.200  0.00  0.00    -0.014 A 
ATOM     17  C   UNL     1       0.415  -4.933  -3.066  0.00  0.00    +0.089 A 
ATOM     18  N   UNL     1       0.767  -4.097  -2.107  0.00  0.00    -0.349 N 
ATOM     19  H   UNL     1       1.221  -4.442  -1.322  0.00  0.00    +0.167 HD
ENDBRANCH   5  16
ENDBRANCH   1   5
BRANCH   2  20
ATOM     20  C   UNL     1       1.475  -6.487  -8.320  0.00  0.00    +0.324 C 
BRANCH  20  21
ATOM     21  O   UNL     1       1.104  -7.401  -9.354  0.00  0.00    -0.483 OA
BRANCH  21  22
ATOM     22  C   UNL     1       2.014  -7.622 -10.338  0.00  0.00    +0.121 A 
ATOM     23  C   UNL     1       3.242  -6.977 -10.306  0.00  0.00    +0.046 A 
ATOM     24  C   UNL     1       4.166  -7.204 -11.307  0.00  0.00    +0.016 A 
ATOM     25  C   UNL     1       3.868  -8.073 -12.341  0.00  0.00    +0.055 A 
ATOM     26  C   UNL     1       2.645  -8.716 -12.375  0.00  0.00    +0.016 A 
ATOM     27  C   UNL     1       1.720  -8.497 -11.373  0.00  0.00    +0.046 A 
BRANCH  25  28
ATOM     28  C   UNL     1       4.878  -8.318 -13.432  0.00  0.00    +0.417 C 
ATOM     29  F   UNL     1       5.698  -9.394 -13.076  0.00  0.00    -0.166 F 
ATOM     30  F   UNL     1       4.212  -8.615 -14.626  0.00  0.00    -0.166 F 
ATOM     31  F   UNL     1       5.662  -7.173 -13.608  0.00  0.00    -0.166 F 
ENDBRANCH  25  28
ENDBRANCH  21  22
ENDBRANCH  20  21
ENDBRANCH   2  20
TORSDOF 6
