REMARK  Name = ZINC45265281
REMARK  9 active torsions:
REMARK  status: ('A' for Active; 'I' for Inactive)
REMARK    1  A    between atoms: C_1  and  C_2
REMARK    2  A    between atoms: C_11  and  N_24
REMARK    3  A    between atoms: C_13  and  S_15
REMARK    4  A    between atoms: S_15  and  C_16
REMARK    5  A    between atoms: C_16  and  C_17
REMARK    6  A    between atoms: N_19  and  C_20
REMARK    7  A    between atoms: C_20  and  C_21
REMARK    8  A    between atoms: C_21  and  O_22
REMARK    9  A    between atoms: O_22  and  C_23
REMARK                            x       y       z     vdW  Elec       q    Type
REMARK                         _______ _______ _______ _____ _____    ______ ____
ROOT
ATOM      1  C   UNL     1       0.559   1.283  -0.694  0.00  0.00    +0.008 C 
ATOM      2  C   UNL     1       0.440  -0.235  -0.549  0.00  0.00    -0.009 C 
ATOM      3  C   UNL     1      -1.037  -0.626  -0.433  0.00  0.00    +0.008 C 
ATOM      4  C   UNL     1      -1.180  -2.144  -0.537  0.00  0.00    +0.037 C 
ATOM      5  C   UNL     1      -0.249  -2.800   0.478  0.00  0.00    -0.025 A 
ATOM      6  C   UNL     1       0.784  -2.109   1.010  0.00  0.00    -0.004 A 
ATOM      7  S   UNL     1       1.583  -3.241   2.119  0.00  0.00    -0.073 S 
ATOM      8  C   UNL     1       0.535  -4.638   1.872  0.00  0.00    +0.115 A 
ATOM      9  C   UNL     1      -0.412  -4.175   0.924  0.00  0.00    +0.051 A 
ATOM     10  C   UNL     1      -1.418  -5.097   0.513  0.00  0.00    +0.129 A 
ATOM     11  N   UNL     1      -1.361  -6.306   1.065  0.00  0.00    -0.207 NA
ATOM     12  C   UNL     1      -0.444  -6.673   1.948  0.00  0.00    +0.191 A 
ATOM     13  N   UNL     1       0.523  -5.857   2.374  0.00  0.00    -0.214 NA
ATOM     14  C   UNL     1       1.173  -0.691   0.721  0.00  0.00    +0.046 C 
ENDROOT
BRANCH  10  15
ATOM     15  N   UNL     1      -2.394  -4.756  -0.406  0.00  0.00    -0.343 N 
ATOM     16  H   UNL     1      -2.277  -3.975  -0.970  0.00  0.00    +0.144 HD
ATOM     17  H   UNL     1      -3.195  -5.297  -0.486  0.00  0.00    +0.144 HD
ENDBRANCH  10  15
BRANCH  12  18
ATOM     18  S   UNL     1      -0.503  -8.313   2.590  0.00  0.00    -0.077 S 
BRANCH  18  19
ATOM     19  C   UNL     1      -1.936  -9.056   1.763  0.00  0.00    +0.173 C 
BRANCH  19  20
ATOM     20  C   UNL     1      -2.102 -10.479   2.229  0.00  0.00    +0.223 C 
ATOM     21  O   UNL     1      -1.329 -10.947   3.039  0.00  0.00    -0.275 OA
ATOM     22  N   UNL     1      -3.109 -11.234   1.745  0.00  0.00    -0.312 N 
ATOM     23  H   UNL     1      -3.727 -10.860   1.098  0.00  0.00    +0.149 HD
BRANCH  22  24
ATOM     24  C   UNL     1      -3.271 -12.617   2.198  0.00  0.00    +0.132 C 
BRANCH  24  25
ATOM     25  C   UNL     1      -4.479 -13.245   1.501  0.00  0.00    +0.178 C 
BRANCH  25  26
ATOM     26  O   UNL     1      -4.227 -13.333   0.097  0.00  0.00    -0.381 OA
ATOM     27  C   UNL     1      -5.300 -13.908  -0.651  0.00  0.00    +0.194 C 
ENDBRANCH  25  26
ENDBRANCH  24  25
ENDBRANCH  22  24
ENDBRANCH  19  20
ENDBRANCH  18  19
ENDBRANCH  12  18
TORSDOF 7
