REMARK  Name = ZINC12597908
REMARK  9 active torsions:
REMARK  status: ('A' for Active; 'I' for Inactive)
REMARK    1  A    between atoms: C_1  and  C_2
REMARK    2  A    between atoms: C_2  and  N_3
REMARK    3  A    between atoms: N_3  and  C_4
REMARK    4  A    between atoms: N_3  and  S_6
REMARK    5  A    between atoms: C_4  and  C_5
REMARK    6  A    between atoms: S_6  and  C_9
REMARK    7  A    between atoms: C_12  and  N_27
REMARK    8  A    between atoms: C_13  and  N_15
REMARK    9  A    between atoms: C_16  and  C_18
REMARK                            x       y       z     vdW  Elec       q    Type
REMARK                         _______ _______ _______ _____ _____    ______ ____
ROOT
ATOM      1  C   UNL     1      -1.245   3.146   0.002  0.00  0.00    +0.107 A 
ATOM      2  C   UNL     1      -1.226   1.763  -0.013  0.00  0.00    +0.030 A 
ATOM      3  C   UNL     1      -0.022   1.084  -0.016  0.00  0.00    +0.027 A 
ATOM      4  C   UNL     1       1.172   1.790  -0.013  0.00  0.00    +0.051 A 
ATOM      5  C   UNL     1       1.153   3.184  -0.003  0.00  0.00    +0.057 A 
ATOM      6  C   UNL     1      -0.060   3.857   0.005  0.00  0.00    +0.053 A 
ENDROOT
BRANCH   4   7
ATOM      7  N   UNL     1       2.392   1.105  -0.021  0.00  0.00    -0.328 N 
ATOM      8  C   UNL     1       2.556   0.336  -1.261  0.00  0.00    +0.105 C 
ATOM      9  C   UNL     1       3.956  -0.280  -1.299  0.00  0.00    +0.019 C 
ATOM     10  C   UNL     1       4.140  -1.192  -0.083  0.00  0.00    +0.003 C 
ATOM     11  C   UNL     1       3.916  -0.378   1.194  0.00  0.00    +0.019 C 
ATOM     12  C   UNL     1       2.517   0.241   1.160  0.00  0.00    +0.105 C 
ENDBRANCH   4   7
BRANCH   5  13
ATOM     13  N   UNL     1       2.355   3.903   0.001  0.00  0.00    -0.280 N 
ATOM     14  C   UNL     1       2.391   5.155   0.500  0.00  0.00    +0.248 C 
ATOM     15  O   UNL     1       1.406   5.622   1.039  0.00  0.00    -0.270 OA
ATOM     16  H   UNL     1       3.162   3.501  -0.357  0.00  0.00    +0.155 HD
BRANCH  14  17
ATOM     17  C   UNL     1       3.624   5.957   0.393  0.00  0.00    +0.038 A 
ATOM     18  C   UNL     1       4.767   5.425  -0.221  0.00  0.00    +0.015 A 
ATOM     19  C   UNL     1       5.910   6.146  -0.336  0.00  0.00    +0.029 A 
ATOM     20  C   UNL     1       5.993   7.463   0.175  0.00  0.00    +0.078 A 
ATOM     21  C   UNL     1       4.830   7.978   0.796  0.00  0.00    +0.040 A 
ATOM     22  C   UNL     1       3.672   7.255   0.908  0.00  0.00    +0.030 A 
ATOM     23  S   UNL     1       5.354   9.605   1.277  0.00  0.00    -0.075 S 
ATOM     24  C   UNL     1       6.977   9.512   0.667  0.00  0.00    +0.157 A 
ATOM     25  N   UNL     1       7.037   8.313   0.155  0.00  0.00    -0.247 NA
ENDBRANCH  14  17
ENDBRANCH   5  13
BRANCH   1  26
ATOM     26  S   UNL     1      -2.784   4.003   0.012  0.00  0.00    +0.061 S 
ATOM     27  O   UNL     1      -3.744   3.109   0.558  0.00  0.00    -0.153 OA
ATOM     28  O   UNL     1      -2.532   5.285   0.572  0.00  0.00    -0.153 OA
BRANCH  26  29
ATOM     29  N   UNL     1      -3.215   4.254  -1.567  0.00  0.00    -0.177 NA
BRANCH  29  31
ATOM     30  C   UNL     1      -5.501   3.646  -2.190  0.00  0.00    +0.022 C 
ATOM     31  C   UNL     1      -4.023   3.257  -2.273  0.00  0.00    +0.106 C 
ENDBRANCH  29  31
BRANCH  29  32
ATOM     32  C   UNL     1      -2.788   5.473  -2.258  0.00  0.00    +0.106 C 
ATOM     33  C   UNL     1      -1.500   5.194  -3.036  0.00  0.00    +0.022 C 
ENDBRANCH  29  32
ENDBRANCH  26  29
ENDBRANCH   1  26
TORSDOF 7
