REMARK  Name = ZINC00495252
REMARK  4 active torsions:
REMARK  status: ('A' for Active; 'I' for Inactive)
REMARK    1  A    between atoms: C_4  and  C_7
REMARK    2  A    between atoms: C_9  and  C_24
REMARK    3  A    between atoms: C_10  and  N_23
REMARK    4  A    between atoms: C_20  and  C_21
REMARK                            x       y       z     vdW  Elec       q    Type
REMARK                         _______ _______ _______ _____ _____    ______ ____
ROOT
ATOM      1  C   UNL     1       3.719  -0.706  -0.038  0.00  0.00    +0.105 C 
ATOM      2  C   UNL     1       3.800  -1.502  -1.324  0.00  0.00    +0.078 C 
ATOM      3  C   UNL     1       3.953  -2.845  -1.254  0.00  0.00    +0.107 C 
ATOM      4  N   UNL     1       4.042  -3.552  -0.056  0.00  0.00    -0.249 N 
ATOM      5  C   UNL     1       4.202  -4.950   0.011  0.00  0.00    +0.054 A 
ATOM      6  C   UNL     1       4.294  -5.822  -1.087  0.00  0.00    +0.025 A 
ATOM      7  C   UNL     1       4.449  -7.175  -0.899  0.00  0.00    +0.002 A 
ATOM      8  C   UNL     1       4.521  -7.719   0.372  0.00  0.00    +0.001 A 
ATOM      9  C   UNL     1       4.434  -6.881   1.471  0.00  0.00    +0.017 A 
ATOM     10  C   UNL     1       4.277  -5.528   1.279  0.00  0.00    +0.036 A 
ATOM     11  S   UNL     1       4.126  -4.139   2.375  0.00  0.00    -0.071 S 
ATOM     12  C   UNL     1       3.973  -2.870   1.136  0.00  0.00    +0.093 C 
ATOM     13  C   UNL     1       3.818  -1.517   1.241  0.00  0.00    +0.070 C 
ENDROOT
BRANCH   1  17
ATOM     14  C   UNL     1       0.003   1.400  -0.003  0.00  0.00    +0.000 A 
ATOM     15  C   UNL     1       1.195   2.101  -0.006  0.00  0.00    +0.000 A 
ATOM     16  C   UNL     1       2.397   1.419  -0.017  0.00  0.00    +0.004 A 
ATOM     17  C   UNL     1       2.408   0.037  -0.025  0.00  0.00    -0.034 A 
ATOM     18  C   UNL     1       1.217  -0.664  -0.020  0.00  0.00    +0.004 A 
ATOM     19  C   UNL     1       0.014   0.018  -0.011  0.00  0.00    +0.000 A 
ENDBRANCH   1  17
BRANCH   3  20
ATOM     20  N   UNL     1       4.024  -3.551  -2.431  0.00  0.00    -0.345 N 
ATOM     21  H   UNL     1       4.681  -3.310  -3.103  0.00  0.00    +0.144 HD
ATOM     22  H   UNL     1       3.417  -4.292  -2.590  0.00  0.00    +0.144 HD
ENDBRANCH   3  20
BRANCH  13  23
ATOM     23  C   UNL     1       3.753  -0.884   2.523  0.00  0.00    +0.098 C 
ATOM     24  N   UNL     1       3.702  -0.381   3.541  0.00  0.00    -0.191 NA
ENDBRANCH  13  23
BRANCH   2  25
ATOM     25  C   UNL     1       3.716  -0.845  -2.594  0.00  0.00    +0.099 C 
ATOM     26  N   UNL     1       3.649  -0.323  -3.601  0.00  0.00    -0.191 NA
ENDBRANCH   2  25
TORSDOF 4
