REMARK  Name = ZINC19984123
REMARK  5 active torsions:
REMARK  status: ('A' for Active; 'I' for Inactive)
REMARK    1  A    between atoms: C_1  and  C_2
REMARK    2  A    between atoms: C_7  and  N_8
REMARK    3  A    between atoms: C_9  and  C_11
REMARK    4  A    between atoms: C_11  and  C_13
REMARK    5  A    between atoms: C_11  and  N_14
REMARK                            x       y       z     vdW  Elec       q    Type
REMARK                         _______ _______ _______ _____ _____    ______ ____
ROOT
ATOM      1  C   UNL     1      -0.169   0.052   4.882  0.00  0.00    +0.164 C 
ATOM      2  C   UNL     1      -1.433   0.915   4.869  0.00  0.00    +0.038 C 
ENDROOT
BRANCH   1   3
ATOM      3  N   UNL     1      -0.242  -0.905   5.988  0.00  0.00    -0.254 N 
ATOM      4  C   UNL     1       0.728  -0.899   7.000  0.00  0.00    +0.080 A 
ATOM      5  C   UNL     1       1.577   0.183   7.161  0.00  0.00    +0.047 A 
ATOM      6  C   UNL     1       2.528   0.169   8.167  0.00  0.00    +0.043 A 
ATOM      7  C   UNL     1       2.631  -0.924   9.010  0.00  0.00    +0.024 A 
ATOM      8  C   UNL     1       1.786  -2.007   8.853  0.00  0.00    +0.049 A 
ATOM      9  C   UNL     1       0.833  -1.999   7.850  0.00  0.00    +0.143 A 
ATOM     10  O   UNL     1      -0.008  -3.055   7.685  0.00  0.00    -0.481 OA
ATOM     11  C   UNL     1      -1.326  -2.760   7.215  0.00  0.00    +0.325 C 
ATOM     12  C   UNL     1      -1.249  -1.804   6.052  0.00  0.00    +0.258 C 
ATOM     13  O   UNL     1      -2.086  -1.844   5.175  0.00  0.00    -0.271 OA
ATOM     14 CL   UNL     1       3.592   1.524   8.371  0.00  0.00    -0.083 Cl
ENDBRANCH   1   3
BRANCH   1  16
ATOM     15  N   UNL     1       0.025  -0.015   2.417  0.00  0.00    -0.284 N 
ATOM     16  C   UNL     1      -0.057  -0.694   3.578  0.00  0.00    +0.238 C 
ATOM     17  O   UNL     1      -0.040  -1.907   3.573  0.00  0.00    -0.273 OA
ATOM     18  H   UNL     1       0.084   1.084   2.426  0.00  0.00    +0.155 HD
BRANCH  15  25
ATOM     19  C   UNL     1      -1.256   1.188   0.178  0.00  0.00    +0.045 C 
ATOM     20  C   UNL     1      -0.580  -0.156   0.083  0.00  0.00    -0.029 A 
ATOM     21  C   UNL     1      -0.574  -0.844  -1.115  0.00  0.00    +0.005 A 
ATOM     22  C   UNL     1       0.050  -2.074  -1.204  0.00  0.00    +0.000 A 
ATOM     23  C   UNL     1       0.662  -2.625  -0.093  0.00  0.00    +0.002 A 
ATOM     24  C   UNL     1       0.655  -1.945   1.109  0.00  0.00    +0.023 A 
ATOM     25  C   UNL     1       0.034  -0.706   1.201  0.00  0.00    +0.036 A 
ENDBRANCH  15  25
ENDBRANCH   1  16
TORSDOF 3
