REMARK  Name = ZINC39752436
REMARK  11 active torsions:
REMARK  status: ('A' for Active; 'I' for Inactive)
REMARK    1  A    between atoms: C_1  and  C_2
REMARK    2  A    between atoms: C_2  and  C_3
REMARK    3  A    between atoms: C_4  and  C_33
REMARK    4  A    between atoms: C_9  and  C_11
REMARK    5  A    between atoms: C_11  and  S_12
REMARK    6  A    between atoms: S_12  and  C_13
REMARK    7  A    between atoms: C_16  and  C_19
REMARK    8  A    between atoms: N_17  and  C_18
REMARK    9  A    between atoms: C_19  and  C_21
REMARK   10  A    between atoms: C_19  and  N_22
REMARK   11  A    between atoms: C_23  and  C_25
REMARK                            x       y       z     vdW  Elec       q    Type
REMARK                         _______ _______ _______ _____ _____    ______ ____
ROOT
ATOM      1  C   UNL     1       7.890  -2.994  -5.688  0.00  0.00    +0.192 A 
ATOM      2  N   UNL     1       8.749  -2.847  -4.706  0.00  0.00    -0.122 NA
ATOM      3  N   UNL     1       9.929  -3.159  -5.108  0.00  0.00    -0.132 NA
ATOM      4  C   UNL     1       9.895  -3.519  -6.360  0.00  0.00    +0.154 A 
ATOM      5  N   UNL     1       8.594  -3.433  -6.773  0.00  0.00    -0.308 N 
ATOM      6  C   UNL     1       8.066  -3.743  -8.104  0.00  0.00    +0.152 C 
ENDROOT
BRANCH   4   7
ATOM      7  C   UNL     1      11.070  -3.956  -7.196  0.00  0.00    +0.138 C 
ATOM      8  C   UNL     1      11.477  -5.377  -6.800  0.00  0.00    +0.036 C 
BRANCH   7   9
ATOM      9  N   UNL     1      12.195  -3.045  -6.971  0.00  0.00    -0.302 N 
ATOM     10  C   UNL     1      13.143  -2.899  -7.917  0.00  0.00    +0.245 C 
ATOM     11  O   UNL     1      13.065  -3.522  -8.958  0.00  0.00    -0.270 OA
ATOM     12  H   UNL     1      12.258  -2.547  -6.141  0.00  0.00    +0.150 HD
BRANCH  10  13
ATOM     13  C   UNL     1      14.278  -1.980  -7.691  0.00  0.00    +0.038 A 
ATOM     14  C   UNL     1      14.374  -1.266  -6.494  0.00  0.00    +0.014 A 
ATOM     15  C   UNL     1      15.435  -0.410  -6.287  0.00  0.00    +0.022 A 
ATOM     16  C   UNL     1      16.405  -0.256  -7.264  0.00  0.00    +0.059 A 
ATOM     17  C   UNL     1      16.316  -0.961  -8.454  0.00  0.00    +0.060 A 
ATOM     18  C   UNL     1      15.262  -1.826  -8.669  0.00  0.00    +0.034 A 
ATOM     19 CL   UNL     1      17.537  -0.762  -9.672  0.00  0.00    -0.082 Cl
ATOM     20 CL   UNL     1      17.737   0.824  -6.997  0.00  0.00    -0.082 Cl
ENDBRANCH  10  13
ENDBRANCH   7   9
ENDBRANCH   4   7
BRANCH   1  21
ATOM     21  S   UNL     1       6.156  -2.689  -5.618  0.00  0.00    -0.077 S 
BRANCH  21  22
ATOM     22  C   UNL     1       5.877  -2.135  -3.914  0.00  0.00    +0.173 C 
BRANCH  22  29
ATOM     23  C   UNL     1       0.707  -0.490  -1.238  0.00  0.00    +0.053 A 
ATOM     24  C   UNL     1       0.033  -0.724  -2.390  0.00  0.00    +0.011 A 
ATOM     25  S   UNL     1       1.365  -1.259  -3.453  0.00  0.00    -0.057 S 
ATOM     26  C   UNL     1       2.618  -1.130  -2.337  0.00  0.00    +0.165 A 
ATOM     27  N   UNL     1       2.010  -0.702  -1.252  0.00  0.00    -0.229 NA
ATOM     28  N   UNL     1       3.968  -1.406  -2.519  0.00  0.00    -0.264 N 
ATOM     29  C   UNL     1       4.413  -1.836  -3.716  0.00  0.00    +0.229 C 
ATOM     30  O   UNL     1       3.635  -1.983  -4.635  0.00  0.00    -0.275 OA
ATOM     31  C   UNL     1      -1.436  -0.574  -2.692  0.00  0.00    +0.053 C 
ATOM     32  H   UNL     1       4.591  -1.288  -1.784  0.00  0.00    +0.157 HD
BRANCH  23  34
ATOM     33  C   UNL     1      -0.019   1.526   0.010  0.00  0.00    +0.010 C 
ATOM     34  C   UNL     1       0.002  -0.004   0.002  0.00  0.00    +0.053 C 
ENDBRANCH  23  34
ENDBRANCH  22  29
ENDBRANCH  21  22
ENDBRANCH   1  21
TORSDOF 7
