REMARK  Name = ZINC55165285
REMARK  4 active torsions:
REMARK  status: ('A' for Active; 'I' for Inactive)
REMARK    1  A    between atoms: C_3  and  C_6
REMARK    2  A    between atoms: C_6  and  C_8
REMARK    3  A    between atoms: C_6  and  N_13
REMARK    4  A    between atoms: C_14  and  C_16
REMARK                            x       y       z     vdW  Elec       q    Type
REMARK                         _______ _______ _______ _____ _____    ______ ____
ROOT
ATOM      1  N   UNL     1       4.596   0.984  -0.865  0.00  0.00    -0.301 N 
ATOM      2  C   UNL     1       4.762   1.273  -2.171  0.00  0.00    +0.284 C 
ATOM      3  O   UNL     1       4.220   2.249  -2.651  0.00  0.00    -0.267 OA
ATOM      4  H   UNL     1       5.028   0.205  -0.482  0.00  0.00    +0.150 HD
ENDROOT
BRANCH   2   5
ATOM      5  C   UNL     1       5.604   0.403  -3.019  0.00  0.00    +0.238 A 
ATOM      6  N   UNL     1       5.851   0.588  -4.327  0.00  0.00    -0.190 NA
ATOM      7  C   UNL     1       6.636  -0.366  -4.768  0.00  0.00    +0.209 A 
ATOM      8  N   UNL     1       6.912  -1.195  -3.734  0.00  0.00    -0.246 N 
ATOM      9  H   UNL     1       7.468  -1.989  -3.760  0.00  0.00    +0.192 HD
ATOM     10  N   UNL     1       6.240  -0.675  -2.616  0.00  0.00    -0.146 NA
ATOM     11  N   UNL     1       7.100  -0.502  -6.063  0.00  0.00    -0.328 N 
ATOM     12  H   UNL     1       6.846   0.145  -6.740  0.00  0.00    +0.145 HD
ATOM     13  H   UNL     1       7.679  -1.245  -6.296  0.00  0.00    +0.145 HD
ENDBRANCH   2   5
BRANCH   1  14
ATOM     14  C   UNL     1       3.761   1.845  -0.024  0.00  0.00    +0.113 C 
BRANCH  14  17
ATOM     15  C   UNL     1      -0.026   1.505  -0.252  0.00  0.00    +0.008 A 
ATOM     16  C   UNL     1       1.198   2.142  -0.178  0.00  0.00    +0.013 A 
ATOM     17  C   UNL     1       2.326   1.394  -0.111  0.00  0.00    +0.010 A 
ATOM     18  S   UNL     1       1.670  -0.266  -0.153  0.00  0.00    -0.100 S 
ATOM     19  C   UNL     1      -0.063   0.150  -0.257  0.00  0.00    +0.045 A 
ENDBRANCH  14  17
BRANCH  14  20
ATOM     20  C   UNL     1       4.236   1.757   1.427  0.00  0.00    +0.014 C 
ATOM     21  C   UNL     1       5.698   2.254   1.550  0.00  0.00    +0.006 C 
ATOM     22  C   UNL     1       5.794   2.670   3.039  0.00  0.00    +0.000 C 
ATOM     23  C   UNL     1       4.422   3.306   3.343  0.00  0.00    +0.000 C 
ATOM     24  C   UNL     1       3.432   2.725   2.319  0.00  0.00    +0.006 C 
ENDBRANCH  14  20
ENDBRANCH   1  14
TORSDOF 4
