REMARK  Name = ZINC38561694
REMARK  8 active torsions:
REMARK  status: ('A' for Active; 'I' for Inactive)
REMARK    1  A    between atoms: C_3  and  S_6
REMARK    2  A    between atoms: S_6  and  N_9
REMARK    3  A    between atoms: C_14  and  C_16
REMARK    4  A    between atoms: C_16  and  C_17
REMARK    5  A    between atoms: C_17  and  N_18
REMARK    6  A    between atoms: C_19  and  C_21
REMARK    7  A    between atoms: C_21  and  O_22
REMARK    8  A    between atoms: O_22  and  C_23
REMARK                            x       y       z     vdW  Elec       q    Type
REMARK                         _______ _______ _______ _____ _____    ______ ____
ROOT
ATOM      1  C   UNL     1       4.890  -0.324   1.435  0.00  0.00    +0.039 C 
ENDROOT
BRANCH   1   7
ATOM      2  N   UNL     1       4.398   2.072   1.589  0.00  0.00    -0.173 NA
ATOM      3  C   UNL     1       4.276   3.356   2.294  0.00  0.00    +0.110 C 
ATOM      4  C   UNL     1       3.576   3.116   3.636  0.00  0.00    +0.017 C 
ATOM      5  C   UNL     1       4.333   2.040   4.417  0.00  0.00    +0.003 C 
ATOM      6  C   UNL     1       4.321   0.730   3.626  0.00  0.00    +0.021 C 
ATOM      7  C   UNL     1       5.024   0.940   2.286  0.00  0.00    +0.081 C 
BRANCH   2   8
ATOM      8  S   UNL     1       3.835   1.903   0.041  0.00  0.00    +0.067 S 
ATOM      9  O   UNL     1       4.700   0.981  -0.607  0.00  0.00    -0.152 OA
ATOM     10  O   UNL     1       3.611   3.215  -0.455  0.00  0.00    -0.152 OA
BRANCH   8  13
ATOM     11  C   UNL     1      -0.083   0.879   0.320  0.00  0.00    +0.010 A 
ATOM     12  C   UNL     1       1.032   1.695   0.257  0.00  0.00    +0.036 A 
ATOM     13  C   UNL     1       2.257   1.127   0.143  0.00  0.00    +0.143 A 
ATOM     14  S   UNL     1       1.856  -0.613   0.123  0.00  0.00    -0.077 S 
ATOM     15  C   UNL     1       0.083  -0.465   0.267  0.00  0.00    +0.047 A 
ENDBRANCH   8  13
ENDBRANCH   2   8
ENDBRANCH   1   7
BRANCH   1  16
ATOM     16  C   UNL     1       5.456  -1.519   2.204  0.00  0.00    +0.106 C 
BRANCH  16  17
ATOM     17  N   UNL     1       5.442  -2.705   1.344  0.00  0.00    -0.312 N 
ATOM     18  C   UNL     1       5.897  -3.883   1.813  0.00  0.00    +0.251 C 
ATOM     19  O   UNL     1       6.318  -3.963   2.948  0.00  0.00    -0.272 OA
ATOM     20  H   UNL     1       5.105  -2.641   0.436  0.00  0.00    +0.149 HD
BRANCH  18  21
ATOM     21  C   UNL     1       5.883  -5.103   0.928  0.00  0.00    +0.324 C 
BRANCH  21  22
ATOM     22  O   UNL     1       6.411  -6.219   1.647  0.00  0.00    -0.483 OA
BRANCH  22  23
ATOM     23  C   UNL     1       6.469  -7.406   0.987  0.00  0.00    +0.121 A 
ATOM     24  C   UNL     1       6.031  -7.493  -0.327  0.00  0.00    +0.047 A 
ATOM     25  C   UNL     1       6.091  -8.700  -0.996  0.00  0.00    +0.023 A 
ATOM     26  C   UNL     1       6.585  -9.823  -0.356  0.00  0.00    +0.041 A 
ATOM     27  C   UNL     1       7.022  -9.739   0.955  0.00  0.00    +0.023 A 
ATOM     28  C   UNL     1       6.970  -8.532   1.625  0.00  0.00    +0.047 A 
ATOM     29 CL   UNL     1       6.659 -11.339  -1.198  0.00  0.00    -0.084 Cl
ENDBRANCH  22  23
ENDBRANCH  21  22
ENDBRANCH  18  21
ENDBRANCH  16  17
ENDBRANCH   1  16
TORSDOF 8
