REMARK  Name = ZINC09471364
REMARK  17 active torsions:
REMARK  status: ('A' for Active; 'I' for Inactive)
REMARK    1  A    between atoms: C_1  and  C_2
REMARK    2  A    between atoms: C_2  and  C_3
REMARK    3  A    between atoms: C_3  and  O_4
REMARK    4  A    between atoms: O_4  and  C_5
REMARK    5  A    between atoms: C_9  and  C_11
REMARK    6  A    between atoms: C_13  and  C_26
REMARK    7  A    between atoms: C_14  and  O_25
REMARK    8  A    between atoms: N_17  and  C_18
REMARK    9  A    between atoms: C_18  and  C_19
REMARK   10  A    between atoms: C_19  and  C_20
REMARK   11  A    between atoms: C_20  and  N_75
REMARK   12  A    between atoms: C_21  and  C_22
REMARK   13  A    between atoms: C_21  and  N_75
REMARK   14  A    between atoms: C_23  and  C_24
REMARK   15  A    between atoms: C_23  and  N_75
REMARK   16  A    between atoms: C_26  and  C_28
REMARK   17  A    between atoms: C_35  and  C_38
REMARK                            x       y       z     vdW  Elec       q    Type
REMARK                         _______ _______ _______ _____ _____    ______ ____
ROOT
ATOM      1  C   UNL     1      -2.871   0.548   0.834  0.00  0.00    +0.145 C 
ATOM      2  C   UNL     1      -2.535   2.015   0.972  0.00  0.00    +0.071 C 
ATOM      3  C   UNL     1      -3.680   2.701   0.747  0.00  0.00    +0.188 C 
ATOM      4  C   UNL     1      -4.769   1.745   0.454  0.00  0.00    +0.282 C 
ATOM      5  O   UNL     1      -5.918   2.052   0.207  0.00  0.00    -0.267 OA
ATOM      6  N   UNL     1      -4.301   0.485   0.508  0.00  0.00    -0.284 N 
ENDROOT
BRANCH   1  11
ATOM      7  C   UNL     1      -0.251  -1.470  -0.992  0.00  0.00    +0.121 A 
ATOM      8  C   UNL     1      -0.567  -1.198  -2.316  0.00  0.00    +0.045 A 
ATOM      9  C   UNL     1      -1.626  -0.362  -2.613  0.00  0.00    +0.004 A 
ATOM     10  C   UNL     1      -2.374   0.198  -1.594  0.00  0.00    +0.006 A 
ATOM     11  C   UNL     1      -2.057  -0.068  -0.274  0.00  0.00    -0.019 A 
ATOM     12  C   UNL     1      -0.999  -0.903   0.029  0.00  0.00    +0.051 A 
BRANCH   7  13
ATOM     13  O   UNL     1       0.791  -2.292  -0.697  0.00  0.00    -0.492 OA
BRANCH  13  14
ATOM     14  C   UNL     1       1.517  -2.841  -1.799  0.00  0.00    +0.229 C 
BRANCH  14  16
ATOM     15  C   UNL     1       3.421  -4.321  -2.453  0.00  0.00    +0.007 C 
ATOM     16  C   UNL     1       2.643  -3.733  -1.274  0.00  0.00    +0.038 C 
ENDBRANCH  14  16
ENDBRANCH  13  14
ENDBRANCH   7  13
ENDBRANCH   1  11
BRANCH   3  17
ATOM     17  O   UNL     1      -3.806   4.048   0.781  0.00  0.00    -0.502 OA
ATOM     18  H   UNL     1      -4.753   4.298   0.580  0.00  0.00    +0.292 HD
ENDBRANCH   3  17
BRANCH   2  19
ATOM     19  C   UNL     1      -1.223   2.585   1.293  0.00  0.00    +0.195 C 
ATOM     20  O   UNL     1      -0.632   3.256   0.467  0.00  0.00    -0.287 OA
BRANCH  19  21
ATOM     21  C   UNL     1      -0.618   2.345   2.618  0.00  0.00    +0.023 A 
ATOM     22  C   UNL     1      -1.326   1.643   3.599  0.00  0.00    +0.015 A 
ATOM     23  C   UNL     1      -0.762   1.422   4.833  0.00  0.00    +0.046 A 
ATOM     24  C   UNL     1       0.523   1.887   5.117  0.00  0.00    +0.124 A 
ATOM     25  C   UNL     1       1.223   2.586   4.137  0.00  0.00    -0.002 A 
ATOM     26  C   UNL     1       0.669   2.813   2.901  0.00  0.00    +0.019 A 
ATOM     27  C   UNL     1       2.563   2.969   4.736  0.00  0.00    +0.083 C 
ATOM     28  C   UNL     1       2.312   2.744   6.246  0.00  0.00    +0.175 C 
ATOM     29  O   UNL     1       1.261   1.764   6.253  0.00  0.00    -0.488 OA
ATOM     30  C   UNL     1       1.850   4.039   6.917  0.00  0.00    +0.052 C 
ENDBRANCH  19  21
ENDBRANCH   2  19
BRANCH   6  31
ATOM     31  C   UNL     1      -5.080  -0.734   0.281  0.00  0.00    +0.107 C 
BRANCH  31  32
ATOM     32  C   UNL     1      -5.670  -1.217   1.607  0.00  0.00    +0.000 C 
BRANCH  32  33
ATOM     33  C   UNL     1      -6.483  -2.491   1.370  0.00  0.00    -0.077 C 
BRANCH  33  34
ATOM     34  N   UNL     1      -7.028  -2.956   2.663  0.00  0.00    +0.379 N 
ATOM     35  H   UNL     1      -6.263  -3.017   3.345  0.00  0.00    -0.082 HD
BRANCH  34  36
ATOM     36  C   UNL     1      -8.039  -1.998   3.159  0.00  0.00    -0.082 C 
ATOM     37  C   UNL     1      -9.195  -1.875   2.165  0.00  0.00    -0.017 C 
ENDBRANCH  34  36
BRANCH  34  38
ATOM     38  C   UNL     1      -7.636  -4.294   2.503  0.00  0.00    -0.082 C 
ATOM     39  C   UNL     1      -7.945  -4.864   3.889  0.00  0.00    -0.017 C 
ENDBRANCH  34  38
ENDBRANCH  33  34
ENDBRANCH  32  33
ENDBRANCH  31  32
ENDBRANCH   6  31
TORSDOF 13
