REMARK  Name = ZINC12244228
REMARK  15 active torsions:
REMARK  status: ('A' for Active; 'I' for Inactive)
REMARK    1  A    between atoms: C_1  and  C_2
REMARK    2  A    between atoms: C_2  and  C_3
REMARK    3  A    between atoms: C_2  and  C_4
REMARK    4  A    between atoms: C_4  and  C_5
REMARK    5  A    between atoms: C_5  and  C_7
REMARK    6  A    between atoms: C_5  and  N_26
REMARK    7  A    between atoms: C_16  and  C_17
REMARK    8  A    between atoms: C_16  and  N_75
REMARK    9  A    between atoms: C_20  and  C_23
REMARK   10  A    between atoms: C_23  and  C_24
REMARK   11  A    between atoms: C_23  and  C_25
REMARK   12  A    between atoms: C_27  and  C_29
REMARK   13  A    between atoms: C_32  and  C_34
REMARK   14  A    between atoms: C_34  and  O_35
REMARK   15  A    between atoms: O_35  and  C_36
REMARK                            x       y       z     vdW  Elec       q    Type
REMARK                         _______ _______ _______ _____ _____    ______ ____
ROOT
ATOM      1  C   UNL     1      -5.785   2.926   0.641  0.00  0.00    +0.154 A 
ATOM      2  N   UNL     1      -5.740   4.208   0.388  0.00  0.00    -0.132 NA
ATOM      3  N   UNL     1      -6.639   4.819   1.080  0.00  0.00    -0.134 NA
ATOM      4  C   UNL     1      -7.297   3.956   1.797  0.00  0.00    +0.132 A 
ATOM      5  N   UNL     1      -6.767   2.733   1.547  0.00  0.00    -0.315 N 
ATOM      6  C   UNL     1      -7.170   1.476   2.176  0.00  0.00    +0.106 C 
ATOM      7  C   UNL     1      -8.644   1.569   2.584  0.00  0.00    -0.056 C 
ATOM      8  C   UNL     1      -8.204   3.467   4.043  0.00  0.00    -0.071 C 
ATOM      9  C   UNL     1      -8.448   4.221   2.732  0.00  0.00    +0.058 C 
ATOM     10  N   UNL     1      -8.786   2.110   3.956  0.00  0.00    +0.384 N 
ATOM     11  H   UNL     1      -9.784   2.163   4.188  0.00  0.00    -0.081 HD
ENDROOT
BRANCH   1  12
ATOM     12  C   UNL     1      -4.909   1.862   0.031  0.00  0.00    +0.142 C 
BRANCH  12  13
ATOM     13  N   UNL     1      -3.517   2.318   0.028  0.00  0.00    -0.299 N 
ATOM     14  C   UNL     1      -2.513   1.419   0.019  0.00  0.00    +0.280 C 
ATOM     15  O   UNL     1      -2.763   0.228   0.013  0.00  0.00    -0.267 OA
ATOM     16  H   UNL     1      -3.317   3.268   0.033  0.00  0.00    +0.150 HD
BRANCH  14  17
ATOM     17  C   UNL     1      -1.119   1.876   0.017  0.00  0.00    +0.190 A 
ATOM     18  C   UNL     1      -0.013   1.076   0.008  0.00  0.00    +0.055 A 
ATOM     19  C   UNL     1       1.102   1.929   0.002  0.00  0.00    +0.048 A 
ATOM     20  C   UNL     1       0.633   3.196   0.013  0.00  0.00    +0.131 A 
ATOM     21  O   UNL     1      -0.706   3.160   0.026  0.00  0.00    -0.453 OA
BRANCH  20  22
ATOM     22  C   UNL     1       1.478   4.444   0.013  0.00  0.00    +0.233 C 
BRANCH  22  23
ATOM     23  O   UNL     1       1.732   4.846  -1.335  0.00  0.00    -0.375 OA
ATOM     24  C   UNL     1       2.529   6.027  -1.448  0.00  0.00    +0.194 C 
ENDBRANCH  22  23
ENDBRANCH  20  22
ENDBRANCH  14  17
ENDBRANCH  12  13
BRANCH  12  25
ATOM     25  C   UNL     1      -5.359   1.592  -1.406  0.00  0.00    +0.033 C 
BRANCH  25  27
ATOM     26  C   UNL     1      -4.879  -0.852  -1.210  0.00  0.00    +0.007 C 
ATOM     27  C   UNL     1      -4.553   0.428  -1.984  0.00  0.00    -0.015 C 
ATOM     28  C   UNL     1      -4.915   0.238  -3.458  0.00  0.00    +0.007 C 
ENDBRANCH  25  27
ENDBRANCH  12  25
ENDBRANCH   1  12
BRANCH  10  29
ATOM     29  C   UNL     1      -8.118   1.215   4.919  0.00  0.00    -0.043 C 
BRANCH  29  30
ATOM     30  C   UNL     1      -8.490   1.649   6.314  0.00  0.00    -0.064 A 
ATOM     31  C   UNL     1      -7.697   2.558   6.989  0.00  0.00    +0.002 A 
ATOM     32  C   UNL     1      -8.040   2.959   8.267  0.00  0.00    +0.004 A 
ATOM     33  C   UNL     1      -9.171   2.445   8.872  0.00  0.00    -0.045 A 
ATOM     34  C   UNL     1      -9.962   1.532   8.199  0.00  0.00    +0.004 A 
ATOM     35  C   UNL     1      -9.621   1.134   6.919  0.00  0.00    +0.002 A 
BRANCH  33  36
ATOM     36  C   UNL     1      -9.543   2.879  10.266  0.00  0.00    +0.013 C 
ATOM     37  C   UNL     1      -8.412   2.519  11.232  0.00  0.00    +0.012 C 
ATOM     38  C   UNL     1      -9.769   4.392  10.286  0.00  0.00    +0.012 C 
ENDBRANCH  33  36
ENDBRANCH  29  30
ENDBRANCH  10  29
TORSDOF 10
