REMARK  Name = ZINC11513658
REMARK  10 active torsions:
REMARK  status: ('A' for Active; 'I' for Inactive)
REMARK    1  A    between atoms: C_1  and  C_2
REMARK    2  A    between atoms: C_2  and  C_3
REMARK    3  A    between atoms: C_3  and  C_4
REMARK    4  A    between atoms: C_4  and  N_5
REMARK    5  A    between atoms: C_9  and  C_32
REMARK    6  A    between atoms: C_10  and  C_31
REMARK    7  A    between atoms: C_14  and  S_15
REMARK    8  A    between atoms: S_15  and  C_16
REMARK    9  A    between atoms: C_16  and  C_17
REMARK   10  A    between atoms: N_19  and  C_20
REMARK                            x       y       z     vdW  Elec       q    Type
REMARK                         _______ _______ _______ _____ _____    ______ ____
ROOT
ATOM      1  S   UNL     1       1.390   3.399   2.259  0.00  0.00    -0.078 S 
ENDROOT
BRANCH   1  11
ATOM      2  N   UNL     1      -0.029   1.100   2.462  0.00  0.00    -0.287 N 
ATOM      3  C   UNL     1      -0.383  -0.079   3.006  0.00  0.00    +0.263 A 
ATOM      4  O   UNL     1      -1.279  -0.742   2.513  0.00  0.00    -0.267 OA
ATOM      5  C   UNL     1       0.310  -0.546   4.167  0.00  0.00    +0.075 A 
ATOM      6  C   UNL     1       0.116  -1.772   4.923  0.00  0.00    -0.026 A 
ATOM      7  C   UNL     1       0.884  -2.008   5.996  0.00  0.00    -0.008 A 
ATOM      8  S   UNL     1       1.943  -0.576   6.071  0.00  0.00    -0.073 S 
ATOM      9  C   UNL     1       1.323   0.299   4.658  0.00  0.00    +0.117 A 
ATOM     10  N   UNL     1       1.619   1.455   4.075  0.00  0.00    -0.216 NA
ATOM     11  C   UNL     1       0.968   1.858   3.003  0.00  0.00    +0.173 A 
ATOM     12  C   UNL     1       0.859  -3.200   6.919  0.00  0.00    +0.052 C 
ATOM     13  C   UNL     1      -0.938  -2.766   4.506  0.00  0.00    +0.045 C 
BRANCH   2  14
ATOM     14  C   UNL     1      -0.731   1.580   1.270  0.00  0.00    +0.127 C 
BRANCH  14  15
ATOM     15  C   UNL     1      -0.011   1.078   0.016  0.00  0.00    +0.021 C 
BRANCH  15  17
ATOM     16  C   UNL     1      -0.025   1.078  -2.482  0.00  0.00    +0.004 C 
ATOM     17  C   UNL     1      -0.745   1.580  -1.229  0.00  0.00    -0.002 C 
ENDBRANCH  15  17
ENDBRANCH  14  15
ENDBRANCH   2  14
ENDBRANCH   1  11
BRANCH   1  18
ATOM     18  C   UNL     1       2.720   3.929   3.366  0.00  0.00    +0.173 C 
BRANCH  18  19
ATOM     19  C   UNL     1       3.251   5.264   2.910  0.00  0.00    +0.227 C 
ATOM     20  O   UNL     1       2.776   5.804   1.933  0.00  0.00    -0.275 OA
ATOM     21  N   UNL     1       4.253   5.858   3.588  0.00  0.00    -0.285 N 
ATOM     22  H   UNL     1       4.587   5.460   4.407  0.00  0.00    +0.155 HD
BRANCH  21  23
ATOM     23  C   UNL     1       4.811   7.051   3.110  0.00  0.00    +0.037 A 
ATOM     24  C   UNL     1       6.167   7.298   3.280  0.00  0.00    +0.027 A 
ATOM     25  C   UNL     1       6.723   8.472   2.805  0.00  0.00    +0.051 A 
ATOM     26  C   UNL     1       5.922   9.405   2.169  0.00  0.00    +0.162 A 
ATOM     27  C   UNL     1       4.565   9.163   2.003  0.00  0.00    +0.164 A 
ATOM     28  C   UNL     1       4.007   7.987   2.473  0.00  0.00    +0.072 A 
ATOM     29  O   UNL     1       3.787  10.090   1.373  0.00  0.00    -0.488 OA
ATOM     30  C   UNL     1       3.588  11.319   2.075  0.00  0.00    +0.232 C 
ATOM     31  C   UNL     1       4.740  12.278   1.821  0.00  0.00    +0.082 C 
ATOM     32  C   UNL     1       6.057  11.761   2.378  0.00  0.00    +0.232 C 
ATOM     33  O   UNL     1       6.461  10.569   1.701  0.00  0.00    -0.488 OA
ENDBRANCH  21  23
ENDBRANCH  18  19
ENDBRANCH   1  18
TORSDOF 7
