REMARK  Name = ZINC04309129
REMARK  8 active torsions:
REMARK  status: ('A' for Active; 'I' for Inactive)
REMARK    1  A    between atoms: C_1  and  C_2
REMARK    2  A    between atoms: C_2  and  N_3
REMARK    3  A    between atoms: C_4  and  C_24
REMARK    4  A    between atoms: C_7  and  S_8
REMARK    5  A    between atoms: S_8  and  C_9
REMARK    6  A    between atoms: C_9  and  C_10
REMARK    7  A    between atoms: C_10  and  C_12
REMARK    8  A    between atoms: C_12  and  C_22
REMARK                            x       y       z     vdW  Elec       q    Type
REMARK                         _______ _______ _______ _____ _____    ______ ____
ROOT
ATOM      1  C   UNL     1       3.730  10.699  -0.195  0.00  0.00    +0.187 C 
ATOM      2  O   UNL     1       4.875  10.448  -0.519  0.00  0.00    -0.290 OA
ENDROOT
BRANCH   1   3
ATOM      3  C   UNL     1       3.340  12.030   0.033  0.00  0.00    +0.131 C 
ATOM      4  C   UNL     1       4.274  13.071  -0.114  0.00  0.00    +0.114 C 
ATOM      5  N   UNL     1       5.577  12.916  -0.464  0.00  0.00    -0.300 N 
ATOM      6  C   UNL     1       6.170  14.172  -0.506  0.00  0.00    +0.054 A 
ATOM      7  C   UNL     1       7.456  14.604  -0.801  0.00  0.00    +0.025 A 
ATOM      8  C   UNL     1       7.757  15.950  -0.753  0.00  0.00    +0.002 A 
ATOM      9  C   UNL     1       6.782  16.873  -0.411  0.00  0.00    +0.002 A 
ATOM     10  C   UNL     1       5.501  16.454  -0.115  0.00  0.00    +0.025 A 
ATOM     11  C   UNL     1       5.187  15.102  -0.161  0.00  0.00    +0.054 A 
ATOM     12  N   UNL     1       4.017  14.391   0.078  0.00  0.00    -0.300 N 
ATOM     13  H   UNL     1       6.018  12.073  -0.654  0.00  0.00    +0.153 HD
ATOM     14  H   UNL     1       3.163  14.772   0.337  0.00  0.00    +0.153 HD
BRANCH   3  15
ATOM     15  C   UNL     1       1.992  12.325   0.414  0.00  0.00    +0.106 C 
ATOM     16  N   UNL     1       0.922  12.560   0.716  0.00  0.00    -0.191 NA
ENDBRANCH   3  15
ENDBRANCH   1   3
BRANCH   1  17
ATOM     17  C   UNL     1       2.730   9.583  -0.038  0.00  0.00    +0.157 C 
BRANCH  17  18
ATOM     18  S   UNL     1       3.530   8.000  -0.397  0.00  0.00    -0.078 S 
BRANCH  18  23
ATOM     19  N   UNL     1       2.193   5.545  -0.272  0.00  0.00    -0.302 N 
ATOM     20  C   UNL     1       0.914   5.126   0.019  0.00  0.00    +0.171 A 
ATOM     21  N   UNL     1       0.212   6.201   0.304  0.00  0.00    -0.128 NA
ATOM     22  N   UNL     1       0.953   7.247   0.208  0.00  0.00    -0.122 NA
ATOM     23  C   UNL     1       2.172   6.906  -0.144  0.00  0.00    +0.192 A 
BRANCH  20  24
ATOM     24  C   UNL     1       0.426   3.737   0.017  0.00  0.00    +0.056 A 
ATOM     25  C   UNL     1      -0.866   3.275   0.026  0.00  0.00    +0.019 A 
ATOM     26  C   UNL     1      -1.081   1.915   0.017  0.00  0.00    +0.008 A 
ATOM     27  C   UNL     1      -0.013   1.076   0.008  0.00  0.00    +0.046 A 
ATOM     28  S   UNL     1       1.361   2.216   0.001  0.00  0.00    -0.094 S 
ENDBRANCH  20  24
BRANCH  19  30
ATOM     29  C   UNL     1       3.376   4.544  -2.164  0.00  0.00    +0.027 C 
ATOM     30  C   UNL     1       3.337   4.708  -0.643  0.00  0.00    +0.122 C 
ENDBRANCH  19  30
ENDBRANCH  18  23
ENDBRANCH  17  18
ENDBRANCH   1  17
TORSDOF 7
