REMARK  Name = ZINC12325049
REMARK  7 active torsions:
REMARK  status: ('A' for Active; 'I' for Inactive)
REMARK    1  A    between atoms: C_4  and  C_7
REMARK    2  A    between atoms: C_12  and  N_27
REMARK    3  A    between atoms: C_14  and  S_16
REMARK    4  A    between atoms: S_16  and  C_17
REMARK    5  A    between atoms: C_17  and  C_18
REMARK    6  A    between atoms: N_20  and  C_21
REMARK    7  A    between atoms: C_21  and  C_22
REMARK                            x       y       z     vdW  Elec       q    Type
REMARK                         _______ _______ _______ _____ _____    ______ ____
ROOT
ATOM      1  C   UNL     1      -0.140  -4.203   0.392  0.00  0.00    +0.002 A 
ATOM      2  C   UNL     1      -1.393  -4.706   0.316  0.00  0.00    +0.056 A 
ATOM      3  S   UNL     1      -2.426  -3.254   0.314  0.00  0.00    -0.076 S 
ATOM      4  C   UNL     1      -1.165  -2.012   0.415  0.00  0.00    +0.115 A 
ATOM      5  C   UNL     1       0.033  -2.754   0.448  0.00  0.00    +0.055 A 
ATOM      6  C   UNL     1       1.227  -1.988   0.529  0.00  0.00    +0.129 A 
ATOM      7  N   UNL     1       1.150  -0.668   0.568  0.00  0.00    -0.207 NA
ATOM      8  C   UNL     1      -0.014  -0.030   0.534  0.00  0.00    +0.191 A 
ATOM      9  N   UNL     1      -1.160  -0.693   0.463  0.00  0.00    -0.214 NA
ENDROOT
BRANCH   1  13
ATOM     10  C   UNL     1       3.232  -6.790   0.467  0.00  0.00    +0.000 A 
ATOM     11  C   UNL     1       2.245  -6.917   1.428  0.00  0.00    +0.001 A 
ATOM     12  C   UNL     1       1.148  -6.080   1.409  0.00  0.00    +0.008 A 
ATOM     13  C   UNL     1       1.036  -5.105   0.418  0.00  0.00    -0.017 A 
ATOM     14  C   UNL     1       2.031  -4.986  -0.551  0.00  0.00    +0.008 A 
ATOM     15  C   UNL     1       3.127  -5.824  -0.518  0.00  0.00    +0.001 A 
ENDBRANCH   1  13
BRANCH   6  16
ATOM     16  N   UNL     1       2.459  -2.616   0.568  0.00  0.00    -0.343 N 
ATOM     17  H   UNL     1       2.531  -3.522   0.907  0.00  0.00    +0.144 HD
ATOM     18  H   UNL     1       3.251  -2.151   0.255  0.00  0.00    +0.144 HD
ENDBRANCH   6  16
BRANCH   8  19
ATOM     19  S   UNL     1      -0.036   1.731   0.590  0.00  0.00    -0.077 S 
BRANCH  19  20
ATOM     20  C   UNL     1       1.740   2.065   0.686  0.00  0.00    +0.173 C 
BRANCH  20  21
ATOM     21  C   UNL     1       1.969   3.554   0.746  0.00  0.00    +0.224 C 
ATOM     22  O   UNL     1       1.025   4.314   0.726  0.00  0.00    -0.275 OA
ATOM     23  N   UNL     1       3.224   4.040   0.821  0.00  0.00    -0.308 N 
ATOM     24  H   UNL     1       3.980   3.432   0.837  0.00  0.00    +0.149 HD
BRANCH  23  25
ATOM     25  C   UNL     1       3.447   5.487   0.879  0.00  0.00    +0.178 C 
BRANCH  25  26
ATOM     26  C   UNL     1       4.926   5.764   0.959  0.00  0.00    +0.122 A 
ATOM     27  C   UNL     1       5.750   5.945  -0.089  0.00  0.00    +0.046 A 
ATOM     28  C   UNL     1       7.040   6.177   0.440  0.00  0.00    +0.041 A 
ATOM     29  C   UNL     1       6.928   6.124   1.779  0.00  0.00    +0.195 A 
ATOM     30  O   UNL     1       5.644   5.880   2.088  0.00  0.00    -0.466 OA
ENDBRANCH  25  26
ENDBRANCH  23  25
ENDBRANCH  20  21
ENDBRANCH  19  20
ENDBRANCH   8  19
TORSDOF 7
