REMARK  Name = ZINC38732099
REMARK  5 active torsions:
REMARK  status: ('A' for Active; 'I' for Inactive)
REMARK    1  A    between atoms: C_7  and  C_10
REMARK    2  A    between atoms: C_10  and  C_11
REMARK    3  A    between atoms: C_11  and  N_12
REMARK    4  A    between atoms: C_13  and  C_15
REMARK    5  A    between atoms: C_21  and  C_23
REMARK                            x       y       z     vdW  Elec       q    Type
REMARK                         _______ _______ _______ _____ _____    ______ ____
ROOT
ATOM      1  C   UNL     1      -5.698   7.137  -2.506  0.00  0.00    +0.087 C 
ATOM      2  C   UNL     1      -4.783   8.048  -1.684  0.00  0.00    +0.013 C 
ATOM      3  C   UNL     1      -5.345   9.471  -1.687  0.00  0.00    +0.001 C 
ATOM      4  C   UNL     1      -5.420   9.987  -3.125  0.00  0.00    +0.001 C 
ATOM      5  C   UNL     1      -6.335   9.077  -3.946  0.00  0.00    +0.013 C 
ATOM      6  C   UNL     1      -5.773   7.654  -3.944  0.00  0.00    +0.087 C 
ENDROOT
BRANCH   6   7
ATOM      7  C   UNL     1      -6.674   6.757  -4.753  0.00  0.00    +0.219 C 
ATOM      8  O   UNL     1      -7.530   6.099  -4.201  0.00  0.00    -0.275 OA
ATOM      9  N   UNL     1      -6.530   6.687  -6.092  0.00  0.00    -0.298 N 
ATOM     10  C   UNL     1      -5.431   7.395  -6.763  0.00  0.00    +0.126 C 
ATOM     11  C   UNL     1      -4.630   6.384  -7.593  0.00  0.00    +0.125 C 
ATOM     12  N   UNL     1      -5.568   5.597  -8.406  0.00  0.00    -0.314 N 
ATOM     13  C   UNL     1      -6.666   4.888  -7.734  0.00  0.00    +0.125 C 
ATOM     14  C   UNL     1      -7.464   5.895  -6.904  0.00  0.00    +0.126 C 
ATOM     15  C   UNL     1      -5.418   5.524  -9.786  0.00  0.00    +0.099 A 
ATOM     16  C   UNL     1      -4.298   6.087 -10.389  0.00  0.00    +0.042 A 
ATOM     17  C   UNL     1      -4.162   6.008 -11.763  0.00  0.00    +0.005 A 
ATOM     18  C   UNL     1      -5.155   5.365 -12.491  0.00  0.00    +0.018 A 
ATOM     19  C   UNL     1      -6.240   4.829 -11.828  0.00  0.00    +0.084 A 
ATOM     20  N   UNL     1      -6.341   4.915 -10.515  0.00  0.00    -0.350 N 
ATOM     21  H   UNL     1      -7.112   4.526 -10.073  0.00  0.00    +0.166 HD
ENDBRANCH   6   7
BRANCH   1  23
ATOM     22  N   UNL     1      -4.989   5.075  -1.340  0.00  0.00    -0.315 N 
ATOM     23  C   UNL     1      -5.145   5.736  -2.504  0.00  0.00    +0.217 C 
ATOM     24  O   UNL     1      -4.841   5.202  -3.550  0.00  0.00    -0.275 OA
ATOM     25  H   UNL     1      -5.232   5.501  -0.503  0.00  0.00    +0.149 HD
BRANCH  22  26
ATOM     26  C   UNL     1      -4.451   3.712  -1.337  0.00  0.00    +0.109 C 
BRANCH  26  27
ATOM     27  C   UNL     1      -4.376   3.196   0.101  0.00  0.00    +0.056 C 
BRANCH  27  34
ATOM     28  C   UNL     1      -0.019   1.466   0.090  0.00  0.00    +0.001 A 
ATOM     29  C   UNL     1       0.013   0.079   0.094  0.00  0.00    +0.002 A 
ATOM     30  C   UNL     1      -1.157  -0.650   0.100  0.00  0.00    +0.026 A 
ATOM     31  C   UNL     1      -2.382   0.008   0.103  0.00  0.00    +0.047 A 
ATOM     32  N   UNL     1      -3.689  -0.422   0.108  0.00  0.00    -0.360 N 
ATOM     33  C   UNL     1      -4.534   0.655   0.108  0.00  0.00    +0.087 A 
ATOM     34  C   UNL     1      -3.823   1.794   0.103  0.00  0.00    -0.021 A 
ATOM     35  C   UNL     1      -2.408   1.415   0.099  0.00  0.00    +0.003 A 
ATOM     36  C   UNL     1      -1.211   2.134   0.098  0.00  0.00    +0.010 A 
ATOM     37  H   UNL     1      -3.971  -1.350   0.111  0.00  0.00    +0.165 HD
ENDBRANCH  27  34
ENDBRANCH  26  27
ENDBRANCH  22  26
ENDBRANCH   1  23
TORSDOF 5
