REMARK  Name = ZINC39675424
REMARK  14 active torsions:
REMARK  status: ('A' for Active; 'I' for Inactive)
REMARK    1  A    between atoms: C_1  and  C_2
REMARK    2  A    between atoms: C_2  and  C_3
REMARK    3  A    between atoms: C_3  and  C_4
REMARK    4  A    between atoms: C_4  and  C_5
REMARK    5  A    between atoms: C_5  and  C_7
REMARK    6  A    between atoms: C_5  and  C_8
REMARK    7  A    between atoms: C_12  and  C_21
REMARK    8  A    between atoms: N_23  and  C_24
REMARK    9  A    between atoms: C_24  and  C_26
REMARK   10  A    between atoms: C_24  and  C_27
REMARK   11  A    between atoms: C_27  and  C_28
REMARK   12  A    between atoms: C_28  and  C_29
REMARK   13  A    between atoms: C_32  and  O_35
REMARK   14  A    between atoms: O_35  and  C_36
REMARK                            x       y       z     vdW  Elec       q    Type
REMARK                         _______ _______ _______ _____ _____    ______ ____
ROOT
ATOM      1  C   UNL     1      -2.783  -3.978   0.460  0.00  0.00    +0.218 C 
ATOM      2  O   UNL     1      -1.779  -4.612   0.709  0.00  0.00    -0.275 OA
ATOM      3  N   UNL     1      -3.955  -4.617   0.277  0.00  0.00    -0.300 N 
ATOM      4  C   UNL     1      -5.251  -4.035  -0.144  0.00  0.00    +0.121 C 
ATOM      5  C   UNL     1      -5.856  -5.083  -1.105  0.00  0.00    +0.100 C 
ATOM      6  C   UNL     1      -5.190  -6.410  -0.708  0.00  0.00    -0.004 C 
ATOM      7  C   UNL     1      -4.239  -6.062   0.446  0.00  0.00    +0.115 C 
ATOM      8  C   UNL     1      -4.400  -6.978  -1.883  0.00  0.00    -0.010 C 
ATOM      9  C   UNL     1      -3.794  -8.326  -1.481  0.00  0.00    -0.082 C 
ATOM     10  N   UNL     1      -4.867  -9.250  -1.094  0.00  0.00    +0.379 N 
ATOM     11  C   UNL     1      -5.563  -8.742   0.094  0.00  0.00    -0.082 C 
ATOM     12  C   UNL     1      -6.243  -7.411  -0.242  0.00  0.00    -0.010 C 
ATOM     13  H   UNL     1      -5.523  -9.339  -1.855  0.00  0.00    -0.086 HD
ATOM     14  H   UNL     1      -4.471 -10.155  -0.889  0.00  0.00    -0.086 HD
ENDROOT
BRANCH   5  15
ATOM     15  C   UNL     1      -5.527  -4.736  -2.534  0.00  0.00    +0.218 C 
ATOM     16  O   UNL     1      -4.541  -4.077  -2.787  0.00  0.00    -0.275 OA
ATOM     17  N   UNL     1      -6.330  -5.156  -3.532  0.00  0.00    -0.312 N 
ATOM     18  H   UNL     1      -7.120  -5.683  -3.330  0.00  0.00    +0.149 HD
BRANCH  17  19
ATOM     19  C   UNL     1      -6.011  -4.819  -4.921  0.00  0.00    +0.070 C 
ATOM     20  C   UNL     1      -5.023  -5.845  -5.481  0.00  0.00    +0.028 C 
BRANCH  19  21
ATOM     21  C   UNL     1      -7.292  -4.835  -5.758  0.00  0.00    +0.026 C 
BRANCH  21  22
ATOM     22  C   UNL     1      -8.229  -3.726  -5.277  0.00  0.00    +0.037 C 
BRANCH  22  23
ATOM     23  C   UNL     1      -9.491  -3.742  -6.101  0.00  0.00    -0.047 A 
ATOM     24  C   UNL     1      -9.567  -2.994  -7.261  0.00  0.00    +0.007 A 
ATOM     25  C   UNL     1     -10.723  -3.007  -8.018  0.00  0.00    +0.046 A 
ATOM     26  C   UNL     1     -11.807  -3.772  -7.613  0.00  0.00    +0.120 A 
ATOM     27  C   UNL     1     -11.728  -4.522  -6.448  0.00  0.00    +0.046 A 
ATOM     28  C   UNL     1     -10.568  -4.509  -5.698  0.00  0.00    +0.007 A 
BRANCH  26  29
ATOM     29  O   UNL     1     -12.946  -3.786  -8.355  0.00  0.00    -0.495 OA
ATOM     30  C   UNL     1     -14.022  -4.595  -7.878  0.00  0.00    +0.277 C 
ENDBRANCH  26  29
ENDBRANCH  22  23
ENDBRANCH  21  22
ENDBRANCH  19  21
ENDBRANCH  17  19
ENDBRANCH   5  15
BRANCH   1  31
ATOM     31  C   UNL     1      -2.719  -2.476   0.353  0.00  0.00    +0.072 C 
ATOM     32  C   UNL     1      -1.373  -2.064  -0.247  0.00  0.00    +0.017 C 
BRANCH  31  33
ATOM     33  C   UNL     1      -2.866  -1.860   1.746  0.00  0.00    +0.012 C 
BRANCH  33  34
ATOM     34  C   UNL     1      -2.926  -0.336   1.625  0.00  0.00    +0.000 C 
BRANCH  34  36
ATOM     35  C   UNL     1      -3.134   1.805   2.897  0.00  0.00    +0.004 C 
ATOM     36  C   UNL     1      -3.074   0.281   3.017  0.00  0.00    -0.003 C 
ENDBRANCH  34  36
ENDBRANCH  33  34
ENDBRANCH  31  33
ENDBRANCH   1  31
TORSDOF 10
