REMARK  Name = ZINC40021186
REMARK  8 active torsions:
REMARK  status: ('A' for Active; 'I' for Inactive)
REMARK    1  A    between atoms: C_1  and  C_2
REMARK    2  A    between atoms: C_2  and  C_3
REMARK    3  A    between atoms: C_3  and  C_4
REMARK    4  A    between atoms: C_4  and  N_5
REMARK    5  A    between atoms: C_6  and  C_22
REMARK    6  A    between atoms: C_25  and  C_28
REMARK    7  A    between atoms: C_28  and  O_30
REMARK    8  A    between atoms: O_30  and  C_31
REMARK                            x       y       z     vdW  Elec       q    Type
REMARK                         _______ _______ _______ _____ _____    ______ ____
ROOT
ATOM      1  N   UNL     1      -2.787  -2.571   0.015  0.00  0.00    -0.284 N 
ATOM      2  C   UNL     1      -3.589  -2.871   1.212  0.00  0.00    +0.144 C 
ATOM      3  C   UNL     1      -4.907  -3.358   0.708  0.00  0.00    +0.072 A 
ATOM      4  C   UNL     1      -6.106  -3.814   1.419  0.00  0.00    +0.199 A 
ATOM      5  O   UNL     1      -6.253  -3.694   2.623  0.00  0.00    -0.287 OA
ATOM      6  C   UNL     1      -7.122  -4.436   0.534  0.00  0.00    +0.067 A 
ATOM      7  C   UNL     1      -8.224  -5.096   1.079  0.00  0.00    +0.053 A 
ATOM      8  C   UNL     1      -9.155  -5.673   0.241  0.00  0.00    +0.124 A 
ATOM      9  C   UNL     1      -8.994  -5.595  -1.137  0.00  0.00    +0.042 A 
ATOM     10  C   UNL     1      -7.912  -4.945  -1.685  0.00  0.00    +0.050 A 
ATOM     11  C   UNL     1      -6.957  -4.351  -0.858  0.00  0.00    +0.140 A 
ATOM     12  O   UNL     1      -5.909  -3.710  -1.424  0.00  0.00    -0.450 OA
ATOM     13  C   UNL     1      -4.866  -3.334  -0.658  0.00  0.00    +0.199 A 
ATOM     14  C   UNL     1      -3.541  -2.838  -1.071  0.00  0.00    +0.283 C 
ATOM     15  O   UNL     1      -3.179  -2.695  -2.222  0.00  0.00    -0.267 OA
ATOM     16  F   UNL     1     -10.225  -6.313   0.761  0.00  0.00    -0.205 F 
ENDROOT
BRANCH   2  17
ATOM     17  C   UNL     1      -2.917  -3.941   2.033  0.00  0.00    -0.022 A 
ATOM     18  C   UNL     1      -2.304  -5.009   1.403  0.00  0.00    +0.006 A 
ATOM     19  C   UNL     1      -1.687  -5.992   2.148  0.00  0.00    +0.015 A 
ATOM     20  C   UNL     1      -1.682  -5.907   3.542  0.00  0.00    +0.059 A 
ATOM     21  C   UNL     1      -2.302  -4.827   4.172  0.00  0.00    +0.015 A 
ATOM     22  C   UNL     1      -2.911  -3.848   3.414  0.00  0.00    +0.006 A 
BRANCH  20  23
ATOM     23  C   UNL     1      -1.024  -6.957   4.347  0.00  0.00    +0.339 C 
ATOM     24  O   UNL     1      -0.485  -7.896   3.796  0.00  0.00    -0.245 OA
BRANCH  23  25
ATOM     25  O   UNL     1      -1.020  -6.872   5.691  0.00  0.00    -0.464 OA
ATOM     26  C   UNL     1      -0.365  -7.922   6.406  0.00  0.00    +0.280 C 
ENDBRANCH  23  25
ENDBRANCH  20  23
ENDBRANCH   2  17
BRANCH   1  27
ATOM     27  C   UNL     1      -1.413  -2.063   0.004  0.00  0.00    +0.109 C 
BRANCH  27  28
ATOM     28  C   UNL     1      -1.433  -0.534   0.013  0.00  0.00    +0.019 C 
BRANCH  28  30
ATOM     29  C   UNL     1      -0.019   1.526   0.010  0.00  0.00    +0.004 C 
ATOM     30  C   UNL     1       0.002  -0.004   0.002  0.00  0.00    -0.002 C 
ENDBRANCH  28  30
ENDBRANCH  27  28
ENDBRANCH   1  27
TORSDOF 6
