REMARK  Name = ZINC01883428
REMARK  2 active torsions:
REMARK  status: ('A' for Active; 'I' for Inactive)
REMARK    1  A    between atoms: C_9  and  C_10
REMARK    2  A    between atoms: C_9  and  N_15
REMARK                            x       y       z     vdW  Elec       q    Type
REMARK                         _______ _______ _______ _____ _____    ______ ____
ROOT
ATOM      1  C   UNL     1       0.740   2.038  -0.738  0.00  0.00    +0.002 A 
ATOM      2  C   UNL     1       2.018   2.557  -0.911  0.00  0.00    +0.002 A 
ATOM      3  C   UNL     1       3.113   1.740  -0.867  0.00  0.00    +0.025 A 
ATOM      4  C   UNL     1       2.949   0.374  -0.646  0.00  0.00    +0.054 A 
ATOM      5  C   UNL     1       1.655  -0.151  -0.471  0.00  0.00    +0.054 A 
ATOM      6  C   UNL     1       0.555   0.702  -0.520  0.00  0.00    +0.025 A 
ATOM      7  N   UNL     1       1.802  -1.502  -0.275  0.00  0.00    -0.299 N 
ATOM      8  C   UNL     1       3.108  -1.798  -0.326  0.00  0.00    +0.125 C 
ATOM      9  C   UNL     1       3.677  -3.145  -0.163  0.00  0.00    +0.182 C 
ATOM     10  N   UNL     1       3.820  -0.684  -0.549  0.00  0.00    -0.299 N 
ATOM     11  H   UNL     1       1.082  -2.135  -0.125  0.00  0.00    +0.153 HD
ATOM     12  H   UNL     1       4.785  -0.633  -0.628  0.00  0.00    +0.153 HD
ENDROOT
BRANCH   9  13
ATOM     13  C   UNL     1       5.042  -3.326  -0.201  0.00  0.00    +0.099 C 
ATOM     14  C   UNL     1       5.845  -2.775   0.794  0.00  0.00    +0.104 C 
ATOM     15 CL   UNL     1       7.574  -2.866   0.663  0.00  0.00    -0.074 Cl
ATOM     16 BR   UNL     1       5.054  -1.927   2.287  0.00  0.00    -0.036 Br
ATOM     17 CL   UNL     1       5.760  -4.241  -1.490  0.00  0.00    -0.079 Cl
ENDBRANCH   9  13
BRANCH   9  18
ATOM     18  N   UNL     1       2.782  -4.307   0.043  0.00  0.00    +0.061 N 
ATOM     19  O   UNL     1       1.477  -4.156  -0.047  0.00  0.00    -0.126 OA
ATOM     20  O   UNL     1       3.292  -5.490   0.316  0.00  0.00    -0.126 OA
ENDBRANCH   9  18
TORSDOF 2
