REMARK  Name = ZINC64066644
REMARK  7 active torsions:
REMARK  status: ('A' for Active; 'I' for Inactive)
REMARK    1  A    between atoms: C_1  and  O_2
REMARK    2  A    between atoms: O_2  and  C_3
REMARK    3  A    between atoms: C_5  and  N_30
REMARK    4  A    between atoms: N_16  and  C_19
REMARK    5  A    between atoms: C_19  and  C_20
REMARK    6  A    between atoms: C_31  and  C_33
REMARK    7  A    between atoms: C_33  and  C_34
REMARK                            x       y       z     vdW  Elec       q    Type
REMARK                         _______ _______ _______ _____ _____    ______ ____
ROOT
ATOM      1  C   UNL     1      -1.295  -0.603   0.011  0.00  0.00    +0.153 C 
ATOM      2  C   UNL     1      -1.764  -0.920  -1.426  0.00  0.00    +0.133 C 
ATOM      3  C   UNL     1      -1.322  -2.346  -1.681  0.00  0.00    -0.021 A 
ATOM      4  C   UNL     1      -1.189  -3.044  -2.869  0.00  0.00    +0.006 A 
ATOM      5  C   UNL     1      -0.764  -4.358  -2.860  0.00  0.00    +0.000 A 
ATOM      6  C   UNL     1      -0.471  -4.980  -1.661  0.00  0.00    +0.000 A 
ATOM      7  C   UNL     1      -0.603  -4.285  -0.474  0.00  0.00    +0.004 A 
ATOM      8  C   UNL     1      -1.028  -2.967  -0.481  0.00  0.00    -0.034 A 
ATOM      9  C   UNL     1      -1.250  -1.997   0.662  0.00  0.00    +0.021 C 
ATOM     10  C   UNL     1      -2.575  -2.290   1.361  0.00  0.00    -0.005 C 
ATOM     11  C   UNL     1      -2.752  -1.323   2.535  0.00  0.00    -0.078 C 
ATOM     12  N   UNL     1      -1.636  -1.482   3.475  0.00  0.00    +0.381 N 
ATOM     13  C   UNL     1      -0.374  -1.112   2.822  0.00  0.00    -0.078 C 
ATOM     14  C   UNL     1      -0.098  -2.071   1.661  0.00  0.00    -0.005 C 
ATOM     15  H   UNL     1      -1.587  -2.443   3.778  0.00  0.00    -0.082 HD
ENDROOT
BRANCH   2  16
ATOM     16  N   UNL     1      -3.222  -0.813  -1.520  0.00  0.00    -0.306 N 
ATOM     17  C   UNL     1      -3.803  -0.548  -2.707  0.00  0.00    +0.218 C 
ATOM     18  O   UNL     1      -3.119  -0.398  -3.697  0.00  0.00    -0.275 OA
ATOM     19  H   UNL     1      -3.769  -0.934  -0.728  0.00  0.00    +0.149 HD
BRANCH  17  20
ATOM     20  C   UNL     1      -5.303  -0.438  -2.804  0.00  0.00    +0.138 C 
BRANCH  20  21
ATOM     21  C   UNL     1      -5.694  -0.138  -4.228  0.00  0.00    -0.001 A 
ATOM     22  C   UNL     1      -5.983  -1.000  -5.233  0.00  0.00    +0.011 A 
ATOM     23  C   UNL     1      -6.321  -0.493  -6.474  0.00  0.00    +0.008 A 
ATOM     24  C   UNL     1      -6.353   0.851  -6.649  0.00  0.00    +0.045 A 
ATOM     25  S   UNL     1      -5.903   1.445  -5.027  0.00  0.00    -0.101 S 
ENDBRANCH  20  21
ENDBRANCH  17  20
ENDBRANCH   2  16
BRANCH   1  27
ATOM     26  C   UNL     1      -0.017   1.425   0.010  0.00  0.00    +0.194 C 
ATOM     27  O   UNL     1       0.002  -0.004   0.002  0.00  0.00    -0.377 OA
ENDBRANCH   1  27
BRANCH  12  28
ATOM     28  C   UNL     1      -1.854  -0.616   4.642  0.00  0.00    -0.050 C 
BRANCH  28  29
ATOM     29  C   UNL     1      -0.758  -0.872   5.679  0.00  0.00    +0.086 C 
ATOM     30  C   UNL     1      -1.066  -0.126   6.958  0.00  0.00    +0.005 C 
ATOM     31  C   UNL     1      -1.188  -1.067   7.921  0.00  0.00    -0.004 A 
ATOM     32  C   UNL     1      -1.478  -0.988   9.357  0.00  0.00    +0.010 A 
ATOM     33  C   UNL     1      -1.538  -2.131  10.079  0.00  0.00    +0.001 A 
ATOM     34  C   UNL     1      -1.329  -3.386   9.490  0.00  0.00    +0.002 A 
ATOM     35  C   UNL     1      -1.058  -3.539   8.176  0.00  0.00    +0.026 A 
ATOM     36  C   UNL     1      -0.972  -2.404   7.323  0.00  0.00    +0.043 A 
ATOM     37  N   UNL     1      -0.725  -2.294   6.039  0.00  0.00    -0.380 N 
ATOM     38  H   UNL     1      -0.550  -3.028   5.430  0.00  0.00    +0.160 HD
ENDBRANCH  28  29
ENDBRANCH  12  28
TORSDOF 6
