REMARK  Name = ZINC39237655
REMARK  6 active torsions:
REMARK  status: ('A' for Active; 'I' for Inactive)
REMARK    1  A    between atoms: C_2  and  C_3
REMARK    2  A    between atoms: C_3  and  N_4
REMARK    3  A    between atoms: C_5  and  C_30
REMARK    4  A    between atoms: C_8  and  S_9
REMARK    5  A    between atoms: S_9  and  C_10
REMARK    6  A    between atoms: C_12  and  C_23
REMARK                            x       y       z     vdW  Elec       q    Type
REMARK                         _______ _______ _______ _____ _____    ______ ____
ROOT
ATOM      1  C   UNL     1      -0.191  -5.657   0.032  0.00  0.00    +0.171 C 
ATOM      2  C   UNL     1       0.291  -6.445   1.235  0.00  0.00    -0.008 C 
ATOM      3  C   UNL     1      -0.225  -7.734   1.397  0.00  0.00    +0.003 A 
ATOM      4  C   UNL     1       0.170  -8.536   2.488  0.00  0.00    +0.030 A 
ATOM      5  C   UNL     1      -0.348  -9.788   2.623  0.00  0.00    +0.042 A 
ATOM      6  C   UNL     1      -1.262 -10.296   1.702  0.00  0.00    +0.022 A 
ATOM      7  C   UNL     1      -1.680  -9.569   0.629  0.00  0.00    +0.025 A 
ATOM      8  C   UNL     1      -1.187  -8.268   0.427  0.00  0.00    +0.041 A 
ATOM      9  N   UNL     1      -1.599  -7.556  -0.627  0.00  0.00    -0.284 N 
ATOM     10  C   UNL     1      -1.186  -6.331  -0.885  0.00  0.00    +0.235 C 
ATOM     11  O   UNL     1      -1.605  -5.743  -1.865  0.00  0.00    -0.274 OA
ATOM     12 CL   UNL     1       0.141 -10.771   3.968  0.00  0.00    -0.084 Cl
ATOM     13  H   UNL     1      -2.237  -7.962  -1.234  0.00  0.00    +0.155 HD
ENDROOT
BRANCH   2  14
ATOM     14  C   UNL     1       1.222  -5.899   2.152  0.00  0.00    -0.001 A 
ATOM     15  C   UNL     1       0.773  -5.274   3.328  0.00  0.00    +0.010 A 
ATOM     16  C   UNL     1       1.686  -4.747   4.213  0.00  0.00    +0.001 A 
ATOM     17  C   UNL     1       3.045  -4.831   3.949  0.00  0.00    +0.001 A 
ATOM     18  C   UNL     1       3.499  -5.444   2.794  0.00  0.00    +0.020 A 
ATOM     19  C   UNL     1       2.602  -5.984   1.896  0.00  0.00    +0.048 A 
ATOM     20 CL   UNL     1       3.174  -6.758   0.451  0.00  0.00    -0.083 Cl
ENDBRANCH   2  14
BRANCH   1  21
ATOM     21  S   UNL     1      -0.945  -4.122   0.638  0.00  0.00    -0.068 S 
BRANCH  21  26
ATOM     22  N   UNL     1      -1.785  -1.935  -0.891  0.00  0.00    -0.298 N 
ATOM     23  C   UNL     1      -1.797  -1.605  -2.227  0.00  0.00    +0.167 A 
ATOM     24  N   UNL     1      -1.277  -2.618  -2.879  0.00  0.00    -0.128 NA
ATOM     25  N   UNL     1      -0.946  -3.547  -2.055  0.00  0.00    -0.122 NA
ATOM     26  C   UNL     1      -1.228  -3.180  -0.825  0.00  0.00    +0.193 A 
BRANCH  23  27
ATOM     27  C   UNL     1      -2.301  -0.346  -2.816  0.00  0.00    +0.037 A 
ATOM     28  C   UNL     1      -2.918  -0.345  -4.072  0.00  0.00    +0.014 A 
ATOM     29  C   UNL     1      -3.372   0.860  -4.579  0.00  0.00    +0.020 A 
ATOM     30  C   UNL     1      -3.203   2.014  -3.835  0.00  0.00    +0.111 A 
ATOM     31  N   UNL     1      -2.617   1.984  -2.654  0.00  0.00    -0.263 NA
ATOM     32  C   UNL     1      -2.174   0.861  -2.126  0.00  0.00    +0.122 A 
ENDBRANCH  23  27
BRANCH  22  33
ATOM     33  C   UNL     1      -2.263  -1.119   0.227  0.00  0.00    +0.152 C 
BRANCH  33  35
ATOM     34  C   UNL     1      -1.169   0.927   0.989  0.00  0.00    +0.005 C 
ATOM     35  C   UNL     1      -1.105  -0.373   0.837  0.00  0.00    -0.013 C 
ENDBRANCH  33  35
ENDBRANCH  22  33
ENDBRANCH  21  26
ENDBRANCH   1  21
TORSDOF 6
