REMARK  Name = ZINC67372833
REMARK  7 active torsions:
REMARK  status: ('A' for Active; 'I' for Inactive)
REMARK    1  A    between atoms: C_6  and  C_11
REMARK    2  A    between atoms: C_11  and  C_13
REMARK    3  A    between atoms: C_11  and  O_26
REMARK    4  A    between atoms: C_13  and  N_14
REMARK    5  A    between atoms: N_14  and  C_15
REMARK    6  A    between atoms: C_18  and  N_23
REMARK    7  A    between atoms: C_20  and  C_21
REMARK                            x       y       z     vdW  Elec       q    Type
REMARK                         _______ _______ _______ _____ _____    ______ ____
ROOT
ATOM      1  C   UNL     1       5.380  -3.049  -1.503  0.00  0.00    +0.137 C 
ENDROOT
BRANCH   1   2
ATOM      2  N   UNL     1       6.665  -3.753  -1.519  0.00  0.00    -0.340 N 
ATOM      3  H   UNL     1       7.134  -3.926  -0.688  0.00  0.00    +0.146 HD
BRANCH   2   4
ATOM      4  C   UNL     1       7.212  -4.173  -2.726  0.00  0.00    +0.045 A 
ATOM      5  C   UNL     1       6.546  -3.922  -3.919  0.00  0.00    +0.026 A 
ATOM      6  C   UNL     1       7.091  -4.340  -5.116  0.00  0.00    +0.034 A 
ATOM      7  C   UNL     1       8.303  -5.011  -5.139  0.00  0.00    +0.128 A 
ATOM      8  C   UNL     1       8.978  -5.270  -3.966  0.00  0.00    +0.053 A 
ATOM      9  C   UNL     1       8.443  -4.848  -2.746  0.00  0.00    +0.075 A 
BRANCH   7  10
ATOM     10  N   UNL     1       8.876  -5.454  -6.430  0.00  0.00    +0.056 N 
ATOM     11  O   UNL     1       8.286  -5.230  -7.462  0.00  0.00    -0.126 OA
ATOM     12  O   UNL     1       9.933  -6.041  -6.454  0.00  0.00    -0.126 OA
ENDBRANCH   7  10
BRANCH   9  13
ATOM     13  C   UNL     1       9.142  -5.108  -1.524  0.00  0.00    +0.101 C 
ATOM     14  N   UNL     1       9.696  -5.314  -0.554  0.00  0.00    -0.191 NA
ENDBRANCH   9  13
ENDBRANCH   2   4
ENDBRANCH   1   2
BRANCH   1  15
ATOM     15  C   UNL     1       5.008  -2.700  -0.060  0.00  0.00    +0.161 C 
BRANCH  15  21
ATOM     16  C   UNL     1      -0.016   1.357   0.009  0.00  0.00    +0.001 A 
ATOM     17  C   UNL     1       1.169   2.091   0.002  0.00  0.00    +0.001 A 
ATOM     18  C   UNL     1       2.378   1.468  -0.013  0.00  0.00    +0.008 A 
ATOM     19  C   UNL     1       2.438   0.063  -0.021  0.00  0.00    -0.018 A 
ATOM     20  C   UNL     1       3.668  -0.615  -0.036  0.00  0.00    +0.014 A 
ATOM     21  C   UNL     1       3.687  -1.976  -0.043  0.00  0.00    -0.017 A 
ATOM     22  C   UNL     1       2.502  -2.710  -0.036  0.00  0.00    +0.007 A 
ATOM     23  C   UNL     1       1.292  -2.087  -0.021  0.00  0.00    +0.009 A 
ATOM     24  C   UNL     1       1.233  -0.683  -0.013  0.00  0.00    -0.018 A 
ATOM     25  C   UNL     1       0.002  -0.004   0.002  0.00  0.00    +0.008 A 
ENDBRANCH  15  21
BRANCH  15  26
ATOM     26  O   UNL     1       4.903  -3.901   0.708  0.00  0.00    -0.386 OA
ATOM     27  H   UNL     1       4.234  -4.519   0.382  0.00  0.00    +0.210 HD
ENDBRANCH  15  26
ENDBRANCH   1  15
TORSDOF 7
