REMARK  Name = ZINC20726715
REMARK  7 active torsions:
REMARK  status: ('A' for Active; 'I' for Inactive)
REMARK    1  A    between atoms: C_1  and  C_2
REMARK    2  A    between atoms: C_2  and  C_3
REMARK    3  A    between atoms: C_2  and  C_4
REMARK    4  A    between atoms: C_4  and  O_5
REMARK    5  A    between atoms: O_5  and  C_6
REMARK    6  A    between atoms: C_10  and  C_12
REMARK    7  A    between atoms: C_15  and  O_23
REMARK                            x       y       z     vdW  Elec       q    Type
REMARK                         _______ _______ _______ _____ _____    ______ ____
ROOT
ATOM      1  C   UNL     1      -3.965  -6.112  -0.363  0.00  0.00    +0.063 C 
ATOM      2  C   UNL     1      -4.771  -6.499  -1.608  0.00  0.00    +0.108 C 
ATOM      3  C   UNL     1      -6.246  -6.351  -1.390  0.00  0.00    +0.190 C 
ATOM      4  N   UNL     1      -6.838  -6.557  -0.254  0.00  0.00    -0.196 NA
ATOM      5  C   UNL     1      -6.076  -6.896   0.838  0.00  0.00    +0.181 A 
ATOM      6  C   UNL     1      -4.668  -6.694   0.838  0.00  0.00    +0.024 A 
ATOM      7  C   UNL     1      -4.188  -7.100   2.018  0.00  0.00    +0.111 A 
ATOM      8  N   UNL     1      -5.231  -7.552   2.755  0.00  0.00    -0.282 N 
ATOM      9  H   UNL     1      -5.178  -7.910   3.655  0.00  0.00    +0.188 HD
ATOM     10  N   UNL     1      -6.405  -7.413   1.989  0.00  0.00    -0.154 NA
ENDROOT
BRANCH   1  15
ATOM     11  C   UNL     1      -2.620  -2.590  -0.120  0.00  0.00    +0.121 A 
ATOM     12  C   UNL     1      -3.792  -1.855  -0.015  0.00  0.00    +0.045 A 
ATOM     13  C   UNL     1      -5.013  -2.500  -0.023  0.00  0.00    +0.004 A 
ATOM     14  C   UNL     1      -5.068  -3.877  -0.136  0.00  0.00    +0.004 A 
ATOM     15  C   UNL     1      -3.901  -4.612  -0.240  0.00  0.00    -0.036 A 
ATOM     16  C   UNL     1      -2.678  -3.971  -0.238  0.00  0.00    +0.050 A 
BRANCH  11  17
ATOM     17  O   UNL     1      -1.417  -1.957  -0.112  0.00  0.00    -0.492 OA
BRANCH  17  18
ATOM     18  C   UNL     1      -1.433  -0.534   0.013  0.00  0.00    +0.232 C 
BRANCH  18  20
ATOM     19  C   UNL     1      -0.019   1.526   0.010  0.00  0.00    +0.010 C 
ATOM     20  C   UNL     1       0.002  -0.004   0.002  0.00  0.00    +0.020 C 
ATOM     21  C   UNL     1       0.742  -0.511   1.242  0.00  0.00    +0.010 C 
ENDBRANCH  18  20
ENDBRANCH  17  18
ENDBRANCH  11  17
ENDBRANCH   1  15
BRANCH   3  22
ATOM     22  O   UNL     1      -7.006  -5.981  -2.441  0.00  0.00    -0.495 OA
ATOM     23  H   UNL     1      -7.948  -5.903  -2.237  0.00  0.00    +0.293 HD
ENDBRANCH   3  22
TORSDOF 5
