REMARK  Name = ZINC20418872
REMARK  10 active torsions:
REMARK  status: ('A' for Active; 'I' for Inactive)
REMARK    1  A    between atoms: C_1  and  C_2
REMARK    2  A    between atoms: C_3  and  C_33
REMARK    3  A    between atoms: C_4  and  C_24
REMARK    4  A    between atoms: C_10  and  C_15
REMARK    5  A    between atoms: C_18  and  N_21
REMARK    6  A    between atoms: N_21  and  C_22
REMARK    7  A    between atoms: N_21  and  C_23
REMARK    8  A    between atoms: C_33  and  O_35
REMARK    9  A    between atoms: O_35  and  C_36
REMARK   10  A    between atoms: C_36  and  C_37
REMARK                            x       y       z     vdW  Elec       q    Type
REMARK                         _______ _______ _______ _____ _____    ______ ____
ROOT
ATOM      1  C   UNL     1       7.141  -3.695   1.470  0.00  0.00    +0.061 C 
ATOM      2  C   UNL     1       5.869  -3.251   2.144  0.00  0.00    +0.016 C 
ATOM      3  C   UNL     1       4.690  -3.411   1.518  0.00  0.00    +0.065 C 
ATOM      4  C   UNL     1       3.404  -2.974   2.155  0.00  0.00    +0.092 C 
ATOM      5  C   UNL     1       3.575  -2.777   3.640  0.00  0.00    +0.024 C 
ATOM      6  C   UNL     1       4.805  -2.637   4.180  0.00  0.00    +0.016 C 
ATOM      7  N   UNL     1       5.921  -2.687   3.388  0.00  0.00    -0.321 N 
ATOM      8  C   UNL     1       4.983  -2.420   5.662  0.00  0.00    +0.059 C 
ATOM      9  C   UNL     1       3.855  -3.122   6.423  0.00  0.00    +0.032 C 
ATOM     10  C   UNL     1       2.516  -2.560   5.934  0.00  0.00    +0.088 C 
ATOM     11  C   UNL     1       2.423  -2.744   4.444  0.00  0.00    +0.162 C 
ATOM     12  O   UNL     1       1.330  -2.865   3.926  0.00  0.00    -0.292 OA
ATOM     13  H   UNL     1       6.866  -2.267   3.763  0.00  0.00    +0.152 HD
ENDROOT
BRANCH   4  14
ATOM     14  C   UNL     1       2.960  -1.675   1.532  0.00  0.00    -0.032 A 
ATOM     15  C   UNL     1       3.773  -0.560   1.608  0.00  0.00    +0.008 A 
ATOM     16  C   UNL     1       3.369   0.633   1.038  0.00  0.00    +0.050 A 
ATOM     17  C   UNL     1       2.148   0.714   0.389  0.00  0.00    +0.166 A 
ATOM     18  C   UNL     1       1.329  -0.410   0.313  0.00  0.00    +0.167 A 
ATOM     19  C   UNL     1       1.740  -1.602   0.886  0.00  0.00    +0.054 A 
ATOM     20  O   UNL     1       0.194  -0.077  -0.370  0.00  0.00    -0.453 OA
ATOM     21  C   UNL     1       0.144   1.362  -0.354  0.00  0.00    +0.466 C 
ATOM     22  O   UNL     1       1.526   1.750  -0.245  0.00  0.00    -0.453 OA
ENDBRANCH   4  14
BRANCH   9  23
ATOM     23  C   UNL     1       4.002  -2.867   7.901  0.00  0.00    -0.043 A 
ATOM     24  C   UNL     1       3.995  -1.570   8.382  0.00  0.00    +0.006 A 
ATOM     25  C   UNL     1       4.123  -1.334   9.736  0.00  0.00    +0.023 A 
ATOM     26  C   UNL     1       4.271  -2.399  10.615  0.00  0.00    +0.029 A 
ATOM     27  C   UNL     1       4.283  -3.700  10.128  0.00  0.00    +0.023 A 
ATOM     28  C   UNL     1       4.148  -3.930   8.773  0.00  0.00    +0.006 A 
BRANCH  26  29
ATOM     29  N   UNL     1       4.407  -2.163  11.985  0.00  0.00    -0.336 N 
ATOM     30  C   UNL     1       4.563  -3.288  12.910  0.00  0.00    +0.129 C 
ATOM     31  C   UNL     1       4.394  -0.791  12.497  0.00  0.00    +0.129 C 
ENDBRANCH  26  29
ENDBRANCH   9  23
BRANCH   3  32
ATOM     32  C   UNL     1       4.662  -4.004   0.234  0.00  0.00    +0.338 C 
ATOM     33  O   UNL     1       5.703  -4.266  -0.338  0.00  0.00    -0.245 OA
BRANCH  32  34
ATOM     34  O   UNL     1       3.480  -4.279  -0.356  0.00  0.00    -0.459 OA
BRANCH  34  35
ATOM     35  C   UNL     1       3.526  -4.877  -1.653  0.00  0.00    +0.264 C 
BRANCH  35  36
ATOM     36  C   UNL     1       2.101  -5.113  -2.157  0.00  0.00    +0.156 C 
ATOM     37  C   UNL     1       2.140  -5.864  -3.506  0.00  0.00    +0.037 C 
ATOM     38  C   UNL     1       0.998  -5.173  -4.300  0.00  0.00    +0.031 C 
ATOM     39  C   UNL     1       1.104  -3.722  -3.767  0.00  0.00    +0.160 C 
ATOM     40  O   UNL     1       1.450  -3.857  -2.379  0.00  0.00    -0.373 OA
ENDBRANCH  35  36
ENDBRANCH  34  35
ENDBRANCH  32  34
ENDBRANCH   3  32
TORSDOF 7
