REMARK  Name = ZINC34747366
REMARK  5 active torsions:
REMARK  status: ('A' for Active; 'I' for Inactive)
REMARK    1  A    between atoms: C_4  and  C_7
REMARK    2  A    between atoms: C_7  and  C_8
REMARK    3  A    between atoms: C_8  and  N_9
REMARK    4  A    between atoms: N_28  and  C_29
REMARK    5  A    between atoms: C_29  and  C_30
REMARK                            x       y       z     vdW  Elec       q    Type
REMARK                         _______ _______ _______ _____ _____    ______ ____
ROOT
ATOM      1  N   UNL     1       6.638  -1.848   0.034  0.00  0.00    +0.382 N 
ATOM      2  C   UNL     1       8.013  -2.067  -0.430  0.00  0.00    -0.060 C 
ATOM      3  C   UNL     1       8.770  -2.913   0.598  0.00  0.00    +0.089 C 
ATOM      4  N   UNL     1       8.670  -2.254   1.909  0.00  0.00    -0.304 N 
ATOM      5  C   UNL     1       7.337  -1.851   2.382  0.00  0.00    +0.089 C 
ATOM      6  C   UNL     1       6.647  -1.054   1.270  0.00  0.00    -0.060 C 
ATOM      7  C   UNL     1       9.789  -2.023   2.670  0.00  0.00    +0.202 A 
ATOM      8  N   UNL     1      10.841  -1.453   2.121  0.00  0.00    -0.208 NA
ATOM      9  C   UNL     1      11.937  -1.217   2.834  0.00  0.00    +0.117 A 
ATOM     10  C   UNL     1      12.031  -1.558   4.193  0.00  0.00    +0.076 A 
ATOM     11  C   UNL     1      13.301  -1.238   4.846  0.00  0.00    -0.023 A 
ATOM     12  C   UNL     1      14.249  -0.651   4.087  0.00  0.00    -0.004 A 
ATOM     13  S   UNL     1      13.518  -0.492   2.480  0.00  0.00    -0.073 S 
ATOM     14  C   UNL     1      15.621  -0.227   4.515  0.00  0.00    +0.043 C 
ATOM     15  C   UNL     1      15.670  -0.221   6.049  0.00  0.00    +0.005 C 
ATOM     16  C   UNL     1      15.071  -1.532   6.566  0.00  0.00    +0.005 C 
ATOM     17  C   UNL     1      13.562  -1.546   6.319  0.00  0.00    +0.037 C 
ATOM     18  C   UNL     1      10.872  -2.175   4.763  0.00  0.00    +0.264 A 
ATOM     19  O   UNL     1      10.861  -2.506   5.936  0.00  0.00    -0.267 OA
ATOM     20  N   UNL     1       9.793  -2.381   3.986  0.00  0.00    -0.276 N 
ATOM     21  H   UNL     1       6.199  -2.739   0.212  0.00  0.00    -0.082 HD
ENDROOT
BRANCH   1  22
ATOM     22  C   UNL     1       5.881  -1.131  -1.001  0.00  0.00    -0.074 C 
BRANCH  22  23
ATOM     23  C   UNL     1       5.763  -2.009  -2.248  0.00  0.00    +0.016 C 
BRANCH  23  27
ATOM     24  C   UNL     1       3.564   0.075  -5.258  0.00  0.00    +0.000 A 
ATOM     25  C   UNL     1       4.939   0.202  -5.194  0.00  0.00    +0.000 A 
ATOM     26  C   UNL     1       5.650  -0.472  -4.220  0.00  0.00    +0.003 A 
ATOM     27  C   UNL     1       4.987  -1.274  -3.309  0.00  0.00    -0.049 A 
ATOM     28  C   UNL     1       3.612  -1.401  -3.373  0.00  0.00    +0.003 A 
ATOM     29  C   UNL     1       2.901  -0.727  -4.348  0.00  0.00    +0.000 A 
ENDBRANCH  23  27
ENDBRANCH  22  23
ENDBRANCH   1  22
BRANCH  20  30
ATOM     30  C   UNL     1       8.601  -3.008   4.564  0.00  0.00    +0.163 C 
BRANCH  30  31
ATOM     31  C   UNL     1       8.708  -4.505   4.433  0.00  0.00    -0.027 A 
ATOM     32  C   UNL     1       8.124  -5.149   3.358  0.00  0.00    +0.007 A 
ATOM     33  C   UNL     1       8.222  -6.522   3.238  0.00  0.00    +0.020 A 
ATOM     34  C   UNL     1       8.903  -7.253   4.194  0.00  0.00    +0.041 A 
ATOM     35  C   UNL     1       9.487  -6.609   5.270  0.00  0.00    +0.020 A 
ATOM     36  C   UNL     1       9.394  -5.235   5.386  0.00  0.00    +0.007 A 
ATOM     37 CL   UNL     1       9.026  -8.979   4.044  0.00  0.00    -0.084 Cl
ENDBRANCH  30  31
ENDBRANCH  20  30
TORSDOF 5
