REMARK  Name = ZINC00931449
REMARK  8 active torsions:
REMARK  status: ('A' for Active; 'I' for Inactive)
REMARK    1  A    between atoms: C_1  and  C_2
REMARK    2  A    between atoms: C_9  and  C_11
REMARK    3  A    between atoms: C_11  and  S_12
REMARK    4  A    between atoms: S_12  and  C_13
REMARK    5  A    between atoms: C_15  and  C_19
REMARK    6  A    between atoms: C_22  and  S_25
REMARK    7  A    between atoms: S_25  and  N_28
REMARK    8  A    between atoms: N_28  and  C_29
REMARK                            x       y       z     vdW  Elec       q    Type
REMARK                         _______ _______ _______ _____ _____    ______ ____
ROOT
ATOM      1  C   UNL     1       6.040  -1.036  -3.901  0.00  0.00    +0.185 A 
ATOM      2  N   UNL     1       7.181  -1.675  -4.168  0.00  0.00    -0.201 NA
ATOM      3  C   UNL     1       7.332  -1.785  -5.473  0.00  0.00    +0.182 A 
ATOM      4  N   UNL     1       6.266  -1.204  -6.067  0.00  0.00    -0.152 NA
ATOM      5  H   UNL     1       4.509  -0.203  -5.268  0.00  0.00    +0.191 HD
ATOM      6  N   UNL     1       5.448  -0.725  -5.031  0.00  0.00    -0.253 N 
ENDROOT
BRANCH   3   7
ATOM      7  C   UNL     1       8.470  -2.430  -6.166  0.00  0.00    +0.021 A 
ATOM      8  C   UNL     1       8.508  -2.473  -7.559  0.00  0.00    +0.013 A 
ATOM      9  C   UNL     1       9.574  -3.071  -8.199  0.00  0.00    +0.029 A 
ATOM     10  C   UNL     1      10.598  -3.638  -7.461  0.00  0.00    +0.105 A 
ATOM     11  C   UNL     1      10.563  -3.603  -6.079  0.00  0.00    +0.029 A 
ATOM     12  C   UNL     1       9.506  -3.002  -5.427  0.00  0.00    +0.013 A 
BRANCH  10  13
ATOM     13  S   UNL     1      11.952  -4.407  -8.286  0.00  0.00    +0.059 S 
ATOM     14  O   UNL     1      12.020  -3.828  -9.582  0.00  0.00    -0.153 OA
ATOM     15  O   UNL     1      13.047  -4.380  -7.381  0.00  0.00    -0.153 OA
BRANCH  13  16
ATOM     16  N   UNL     1      11.554  -6.000  -8.500  0.00  0.00    -0.187 NA
ATOM     17  H   UNL     1      12.026  -6.762  -7.863  0.00  0.00    +0.148 HD
BRANCH  16  18
ATOM     18  C   UNL     1      10.432  -6.364  -9.369  0.00  0.00    +0.077 C 
ATOM     19  C   UNL     1       9.168  -6.540  -8.525  0.00  0.00    +0.020 C 
ATOM     20  C   UNL     1       7.997  -6.921  -9.433  0.00  0.00    +0.002 C 
ATOM     21  C   UNL     1       8.316  -8.232 -10.154  0.00  0.00    +0.000 C 
ATOM     22  C   UNL     1       9.580  -8.057 -10.998  0.00  0.00    +0.002 C 
ATOM     23  C   UNL     1      10.751  -7.676 -10.090  0.00  0.00    +0.020 C 
ENDBRANCH  16  18
ENDBRANCH  13  16
ENDBRANCH  10  13
ENDBRANCH   3   7
BRANCH   1  24
ATOM     24  S   UNL     1       5.427  -0.668  -2.290  0.00  0.00    -0.077 S 
BRANCH  24  25
ATOM     25  C   UNL     1       3.868   0.205  -2.602  0.00  0.00    +0.173 C 
BRANCH  25  33
ATOM     26  C   UNL     1      -0.730   1.580   1.266  0.00  0.00    +0.009 C 
ATOM     27  C   UNL     1      -0.013   1.086   0.008  0.00  0.00    +0.003 C 
ATOM     28  C   UNL     1      -0.749   1.593  -1.234  0.00  0.00    +0.006 C 
ATOM     29  C   UNL     1      -0.051   1.072  -2.492  0.00  0.00    +0.019 C 
ATOM     30  C   UNL     1       1.385   1.603  -2.531  0.00  0.00    +0.108 C 
ATOM     31  N   UNL     1       2.057   1.242  -1.275  0.00  0.00    -0.301 N 
ATOM     32  C   UNL     1       1.424   1.617  -0.003  0.00  0.00    +0.111 C 
ATOM     33  C   UNL     1       3.232   0.582  -1.289  0.00  0.00    +0.226 C 
ATOM     34  O   UNL     1       3.776   0.290  -0.246  0.00  0.00    -0.275 OA
ENDBRANCH  25  33
ENDBRANCH  24  25
ENDBRANCH   1  24
TORSDOF 7
