REMARK  Name = ZINC33057848
REMARK  7 active torsions:
REMARK  status: ('A' for Active; 'I' for Inactive)
REMARK    1  A    between atoms: C_1  and  C_2
REMARK    2  A    between atoms: C_5  and  N_14
REMARK    3  A    between atoms: N_6  and  C_8
REMARK    4  A    between atoms: N_21  and  C_23
REMARK    5  A    between atoms: C_23  and  C_25
REMARK    6  A    between atoms: C_23  and  C_26
REMARK    7  A    between atoms: N_28  and  C_29
REMARK                            x       y       z     vdW  Elec       q    Type
REMARK                         _______ _______ _______ _____ _____    ______ ____
ROOT
ATOM      1  C   UNL     1      -0.443  -6.744   1.882  0.00  0.00    +0.070 C 
ATOM      2  C   UNL     1      -1.197  -6.148   0.722  0.00  0.00    +0.086 A 
ATOM      3  C   UNL     1      -1.591  -6.993  -0.410  0.00  0.00    +0.123 A 
ATOM      4  C   UNL     1      -2.326  -6.356  -1.517  0.00  0.00    +0.112 A 
ATOM      5  C   UNL     1      -2.578  -7.349  -2.444  0.00  0.00    +0.154 A 
ATOM      6  N   UNL     1      -2.051  -8.496  -1.965  0.00  0.00    -0.215 N 
ATOM      7  N   UNL     1      -1.453  -8.259  -0.722  0.00  0.00    -0.162 NA
ATOM      8  C   UNL     1      -2.611  -4.926  -1.410  0.00  0.00    +0.281 A 
ATOM      9  O   UNL     1      -3.215  -4.346  -2.294  0.00  0.00    -0.265 OA
ATOM     10  N   UNL     1      -2.192  -4.262  -0.313  0.00  0.00    -0.217 N 
ATOM     11  N   UNL     1      -1.493  -4.885   0.718  0.00  0.00    -0.171 NA
ENDROOT
BRANCH   6  12
ATOM     12  C   UNL     1      -2.097  -9.736  -2.614  0.00  0.00    +0.068 A 
ATOM     13  C   UNL     1      -3.210 -10.088  -3.366  0.00  0.00    +0.028 A 
ATOM     14  C   UNL     1      -3.250 -11.309  -4.009  0.00  0.00    +0.002 A 
ATOM     15  C   UNL     1      -2.187 -12.187  -3.896  0.00  0.00    +0.000 A 
ATOM     16  C   UNL     1      -1.079 -11.842  -3.144  0.00  0.00    +0.002 A 
ATOM     17  C   UNL     1      -1.031 -10.620  -2.503  0.00  0.00    +0.028 A 
ENDBRANCH   6  12
BRANCH   5  18
ATOM     18  N   UNL     1      -3.251  -7.195  -3.651  0.00  0.00    -0.307 N 
ATOM     19  C   UNL     1      -4.420  -6.511  -3.831  0.00  0.00    +0.092 A 
ATOM     20  C   UNL     1      -4.754  -6.583  -5.135  0.00  0.00    +0.019 A 
ATOM     21  C   UNL     1      -3.763  -7.346  -5.785  0.00  0.00    +0.019 A 
ATOM     22  C   UNL     1      -2.856  -7.708  -4.856  0.00  0.00    +0.092 A 
ENDBRANCH   5  18
BRANCH  10  23
ATOM     23  C   UNL     1      -2.478  -2.829  -0.206  0.00  0.00    +0.194 C 
ATOM     24  C   UNL     1      -3.326  -2.570   1.041  0.00  0.00    +0.043 C 
BRANCH  23  25
ATOM     25  C   UNL     1      -1.183  -2.065  -0.100  0.00  0.00    +0.242 C 
ATOM     26  O   UNL     1      -0.126  -2.659  -0.113  0.00  0.00    -0.273 OA
ATOM     27  N   UNL     1      -1.200  -0.722   0.009  0.00  0.00    -0.283 N 
ATOM     28  H   UNL     1      -2.158  -0.189   0.095  0.00  0.00    +0.155 HD
BRANCH  27  29
ATOM     29  C   UNL     1       0.003  -0.005   0.013  0.00  0.00    +0.052 A 
ATOM     30  C   UNL     1       1.135  -0.548   0.605  0.00  0.00    +0.025 A 
ATOM     31  C   UNL     1       2.320   0.161   0.607  0.00  0.00    +0.002 A 
ATOM     32  C   UNL     1       2.380   1.412   0.020  0.00  0.00    +0.002 A 
ATOM     33  C   UNL     1       1.255   1.957  -0.570  0.00  0.00    +0.022 A 
ATOM     34  C   UNL     1       0.066   1.252  -0.576  0.00  0.00    +0.062 A 
ATOM     35 CL   UNL     1      -1.345   1.933  -1.324  0.00  0.00    -0.082 Cl
ENDBRANCH  27  29
ENDBRANCH  23  25
ENDBRANCH  10  23
TORSDOF 5
