REMARK  Name = ZINC05085298
REMARK  10 active torsions:
REMARK  status: ('A' for Active; 'I' for Inactive)
REMARK    1  A    between atoms: C_1  and  C_2
REMARK    2  A    between atoms: C_2  and  C_3
REMARK    3  A    between atoms: C_3  and  C_4
REMARK    4  A    between atoms: C_4  and  C_5
REMARK    5  A    between atoms: N_7  and  C_8
REMARK    6  A    between atoms: N_7  and  S_32
REMARK    7  A    between atoms: C_11  and  N_14
REMARK    8  A    between atoms: N_14  and  C_15
REMARK    9  A    between atoms: C_27  and  N_29
REMARK   10  A    between atoms: S_32  and  C_35
REMARK                            x       y       z     vdW  Elec       q    Type
REMARK                         _______ _______ _______ _____ _____    ______ ____
ROOT
ATOM      1  N   UNL     1       3.300  -5.278   7.478  0.00  0.00    -0.313 N 
ATOM      2  H   UNL     1       2.987  -6.195   7.538  0.00  0.00    +0.152 HD
ENDROOT
BRANCH   1   3
ATOM      3  C   UNL     1       3.114  -4.416   8.537  0.00  0.00    +0.050 A 
ATOM      4  C   UNL     1       2.143  -3.397   8.485  0.00  0.00    +0.020 A 
ATOM      5  C   UNL     1       1.333  -3.229   7.349  0.00  0.00    +0.012 A 
ATOM      6  C   UNL     1       0.402  -2.237   7.325  0.00  0.00    +0.001 A 
ATOM      7  C   UNL     1       0.241  -1.381   8.415  0.00  0.00    +0.002 A 
ATOM      8  C   UNL     1       1.006  -1.513   9.531  0.00  0.00    +0.026 A 
ATOM      9  C   UNL     1       1.982  -2.528   9.596  0.00  0.00    +0.049 A 
ATOM     10  N   UNL     1       2.738  -2.668  10.684  0.00  0.00    -0.354 N 
ATOM     11  C   UNL     1       3.668  -3.616  10.778  0.00  0.00    +0.051 A 
ATOM     12  C   UNL     1       3.886  -4.528   9.711  0.00  0.00    +0.020 A 
ATOM     13  C   UNL     1       4.869  -5.524   9.837  0.00  0.00    +0.014 A 
ATOM     14  C   UNL     1       5.599  -5.609  10.982  0.00  0.00    +0.033 A 
ATOM     15  C   UNL     1       5.385  -4.719  12.035  0.00  0.00    +0.128 A 
ATOM     16  C   UNL     1       4.452  -3.735  11.944  0.00  0.00    +0.059 A 
ATOM     17  H   UNL     1       2.607  -2.061  11.430  0.00  0.00    +0.166 HD
BRANCH  15  18
ATOM     18  N   UNL     1       6.198  -4.840  13.266  0.00  0.00    +0.056 N 
ATOM     19  O   UNL     1       7.038  -5.705  13.353  0.00  0.00    -0.126 OA
ATOM     20  O   UNL     1       6.021  -4.075  14.185  0.00  0.00    -0.126 OA
ENDBRANCH  15  18
ENDBRANCH   1   3
BRANCH   1  24
ATOM     21  C   UNL     1       5.204  -3.948   4.017  0.00  0.00    +0.059 A 
ATOM     22  C   UNL     1       4.307  -5.007   3.953  0.00  0.00    +0.027 A 
ATOM     23  C   UNL     1       3.677  -5.448   5.099  0.00  0.00    +0.025 A 
ATOM     24  C   UNL     1       3.939  -4.832   6.317  0.00  0.00    +0.031 A 
ATOM     25  C   UNL     1       4.836  -3.773   6.381  0.00  0.00    +0.025 A 
ATOM     26  C   UNL     1       5.470  -3.336   5.235  0.00  0.00    +0.027 A 
BRANCH  21  29
ATOM     27  C   UNL     1       7.061  -2.927   2.933  0.00  0.00    +0.239 C 
ATOM     28  O   UNL     1       7.639  -2.875   3.998  0.00  0.00    -0.274 OA
ATOM     29  N   UNL     1       5.844  -3.501   2.854  0.00  0.00    -0.144 N 
BRANCH  29  30
ATOM     30  S   UNL     1       5.106  -3.679   1.383  0.00  0.00    +0.049 S 
ATOM     31  O   UNL     1       3.733  -3.885   1.688  0.00  0.00    -0.155 OA
ATOM     32  O   UNL     1       5.519  -2.546   0.631  0.00  0.00    -0.155 OA
ATOM     33  C   UNL     1       5.823  -5.189   0.680  0.00  0.00    +0.219 C 
ENDBRANCH  29  30
BRANCH  27  34
ATOM     34  C   UNL     1       7.702  -2.349   1.698  0.00  0.00    +0.098 C 
BRANCH  34  35
ATOM     35  C   UNL     1       9.144  -1.946   2.013  0.00  0.00    +0.009 C 
BRANCH  35  37
ATOM     36  C   UNL     1      11.238  -0.956   1.075  0.00  0.00    +0.004 C 
ATOM     37  C   UNL     1       9.796  -1.359   0.759  0.00  0.00    -0.003 C 
ENDBRANCH  35  37
ENDBRANCH  34  35
ENDBRANCH  27  34
ENDBRANCH  21  29
ENDBRANCH   1  24
TORSDOF 8
