REMARK  Name = ZINC36305803
REMARK  18 active torsions:
REMARK  status: ('A' for Active; 'I' for Inactive)
REMARK    1  A    between atoms: C_1  and  C_2
REMARK    2  A    between atoms: C_2  and  C_3
REMARK    3  A    between atoms: C_3  and  C_5
REMARK    4  A    between atoms: C_3  and  N_6
REMARK    5  A    between atoms: N_6  and  C_7
REMARK    6  A    between atoms: N_6  and  C_29
REMARK    7  A    between atoms: C_7  and  C_8
REMARK    8  A    between atoms: C_9  and  C_23
REMARK    9  A    between atoms: N_11  and  C_22
REMARK   10  A    between atoms: C_12  and  O_13
REMARK   11  A    between atoms: O_13  and  C_14
REMARK   12  A    between atoms: C_19  and  O_20
REMARK   13  A    between atoms: O_20  and  C_21
REMARK   14  A    between atoms: C_29  and  C_30
REMARK   15  A    between atoms: C_30  and  C_32
REMARK   16  A    between atoms: C_30  and  O_36
REMARK   17  A    between atoms: C_32  and  C_33
REMARK   18  A    between atoms: C_33  and  C_34
REMARK                            x       y       z     vdW  Elec       q    Type
REMARK                         _______ _______ _______ _____ _____    ______ ____
ROOT
ATOM      1  C   UNL     1      -2.912  -1.489  -0.737  0.00  0.00    +0.025 A 
ATOM      2  C   UNL     1      -3.369  -1.967  -1.979  0.00  0.00    +0.098 A 
ATOM      3  N   UNL     1      -3.606  -3.256  -1.860  0.00  0.00    -0.168 NA
ATOM      4  N   UNL     1      -3.309  -3.637  -0.546  0.00  0.00    -0.235 N 
ATOM      5  C   UNL     1      -2.880  -2.537   0.125  0.00  0.00    +0.221 A 
ATOM      6  C   UNL     1      -3.436  -4.988   0.008  0.00  0.00    +0.176 C 
ENDROOT
BRANCH   2   7
ATOM      7  C   UNL     1      -3.552  -1.157  -3.210  0.00  0.00    +0.002 A 
ATOM      8  C   UNL     1      -4.066   0.135  -3.127  0.00  0.00    +0.010 A 
ATOM      9  C   UNL     1      -4.234   0.883  -4.274  0.00  0.00    +0.001 A 
ATOM     10  C   UNL     1      -3.893   0.352  -5.505  0.00  0.00    +0.000 A 
ATOM     11  C   UNL     1      -3.383  -0.930  -5.594  0.00  0.00    +0.001 A 
ATOM     12  C   UNL     1      -3.206  -1.685  -4.452  0.00  0.00    +0.010 A 
ENDBRANCH   2   7
BRANCH   1  13
ATOM     13  C   UNL     1      -2.522  -0.068  -0.421  0.00  0.00    -0.035 C 
BRANCH  13  14
ATOM     14  N   UNL     1      -1.365   0.317  -1.241  0.00  0.00    +0.386 N 
ATOM     15  H   UNL     1      -1.470  -0.064  -2.169  0.00  0.00    -0.081 HD
BRANCH  14  16
ATOM     16  C   UNL     1      -0.137  -0.211  -0.632  0.00  0.00    -0.071 C 
ATOM     17  C   UNL     1      -0.072   0.215   0.837  0.00  0.00    -0.013 C 
BRANCH  16  19
ATOM     18  C   UNL     1      -0.151  -2.164  -2.189  0.00  0.00    +0.002 C 
ATOM     19  C   UNL     1      -0.139  -1.738  -0.720  0.00  0.00    -0.019 C 
ENDBRANCH  16  19
ENDBRANCH  14  16
BRANCH  14  20
ATOM     20  C   UNL     1      -1.284   1.781  -1.317  0.00  0.00    -0.046 C 
BRANCH  20  21
ATOM     21  C   UNL     1      -0.208   2.180  -2.329  0.00  0.00    +0.098 C 
BRANCH  21  22
ATOM     22  O   UNL     1       1.079   1.820  -1.822  0.00  0.00    -0.394 OA
ATOM     23  H   UNL     1       1.275   2.189  -0.950  0.00  0.00    +0.210 HD
ENDBRANCH  21  22
BRANCH  21  24
ATOM     24  C   UNL     1      -0.261   3.692  -2.561  0.00  0.00    +0.033 C 
BRANCH  24  25
ATOM     25  C   UNL     1       0.730   4.074  -3.663  0.00  0.00    +0.029 C 
BRANCH  25  26
ATOM     26  C   UNL     1       0.678   5.562  -3.890  0.00  0.00    -0.034 C 
ATOM     27  C   UNL     1       1.774   6.275  -3.813  0.00  0.00    +0.004 C 
ENDBRANCH  25  26
ENDBRANCH  24  25
ENDBRANCH  21  24
ENDBRANCH  20  21
ENDBRANCH  14  20
ENDBRANCH  13  14
ENDBRANCH   1  13
BRANCH   5  28
ATOM     28  O   UNL     1      -2.491  -2.494   1.425  0.00  0.00    -0.434 OA
BRANCH  28  29
ATOM     29  C   UNL     1      -3.453  -2.354   2.375  0.00  0.00    +0.172 A 
ATOM     30  C   UNL     1      -4.792  -2.367   2.015  0.00  0.00    +0.050 A 
ATOM     31  C   UNL     1      -5.769  -2.226   2.983  0.00  0.00    +0.004 A 
ATOM     32  C   UNL     1      -5.414  -2.071   4.310  0.00  0.00    +0.004 A 
ATOM     33  C   UNL     1      -4.081  -2.057   4.676  0.00  0.00    +0.049 A 
ATOM     34  C   UNL     1      -3.096  -2.204   3.712  0.00  0.00    +0.162 A 
BRANCH  34  35
ATOM     35  O   UNL     1      -1.785  -2.196   4.071  0.00  0.00    -0.491 OA
ATOM     36  C   UNL     1      -1.493  -2.038   5.461  0.00  0.00    +0.277 C 
ENDBRANCH  34  35
ENDBRANCH  28  29
ENDBRANCH   5  28
TORSDOF 14
