REMARK  Name = ZINC39012045
REMARK  8 active torsions:
REMARK  status: ('A' for Active; 'I' for Inactive)
REMARK    1  A    between atoms: C_1  and  C_2
REMARK    2  A    between atoms: C_4  and  C_8
REMARK    3  A    between atoms: C_12  and  S_16
REMARK    4  A    between atoms: N_14  and  N_15
REMARK    5  A    between atoms: S_16  and  C_17
REMARK    6  A    between atoms: C_17  and  C_18
REMARK    7  A    between atoms: N_20  and  C_21
REMARK    8  A    between atoms: C_26  and  C_27
REMARK                            x       y       z     vdW  Elec       q    Type
REMARK                         _______ _______ _______ _____ _____    ______ ____
ROOT
ATOM      1  C   UNL     1      -1.770  -6.461   3.187  0.00  0.00    +0.168 C 
ENDROOT
BRANCH   1   2
ATOM      2  C   UNL     1      -1.756  -7.777   3.921  0.00  0.00    +0.227 C 
ATOM      3  O   UNL     1      -1.757  -8.818   3.298  0.00  0.00    -0.275 OA
ATOM      4  N   UNL     1      -1.742  -7.798   5.268  0.00  0.00    -0.284 N 
ATOM      5  H   UNL     1      -1.656  -6.969   5.765  0.00  0.00    +0.155 HD
BRANCH   4   6
ATOM      6  C   UNL     1      -1.850  -9.015   5.951  0.00  0.00    +0.045 A 
ATOM      7  C   UNL     1      -2.468 -10.100   5.343  0.00  0.00    +0.025 A 
ATOM      8  C   UNL     1      -2.574 -11.300   6.019  0.00  0.00    +0.022 A 
ATOM      9  C   UNL     1      -2.066 -11.421   7.300  0.00  0.00    +0.042 A 
ATOM     10  C   UNL     1      -1.450 -10.341   7.908  0.00  0.00    +0.034 A 
ATOM     11  C   UNL     1      -1.336  -9.141   7.234  0.00  0.00    +0.077 A 
ATOM     12 CL   UNL     1      -2.202 -12.931   8.147  0.00  0.00    -0.084 Cl
BRANCH  11  13
ATOM     13  C   UNL     1      -0.660  -7.967   7.894  0.00  0.00    +0.419 C 
ATOM     14  F   UNL     1      -0.229  -8.336   9.173  0.00  0.00    -0.166 F 
ATOM     15  F   UNL     1       0.441  -7.571   7.127  0.00  0.00    -0.166 F 
ATOM     16  F   UNL     1      -1.564  -6.904   7.996  0.00  0.00    -0.166 F 
ENDBRANCH  11  13
ENDBRANCH   4   6
ENDBRANCH   1   2
BRANCH   1  17
ATOM     17  S   UNL     1      -1.788  -6.765   1.399  0.00  0.00    -0.107 S 
BRANCH  17  21
ATOM     18  C   UNL     1      -0.827  -4.145  -1.245  0.00  0.00    +0.244 C 
ATOM     19  N   UNL     1       0.140  -4.048  -0.143  0.00  0.00    -0.167 NA
ATOM     20  N   UNL     1      -0.303  -4.566   0.886  0.00  0.00    -0.159 NA
ATOM     21  C   UNL     1      -1.650  -5.109   0.671  0.00  0.00    +0.272 C 
ATOM     22  N   UNL     1      -1.800  -5.177  -0.807  0.00  0.00    -0.183 NA
BRANCH  18  26
ATOM     23  C   UNL     1      -0.287  -0.294  -3.917  0.00  0.00    +0.067 C 
ATOM     24  C   UNL     1      -0.954  -1.352  -3.075  0.00  0.00    +0.058 C 
ATOM     25  C   UNL     1      -0.536  -1.733  -1.866  0.00  0.00    +0.029 C 
ATOM     26  C   UNL     1      -1.531  -2.803  -1.456  0.00  0.00    +0.195 C 
ATOM     27  N   UNL     1      -2.445  -2.866  -2.610  0.00  0.00    -0.176 NA
ATOM     28  N   UNL     1      -2.059  -2.039  -3.440  0.00  0.00    -0.159 NA
ENDBRANCH  18  26
BRANCH  22  29
ATOM     29  N   UNL     1      -1.428  -6.490  -1.310  0.00  0.00    -0.263 NA
ATOM     30  H   UNL     1      -2.132  -7.177  -1.083  0.00  0.00    +0.137 HD
ATOM     31  H   UNL     1      -1.258  -6.462  -2.304  0.00  0.00    +0.137 HD
ENDBRANCH  22  29
ENDBRANCH  17  21
ENDBRANCH   1  17
TORSDOF 7
