REMARK  Name = ZINC08385093
REMARK  11 active torsions:
REMARK  status: ('A' for Active; 'I' for Inactive)
REMARK    1  A    between atoms: C_1  and  C_2
REMARK    2  A    between atoms: C_3  and  C_34
REMARK    3  A    between atoms: C_5  and  N_26
REMARK    4  A    between atoms: C_6  and  C_7
REMARK    5  A    between atoms: C_7  and  C_9
REMARK    6  A    between atoms: C_7  and  N_19
REMARK    7  A    between atoms: C_12  and  O_17
REMARK    8  A    between atoms: C_13  and  O_15
REMARK    9  A    between atoms: O_15  and  C_16
REMARK   10  A    between atoms: O_17  and  C_18
REMARK   11  A    between atoms: C_27  and  C_29
REMARK                            x       y       z     vdW  Elec       q    Type
REMARK                         _______ _______ _______ _____ _____    ______ ____
ROOT
ATOM      1  C   UNL     1       0.047  -0.409   2.519  0.00  0.00    +0.135 C 
ENDROOT
BRANCH   1   2
ATOM      2  N   UNL     1       1.284  -0.903   3.128  0.00  0.00    -0.320 N 
ATOM      3  C   UNL     1       2.496  -0.288   2.836  0.00  0.00    +0.097 A 
ATOM      4  C   UNL     1       2.515   0.864   2.056  0.00  0.00    +0.041 A 
ATOM      5  C   UNL     1       3.728   1.466   1.774  0.00  0.00    +0.005 A 
ATOM      6  C   UNL     1       4.886   0.892   2.281  0.00  0.00    +0.018 A 
ATOM      7  C   UNL     1       4.794  -0.252   3.048  0.00  0.00    +0.084 A 
ATOM      8  N   UNL     1       3.622  -0.802   3.306  0.00  0.00    -0.350 N 
ATOM      9  H   UNL     1       1.258  -1.659   3.735  0.00  0.00    +0.148 HD
ATOM     10  H   UNL     1       3.585  -1.603   3.851  0.00  0.00    +0.166 HD
ENDBRANCH   1   2
BRANCH   1  16
ATOM     11  C   UNL     1      -0.840   1.323   0.349  0.00  0.00    +0.045 C 
ATOM     12  C   UNL     1      -0.489  -0.119   0.083  0.00  0.00    -0.033 A 
ATOM     13  C   UNL     1      -0.576  -0.626  -1.170  0.00  0.00    -0.008 A 
ATOM     14  S   UNL     1      -0.061  -2.318  -0.924  0.00  0.00    -0.078 S 
ATOM     15  C   UNL     1       0.236  -2.238   0.835  0.00  0.00    +0.078 A 
ATOM     16  C   UNL     1      -0.068  -0.939   1.113  0.00  0.00    +0.009 A 
ATOM     17  C   UNL     1      -0.998   0.060  -2.444  0.00  0.00    +0.052 C 
BRANCH  15  18
ATOM     18  N   UNL     1       0.672  -3.244   1.700  0.00  0.00    -0.273 N 
ATOM     19  C   UNL     1       0.818  -4.505   1.247  0.00  0.00    +0.284 C 
ATOM     20  O   UNL     1       0.658  -4.750   0.066  0.00  0.00    -0.266 OA
ATOM     21  H   UNL     1       0.870  -3.035   2.626  0.00  0.00    +0.156 HD
BRANCH  19  22
ATOM     22  C   UNL     1       1.168  -5.582   2.179  0.00  0.00    +0.189 A 
ATOM     23  C   UNL     1       1.442  -6.877   1.842  0.00  0.00    +0.054 A 
ATOM     24  C   UNL     1       1.724  -7.554   3.038  0.00  0.00    +0.042 A 
ATOM     25  C   UNL     1       1.612  -6.655   4.040  0.00  0.00    +0.196 A 
ATOM     26  O   UNL     1       1.282  -5.466   3.518  0.00  0.00    -0.458 OA
ENDBRANCH  19  22
ENDBRANCH  15  18
ENDBRANCH   1  16
BRANCH   1  27
ATOM     27  C   UNL     1      -1.134  -0.876   3.330  0.00  0.00    -0.019 A 
ATOM     28  C   UNL     1      -1.086  -2.096   3.978  0.00  0.00    +0.009 A 
ATOM     29  C   UNL     1      -2.167  -2.529   4.724  0.00  0.00    +0.050 A 
ATOM     30  C   UNL     1      -3.301  -1.740   4.823  0.00  0.00    +0.162 A 
ATOM     31  C   UNL     1      -3.349  -0.511   4.171  0.00  0.00    +0.162 A 
ATOM     32  C   UNL     1      -2.261  -0.081   3.430  0.00  0.00    +0.055 A 
BRANCH  31  33
ATOM     33  O   UNL     1      -4.460   0.267   4.266  0.00  0.00    -0.491 OA
ATOM     34  C   UNL     1      -4.439   1.516   3.570  0.00  0.00    +0.277 C 
ENDBRANCH  31  33
BRANCH  30  35
ATOM     35  O   UNL     1      -4.365  -2.164   5.556  0.00  0.00    -0.491 OA
ATOM     36  C   UNL     1      -4.245  -3.436   6.197  0.00  0.00    +0.277 C 
ENDBRANCH  30  35
ENDBRANCH   1  27
TORSDOF 7
