REMARK  Name = ZINC64816182
REMARK  7 active torsions:
REMARK  status: ('A' for Active; 'I' for Inactive)
REMARK    1  A    between atoms: C_1  and  C_2
REMARK    2  A    between atoms: C_5  and  C_8
REMARK    3  A    between atoms: C_8  and  N_9
REMARK    4  A    between atoms: C_10  and  C_12
REMARK    5  A    between atoms: C_12  and  C_37
REMARK    6  A    between atoms: C_17  and  C_19
REMARK    7  A    between atoms: N_26  and  C_27
REMARK                            x       y       z     vdW  Elec       q    Type
REMARK                         _______ _______ _______ _____ _____    ______ ____
ROOT
ATOM      1  C   UNL     1       3.508  -6.685   0.083  0.00  0.00    +0.135 C 
ATOM      2  C   UNL     1       4.113  -6.517   1.476  0.00  0.00    +0.179 C 
ATOM      3  N   UNL     1       3.956  -5.123   1.908  0.00  0.00    -0.256 N 
ATOM      4  C   UNL     1       3.936  -4.091   0.995  0.00  0.00    +0.125 A 
ATOM      5  C   UNL     1       3.805  -2.930   1.698  0.00  0.00    +0.065 A 
ATOM      6  C   UNL     1       3.738  -3.329   3.052  0.00  0.00    +0.128 A 
ATOM      7  N   UNL     1       3.830  -4.647   3.086  0.00  0.00    -0.167 NA
ATOM      8  C   UNL     1       4.030  -4.346  -0.452  0.00  0.00    +0.270 C 
ATOM      9  O   UNL     1       4.190  -3.444  -1.252  0.00  0.00    -0.268 OA
ATOM     10  N   UNL     1       3.931  -5.639  -0.842  0.00  0.00    -0.250 N 
ATOM     11  C   UNL     1       3.934  -8.043  -0.478  0.00  0.00    +0.044 C 
ENDROOT
BRANCH  10  12
ATOM     12  C   UNL     1       4.240  -5.980  -2.164  0.00  0.00    +0.041 A 
ATOM     13  C   UNL     1       5.558  -6.224  -2.529  0.00  0.00    +0.027 A 
ATOM     14  C   UNL     1       5.864  -6.559  -3.833  0.00  0.00    +0.051 A 
ATOM     15  C   UNL     1       4.857  -6.654  -4.783  0.00  0.00    +0.162 A 
ATOM     16  C   UNL     1       3.537  -6.413  -4.421  0.00  0.00    +0.164 A 
ATOM     17  C   UNL     1       3.230  -6.080  -3.111  0.00  0.00    +0.073 A 
ATOM     18  O   UNL     1       2.535  -6.508  -5.337  0.00  0.00    -0.485 OA
ATOM     19  C   UNL     1       2.919  -6.482  -6.716  0.00  0.00    +0.270 C 
ATOM     20  C   UNL     1       4.109  -7.434  -6.902  0.00  0.00    +0.270 C 
ATOM     21  O   UNL     1       5.179  -6.981  -6.065  0.00  0.00    -0.485 OA
ENDBRANCH  10  12
BRANCH   6  22
ATOM     22  C   UNL     1       3.591  -2.434   4.221  0.00  0.00    +0.155 A 
ATOM     23  C   UNL     1       3.532  -2.823   5.521  0.00  0.00    +0.051 A 
ATOM     24  C   UNL     1       3.391  -1.650   6.290  0.00  0.00    +0.042 A 
ATOM     25  C   UNL     1       3.372  -0.614   5.430  0.00  0.00    +0.196 A 
ATOM     26  O   UNL     1       3.498  -1.091   4.180  0.00  0.00    -0.461 OA
ENDBRANCH   6  22
BRANCH   1  28
ATOM     27  N   UNL     1       1.348  -5.480   0.142  0.00  0.00    -0.309 N 
ATOM     28  C   UNL     1       2.006  -6.656   0.198  0.00  0.00    +0.239 C 
ATOM     29  O   UNL     1       1.388  -7.690   0.339  0.00  0.00    -0.273 OA
ATOM     30  H   UNL     1       1.842  -4.653   0.029  0.00  0.00    +0.149 HD
BRANCH  27  31
ATOM     31  C   UNL     1      -0.112  -5.452   0.254  0.00  0.00    +0.139 C 
BRANCH  31  36
ATOM     32  C   UNL     1      -1.967   0.010  -0.095  0.00  0.00    +0.044 C 
ATOM     33  C   UNL     1      -1.483  -1.414  -0.004  0.00  0.00    -0.050 A 
ATOM     34  C   UNL     1      -1.353  -2.175  -1.151  0.00  0.00    +0.003 A 
ATOM     35  C   UNL     1      -0.909  -3.481  -1.068  0.00  0.00    +0.005 A 
ATOM     36  C   UNL     1      -0.595  -4.027   0.163  0.00  0.00    -0.030 A 
ATOM     37  C   UNL     1      -0.724  -3.266   1.310  0.00  0.00    +0.005 A 
ATOM     38  C   UNL     1      -1.164  -1.959   1.226  0.00  0.00    +0.003 A 
ENDBRANCH  31  36
ENDBRANCH  27  31
ENDBRANCH   1  28
TORSDOF 5
