REMARK  Name = ZINC41310975
REMARK  5 active torsions:
REMARK  status: ('A' for Active; 'I' for Inactive)
REMARK    1  A    between atoms: C_3  and  C_6
REMARK    2  A    between atoms: C_6  and  N_7
REMARK    3  A    between atoms: C_8  and  C_10
REMARK    4  A    between atoms: C_14  and  N_15
REMARK    5  A    between atoms: C_16  and  C_18
REMARK                            x       y       z     vdW  Elec       q    Type
REMARK                         _______ _______ _______ _____ _____    ______ ____
ROOT
ATOM      1  C   UNL     1       5.930   0.556   2.957  0.00  0.00    +0.069 A 
ATOM      2  C   UNL     1       6.167  -0.702   3.664  0.00  0.00    -0.023 A 
ATOM      3  C   UNL     1       6.626  -0.547   4.919  0.00  0.00    -0.004 A 
ATOM      4  S   UNL     1       6.739   1.210   5.142  0.00  0.00    -0.077 S 
ATOM      5  C   UNL     1       6.204   1.728   3.639  0.00  0.00    +0.085 A 
ATOM      6  C   UNL     1       6.848  -1.870   5.601  0.00  0.00    +0.043 C 
ATOM      7  C   UNL     1       6.058  -2.887   4.748  0.00  0.00    +0.010 C 
ATOM      8  C   UNL     1       6.038  -2.195   3.370  0.00  0.00    +0.037 C 
ENDROOT
BRANCH   1  10
ATOM      9  N   UNL     1       4.101   0.607   1.347  0.00  0.00    -0.304 N 
ATOM     10  C   UNL     1       5.428   0.575   1.580  0.00  0.00    +0.247 C 
ATOM     11  O   UNL     1       6.209   0.561   0.647  0.00  0.00    -0.270 OA
ATOM     12  H   UNL     1       3.478   0.617   2.090  0.00  0.00    +0.149 HD
BRANCH   9  13
ATOM     13  C   UNL     1       3.599   0.625  -0.029  0.00  0.00    +0.179 C 
BRANCH  13  16
ATOM     14  C   UNL     1      -0.016   1.341   0.009  0.00  0.00    +0.041 A 
ATOM     15  C   UNL     1       1.331   1.769  -0.001  0.00  0.00    +0.046 A 
ATOM     16  C   UNL     1       2.092   0.660  -0.014  0.00  0.00    +0.122 A 
ATOM     17  O   UNL     1       1.282  -0.411  -0.012  0.00  0.00    -0.466 OA
ATOM     18  C   UNL     1       0.002  -0.004   0.002  0.00  0.00    +0.195 A 
ENDBRANCH  13  16
ENDBRANCH   9  13
ENDBRANCH   1  10
BRANCH   5  19
ATOM     19  N   UNL     1       6.067   3.029   3.186  0.00  0.00    -0.273 N 
ATOM     20  C   UNL     1       6.384   4.061   3.993  0.00  0.00    +0.284 C 
ATOM     21  O   UNL     1       6.791   3.849   5.120  0.00  0.00    -0.266 OA
ATOM     22  H   UNL     1       5.742   3.198   2.288  0.00  0.00    +0.156 HD
BRANCH  20  23
ATOM     23  C   UNL     1       6.239   5.441   3.513  0.00  0.00    +0.191 A 
ATOM     24  C   UNL     1       6.532   6.555   4.233  0.00  0.00    +0.063 A 
ATOM     25  C   UNL     1       6.236   7.691   3.361  0.00  0.00    +0.022 A 
ATOM     26  C   UNL     1       6.323   9.078   3.506  0.00  0.00    +0.031 A 
ATOM     27  C   UNL     1       5.958   9.891   2.469  0.00  0.00    +0.042 A 
ATOM     28  C   UNL     1       5.503   9.347   1.274  0.00  0.00    +0.023 A 
ATOM     29  C   UNL     1       5.410   7.982   1.113  0.00  0.00    +0.048 A 
ATOM     30  C   UNL     1       5.776   7.135   2.153  0.00  0.00    +0.136 A 
ATOM     31  O   UNL     1       5.799   5.794   2.287  0.00  0.00    -0.450 OA
ATOM     32 CL   UNL     1       6.065  11.615   2.646  0.00  0.00    -0.084 Cl
ENDBRANCH  20  23
ENDBRANCH   5  19
TORSDOF 5
