REMARK  Name = ZINC14550707
REMARK  7 active torsions:
REMARK  status: ('A' for Active; 'I' for Inactive)
REMARK    1  A    between atoms: C_1  and  C_2
REMARK    2  A    between atoms: C_2  and  N_3
REMARK    3  A    between atoms: N_3  and  C_4
REMARK    4  A    between atoms: N_3  and  C_6
REMARK    5  A    between atoms: C_4  and  C_5
REMARK    6  A    between atoms: C_19  and  C_22
REMARK    7  A    between atoms: C_25  and  N_28
REMARK                            x       y       z     vdW  Elec       q    Type
REMARK                         _______ _______ _______ _____ _____    ______ ____
ROOT
ATOM      1  C   UNL     1      -1.747  -1.791   0.454  0.00  0.00    +0.014 A 
ATOM      2  C   UNL     1      -1.049  -2.431  -0.554  0.00  0.00    +0.023 A 
ATOM      3  C   UNL     1      -0.925  -3.805  -0.547  0.00  0.00    +0.025 A 
ATOM      4  C   UNL     1      -1.496  -4.556   0.474  0.00  0.00    +0.031 A 
ATOM      5  C   UNL     1      -2.190  -3.901   1.497  0.00  0.00    -0.018 A 
ATOM      6  C   UNL     1      -2.310  -2.528   1.480  0.00  0.00    +0.027 A 
ATOM      7  C   UNL     1      -2.748  -4.733   2.585  0.00  0.00    +0.049 C 
ATOM      8  C   UNL     1      -3.938  -4.309   3.366  0.00  0.00    -0.023 C 
ATOM      9  C   UNL     1      -4.608  -5.392   3.740  0.00  0.00    -0.030 C 
ATOM     10  C   UNL     1      -3.920  -6.646   3.198  0.00  0.00    +0.033 C 
ATOM     11  C   UNL     1      -3.219  -6.081   1.960  0.00  0.00    +0.029 C 
ATOM     12  C   UNL     1      -1.950  -6.790   1.523  0.00  0.00    +0.105 C 
ATOM     13  N   UNL     1      -1.375  -5.951   0.448  0.00  0.00    -0.336 N 
ATOM     14  H   UNL     1      -0.906  -6.375  -0.288  0.00  0.00    +0.147 HD
ENDROOT
BRANCH  12  15
ATOM     15  C   UNL     1      -0.987  -6.893   2.677  0.00  0.00    -0.027 A 
ATOM     16  C   UNL     1      -1.037  -7.986   3.523  0.00  0.00    +0.008 A 
ATOM     17  C   UNL     1      -0.153  -8.081   4.582  0.00  0.00    +0.033 A 
ATOM     18  C   UNL     1       0.780  -7.084   4.795  0.00  0.00    +0.126 A 
ATOM     19  C   UNL     1       0.831  -5.992   3.949  0.00  0.00    +0.033 A 
ATOM     20  C   UNL     1      -0.050  -5.899   2.887  0.00  0.00    +0.008 A 
BRANCH  18  21
ATOM     21  N   UNL     1       1.725  -7.185   5.930  0.00  0.00    +0.056 N 
ATOM     22  O   UNL     1       1.681  -8.140   6.670  0.00  0.00    -0.126 OA
ATOM     23  O   UNL     1       2.542  -6.314   6.116  0.00  0.00    -0.126 OA
ENDBRANCH  18  21
ENDBRANCH  12  15
BRANCH   1  24
ATOM     24  N   UNL     1      -1.877  -0.400   0.440  0.00  0.00    -0.394 NA
ATOM     25  H   UNL     1      -2.407  -0.103   1.246  0.00  0.00    +0.126 HD
BRANCH  24  27
ATOM     26  C   UNL     1      -0.688   1.736   0.587  0.00  0.00    +0.022 C 
ATOM     27  C   UNL     1      -0.544   0.217   0.477  0.00  0.00    +0.081 C 
ENDBRANCH  24  27
BRANCH  24  28
ATOM     28  C   UNL     1      -2.574   0.015  -0.785  0.00  0.00    +0.081 C 
ATOM     29  C   UNL     1      -4.005  -0.525  -0.764  0.00  0.00    +0.022 C 
ENDBRANCH  24  28
ENDBRANCH   1  24
TORSDOF 5
