REMARK  Name = ZINC01234683
REMARK  12 active torsions:
REMARK  status: ('A' for Active; 'I' for Inactive)
REMARK    1  A    between atoms: C_1  and  C_2
REMARK    2  A    between atoms: C_2  and  O_3
REMARK    3  A    between atoms: O_3  and  C_4
REMARK    4  A    between atoms: C_6  and  C_12
REMARK    5  A    between atoms: C_9  and  O_10
REMARK    6  A    between atoms: N_13  and  N_14
REMARK    7  A    between atoms: C_15  and  C_17
REMARK    8  A    between atoms: C_17  and  O_18
REMARK    9  A    between atoms: O_18  and  C_19
REMARK   10  A    between atoms: C_20  and  C_27
REMARK   11  A    between atoms: C_23  and  C_26
REMARK   12  A    between atoms: C_24  and  C_25
REMARK                            x       y       z     vdW  Elec       q    Type
REMARK                         _______ _______ _______ _____ _____    ______ ____
ROOT
ATOM      1  N   UNL     1      -0.862   3.233   1.472  0.00  0.00    -0.204 N 
ATOM      2  C   UNL     1      -0.723   1.911   1.250  0.00  0.00    +0.270 C 
ATOM      3  O   UNL     1      -1.165   1.112   2.048  0.00  0.00    -0.270 OA
ATOM      4  H   UNL     1      -0.508   3.872   0.833  0.00  0.00    +0.177 HD
ENDROOT
BRANCH   1   6
ATOM      5  C   UNL     1      -1.651   4.958   2.838  0.00  0.00    +0.138 C 
ATOM      6  N   UNL     1      -1.518   3.685   2.624  0.00  0.00    -0.188 NA
BRANCH   5   9
ATOM      7  C   UNL     1      -3.135   7.244   5.421  0.00  0.00    +0.163 A 
ATOM      8  C   UNL     1      -2.482   6.804   4.285  0.00  0.00    +0.059 A 
ATOM      9  C   UNL     1      -2.341   5.433   4.051  0.00  0.00    -0.001 A 
ATOM     10  C   UNL     1      -2.852   4.515   4.971  0.00  0.00    +0.027 A 
ATOM     11  C   UNL     1      -3.497   4.962   6.106  0.00  0.00    +0.059 A 
ATOM     12  C   UNL     1      -3.641   6.323   6.335  0.00  0.00    +0.172 A 
ATOM     13  I   UNL     1      -4.263   3.583   7.485  0.00  0.00    -0.040 I 
BRANCH  12  14
ATOM     14  O   UNL     1      -4.278   6.758   7.454  0.00  0.00    -0.503 OA
ATOM     15  H   UNL     1      -3.693   6.893   8.213  0.00  0.00    +0.292 HD
ENDBRANCH  12  14
BRANCH   7  16
ATOM     16  O   UNL     1      -3.278   8.577   5.649  0.00  0.00    -0.489 OA
BRANCH  16  18
ATOM     17  C   UNL     1      -2.991  10.912   5.095  0.00  0.00    +0.048 C 
ATOM     18  C   UNL     1      -2.735   9.465   4.670  0.00  0.00    +0.226 C 
ENDBRANCH  16  18
ENDBRANCH   7  16
ENDBRANCH   5   9
ENDBRANCH   1   6
BRANCH   2  19
ATOM     19  C   UNL     1      -0.017   1.425   0.010  0.00  0.00    +0.326 C 
BRANCH  19  20
ATOM     20  O   UNL     1       0.002  -0.004   0.002  0.00  0.00    -0.482 OA
BRANCH  20  21
ATOM     21  C   UNL     1       0.606  -0.607  -1.056  0.00  0.00    +0.127 A 
ATOM     22  C   UNL     1      -0.132  -0.931  -2.185  0.00  0.00    -0.008 A 
ATOM     23  C   UNL     1       0.485  -1.540  -3.261  0.00  0.00    +0.007 A 
ATOM     24  C   UNL     1       1.835  -1.835  -3.209  0.00  0.00    +0.004 A 
ATOM     25  C   UNL     1       2.571  -1.518  -2.083  0.00  0.00    -0.044 A 
ATOM     26  C   UNL     1       1.960  -0.904  -1.006  0.00  0.00    -0.006 A 
ATOM     27  C   UNL     1       2.763  -0.559   0.222  0.00  0.00    +0.048 C 
ATOM     28  C   UNL     1       4.042  -1.840  -2.030  0.00  0.00    +0.044 C 
ATOM     29  C   UNL     1      -1.605  -0.616  -2.240  0.00  0.00    +0.047 C 
ENDBRANCH  20  21
ENDBRANCH  19  20
ENDBRANCH   2  19
TORSDOF 8
