REMARK  Name = ZINC43040232
REMARK  6 active torsions:
REMARK  status: ('A' for Active; 'I' for Inactive)
REMARK    1  A    between atoms: C_1  and  C_2
REMARK    2  A    between atoms: C_7  and  C_8
REMARK    3  A    between atoms: C_8  and  C_10
REMARK    4  A    between atoms: C_8  and  O_12
REMARK    5  A    between atoms: C_10  and  N_11
REMARK    6  A    between atoms: O_12  and  C_13
REMARK                            x       y       z     vdW  Elec       q    Type
REMARK                         _______ _______ _______ _____ _____    ______ ____
ROOT
ATOM      1  C   UNL     1      -0.006   0.045   2.488  0.00  0.00    +0.187 C 
ENDROOT
BRANCH   1   8
ATOM      2  C   UNL     1      -0.155   1.588   0.050  0.00  0.00    +0.044 C 
ATOM      3  C   UNL     1      -0.231   0.084  -0.004  0.00  0.00    -0.044 A 
ATOM      4  C   UNL     1      -0.366  -0.557  -1.221  0.00  0.00    +0.004 A 
ATOM      5  C   UNL     1      -0.436  -1.937  -1.272  0.00  0.00    +0.000 A 
ATOM      6  C   UNL     1      -0.370  -2.675  -0.104  0.00  0.00    +0.000 A 
ATOM      7  C   UNL     1      -0.234  -2.034   1.112  0.00  0.00    +0.007 A 
ATOM      8  C   UNL     1      -0.160  -0.654   1.162  0.00  0.00    -0.006 A 
ENDBRANCH   1   8
BRANCH   1   9
ATOM      9  C   UNL     1       1.475   0.325   2.748  0.00  0.00    -0.036 C 
BRANCH   9  10
ATOM     10  N   UNL     1       1.625   1.006   4.041  0.00  0.00    +0.381 N 
ATOM     11  H   UNL     1       1.116   1.878   4.023  0.00  0.00    -0.090 HD
ATOM     12  H   UNL     1       1.260   0.419   4.775  0.00  0.00    -0.090 HD
ATOM     13  H   UNL     1       2.602   1.191   4.213  0.00  0.00    -0.090 HD
ENDBRANCH   9  10
ENDBRANCH   1   9
BRANCH   1  14
ATOM     14  O   UNL     1      -0.523  -0.787   3.528  0.00  0.00    -0.485 OA
BRANCH  14  15
ATOM     15  C   UNL     1      -1.077  -0.163   4.601  0.00  0.00    +0.134 A 
ATOM     16  C   UNL     1      -1.185   1.220   4.620  0.00  0.00    +0.047 A 
ATOM     17  C   UNL     1      -1.748   1.853   5.711  0.00  0.00    +0.004 A 
ATOM     18  C   UNL     1      -2.203   1.109   6.785  0.00  0.00    +0.001 A 
ATOM     19  C   UNL     1      -2.095  -0.269   6.769  0.00  0.00    +0.018 A 
ATOM     20  C   UNL     1      -1.539  -0.907   5.676  0.00  0.00    +0.055 A 
ATOM     21  I   UNL     1      -1.385  -2.997   5.649  0.00  0.00    -0.040 I 
ENDBRANCH  14  15
ENDBRANCH   1  14
TORSDOF 5
