REMARK  Name = ZINC32100718
REMARK  3 active torsions:
REMARK  status: ('A' for Active; 'I' for Inactive)
REMARK    1  A    between atoms: C_11  and  C_12
REMARK    2  A    between atoms: C_12  and  C_14
REMARK    3  A    between atoms: C_12  and  N_17
REMARK                            x       y       z     vdW  Elec       q    Type
REMARK                         _______ _______ _______ _____ _____    ______ ____
ROOT
ATOM      1  C   UNL     1       0.002  -0.004   0.002  0.00  0.00    +0.080 C 
ENDROOT
BRANCH   1   2
ATOM      2  N   UNL     1       0.027   1.288  -0.697  0.00  0.00    +0.394 N 
ATOM      3  C   UNL     1      -0.449   1.147  -2.080  0.00  0.00    -0.058 C 
ATOM      4  C   UNL     1      -0.483   2.524  -2.748  0.00  0.00    +0.089 C 
ATOM      5  N   UNL     1       0.862   3.115  -2.714  0.00  0.00    -0.303 N 
ATOM      6  C   UNL     1       1.337   3.256  -1.331  0.00  0.00    +0.089 C 
ATOM      7  C   UNL     1       1.371   1.879  -0.663  0.00  0.00    -0.058 C 
ATOM      8  C   UNL     1       0.885   4.333  -3.373  0.00  0.00    +0.218 A 
ATOM      9  N   UNL     1       1.299   5.411  -2.724  0.00  0.00    -0.222 NA
ATOM     10  C   UNL     1       1.338   6.589  -3.325  0.00  0.00    +0.131 A 
ATOM     11  C   UNL     1       0.929   6.687  -4.647  0.00  0.00    +0.054 A 
ATOM     12  C   UNL     1       0.496   5.539  -5.294  0.00  0.00    +0.131 A 
ATOM     13  N   UNL     1       0.487   4.392  -4.635  0.00  0.00    -0.222 NA
ATOM     14 BR   UNL     1       0.959   8.350  -5.546  0.00  0.00    -0.047 Br
ATOM     15  H   UNL     1      -0.657   1.969  -0.170  0.00  0.00    -0.080 HD
ENDBRANCH   1   2
BRANCH   1  26
ATOM     16  C   UNL     1       2.005  -2.804   3.184  0.00  0.00    +0.021 A 
ATOM     17  C   UNL     1       1.432  -2.128   2.143  0.00  0.00    +0.011 A 
ATOM     18  C   UNL     1       1.037  -0.800   2.313  0.00  0.00    +0.002 A 
ATOM     19  C   UNL     1       1.231  -0.163   3.552  0.00  0.00    +0.048 A 
ATOM     20  C   UNL     1       1.816  -0.868   4.598  0.00  0.00    +0.046 A 
ATOM     21  C   UNL     1       2.199  -2.180   4.409  0.00  0.00    +0.043 A 
ATOM     22 CL   UNL     1       2.930  -3.058   5.715  0.00  0.00    -0.083 Cl
ATOM     23  N   UNL     1       0.753   1.123   3.426  0.00  0.00    -0.360 N 
ATOM     24  H   UNL     1       0.798   1.812   4.282  0.00  0.00    +0.165 HD
ATOM     25  C   UNL     1       0.272   1.319   2.160  0.00  0.00    +0.086 A 
ATOM     26  C   UNL     1       0.410   0.195   1.439  0.00  0.00    -0.025 A 
ENDBRANCH   1  26
BRANCH   1  27
ATOM     27  C   UNL     1      -1.391  -0.577  -0.050  0.00  0.00    +0.347 C 
ATOM     28  O   UNL     1      -2.345   0.160  -0.118  0.00  0.00    -0.248 OA
ATOM     29  O   UNL     1      -1.571  -1.907  -0.022  0.00  0.00    -0.248 OA
ENDBRANCH   1  27
TORSDOF 3
