REMARK  Name = ZINC45899053
REMARK  13 active torsions:
REMARK  status: ('A' for Active; 'I' for Inactive)
REMARK    1  A    between atoms: C_1  and  C_2
REMARK    2  A    between atoms: C_2  and  C_3
REMARK    3  A    between atoms: C_2  and  C_4
REMARK    4  A    between atoms: C_4  and  N_5
REMARK    5  A    between atoms: C_6  and  C_8
REMARK    6  A    between atoms: C_8  and  C_9
REMARK    7  A    between atoms: C_9  and  C_10
REMARK    8  A    between atoms: C_10  and  C_11
REMARK    9  A    between atoms: C_11  and  N_12
REMARK   10  A    between atoms: N_21  and  C_24
REMARK   11  A    between atoms: C_24  and  C_25
REMARK   12  A    between atoms: N_27  and  C_28
REMARK   13  A    between atoms: C_28  and  C_29
REMARK                            x       y       z     vdW  Elec       q    Type
REMARK                         _______ _______ _______ _____ _____    ______ ____
ROOT
ATOM      1  N   UNL     1      -5.394  -8.225  -0.502  0.00  0.00    -0.260 N 
ATOM      2  C   UNL     1      -5.427  -8.782  -1.732  0.00  0.00    +0.264 A 
ATOM      3  O   UNL     1      -5.471  -8.089  -2.730  0.00  0.00    -0.267 OA
ATOM      4  C   UNL     1      -5.409 -10.253  -1.834  0.00  0.00    +0.063 A 
ATOM      5  C   UNL     1      -5.440 -10.902  -3.065  0.00  0.00    +0.015 A 
ATOM      6  C   UNL     1      -5.421 -12.281  -3.107  0.00  0.00    +0.001 A 
ATOM      7  C   UNL     1      -5.370 -13.018  -1.933  0.00  0.00    +0.002 A 
ATOM      8  C   UNL     1      -5.339 -12.386  -0.706  0.00  0.00    +0.027 A 
ATOM      9  C   UNL     1      -5.357 -11.001  -0.645  0.00  0.00    +0.059 A 
ATOM     10  N   UNL     1      -5.326 -10.326   0.567  0.00  0.00    -0.284 N 
ATOM     11  C   UNL     1      -5.340  -8.983   0.604  0.00  0.00    +0.333 A 
ATOM     12  O   UNL     1      -5.307  -8.430   1.687  0.00  0.00    -0.246 OA
ENDROOT
BRANCH   1  13
ATOM     13  C   UNL     1      -5.411  -6.766  -0.374  0.00  0.00    +0.130 C 
BRANCH  13  14
ATOM     14  C   UNL     1      -3.975  -6.236  -0.385  0.00  0.00    +0.022 C 
BRANCH  14  15
ATOM     15  C   UNL     1      -3.993  -4.712  -0.251  0.00  0.00    +0.011 C 
BRANCH  15  16
ATOM     16  C   UNL     1      -2.558  -4.183  -0.262  0.00  0.00    +0.096 C 
BRANCH  16  18
ATOM     17  N   UNL     1      -1.416  -1.993  -0.116  0.00  0.00    -0.315 N 
ATOM     18  C   UNL     1      -2.575  -2.682  -0.130  0.00  0.00    +0.213 C 
ATOM     19  O   UNL     1      -3.631  -2.093  -0.036  0.00  0.00    -0.276 OA
ATOM     20  H   UNL     1      -0.572  -2.463  -0.190  0.00  0.00    +0.149 HD
BRANCH  17  21
ATOM     21  C   UNL     1      -1.433  -0.534   0.013  0.00  0.00    +0.107 C 
BRANCH  21  23
ATOM     22  C   UNL     1      -0.019   1.526   0.010  0.00  0.00    +0.009 C 
ATOM     23  C   UNL     1       0.002  -0.004   0.002  0.00  0.00    -0.000 C 
ATOM     24  C   UNL     1       0.742  -0.511   1.242  0.00  0.00    +0.009 C 
ENDBRANCH  21  23
ENDBRANCH  17  21
ENDBRANCH  16  18
ENDBRANCH  15  16
ENDBRANCH  14  15
ENDBRANCH  13  14
ENDBRANCH   1  13
BRANCH  10  25
ATOM     25  C   UNL     1      -5.273 -11.086   1.819  0.00  0.00    +0.222 C 
BRANCH  25  26
ATOM     26  C   UNL     1      -3.835 -11.326   2.200  0.00  0.00    +0.233 C 
ATOM     27  O   UNL     1      -2.942 -10.904   1.496  0.00  0.00    -0.274 OA
ATOM     28  N   UNL     1      -3.540 -12.009   3.324  0.00  0.00    -0.310 N 
ATOM     29  H   UNL     1      -4.254 -12.347   3.887  0.00  0.00    +0.149 HD
BRANCH  28  30
ATOM     30  C   UNL     1      -2.142 -12.242   3.694  0.00  0.00    +0.141 C 
BRANCH  30  31
ATOM     31  C   UNL     1      -2.087 -13.024   4.982  0.00  0.00    -0.012 A 
ATOM     32  C   UNL     1      -1.854 -12.370   6.178  0.00  0.00    +0.006 A 
ATOM     33  C   UNL     1      -1.804 -13.087   7.358  0.00  0.00    +0.000 A 
ATOM     34  C   UNL     1      -1.987 -14.457   7.345  0.00  0.00    +0.001 A 
ATOM     35  C   UNL     1      -2.220 -15.111   6.150  0.00  0.00    +0.020 A 
ATOM     36  C   UNL     1      -2.276 -14.394   4.968  0.00  0.00    +0.046 A 
ATOM     37 CL   UNL     1      -2.575 -15.214   3.467  0.00  0.00    -0.083 Cl
ENDBRANCH  30  31
ENDBRANCH  28  30
ENDBRANCH  25  26
ENDBRANCH  10  25
TORSDOF 11
