REMARK  Name = ZINC59829034
REMARK  5 active torsions:
REMARK  status: ('A' for Active; 'I' for Inactive)
REMARK    1  A    between atoms: C_1  and  C_2
REMARK    2  A    between atoms: C_2  and  C_3
REMARK    3  A    between atoms: C_5  and  C_24
REMARK    4  A    between atoms: C_6  and  N_8
REMARK    5  A    between atoms: C_9  and  C_11
REMARK                            x       y       z     vdW  Elec       q    Type
REMARK                         _______ _______ _______ _____ _____    ______ ____
ROOT
ATOM      1  N   UNL     1       3.596  -1.758   3.752  0.00  0.00    -0.275 N 
ATOM      2  C   UNL     1       4.821  -1.780   3.190  0.00  0.00    +0.255 C 
ATOM      3  O   UNL     1       4.964  -1.441   2.029  0.00  0.00    -0.269 OA
ATOM      4  H   UNL     1       3.482  -2.029   4.677  0.00  0.00    +0.156 HD
ENDROOT
BRANCH   2   5
ATOM      5  C   UNL     1       5.978  -2.213   3.974  0.00  0.00    +0.075 A 
ATOM      6  C   UNL     1       7.309  -2.301   3.587  0.00  0.00    +0.028 A 
ATOM      7  C   UNL     1       8.247  -2.734   4.487  0.00  0.00    +0.005 A 
ATOM      8  C   UNL     1       7.774  -3.060   5.767  0.00  0.00    +0.030 A 
ATOM      9  S   UNL     1       6.042  -2.755   5.677  0.00  0.00    -0.083 S 
ATOM     10  C   UNL     1       8.656  -3.524   6.830  0.00  0.00    +0.031 A 
ATOM     11  C   UNL     1       8.214  -4.103   8.010  0.00  0.00    +0.012 A 
ATOM     12  C   UNL     1       9.134  -4.526   8.950  0.00  0.00    +0.001 A 
ATOM     13  C   UNL     1      10.490  -4.374   8.714  0.00  0.00    +0.004 A 
ATOM     14  C   UNL     1      10.941  -3.792   7.544  0.00  0.00    +0.046 A 
ATOM     15  C   UNL     1      10.038  -3.354   6.592  0.00  0.00    +0.129 A 
ATOM     16  O   UNL     1      10.451  -2.742   5.458  0.00  0.00    -0.487 OA
ATOM     17  C   UNL     1       9.741  -2.896   4.230  0.00  0.00    +0.265 C 
ENDBRANCH   2   5
BRANCH   1  21
ATOM     18  C   UNL     1       0.731  -0.503   1.223  0.00  0.00    -0.007 A 
ATOM     19  C   UNL     1       0.225  -0.800   2.435  0.00  0.00    +0.032 A 
ATOM     20  C   UNL     1       1.177  -1.262   3.418  0.00  0.00    +0.080 A 
ATOM     21  C   UNL     1       2.499  -1.349   3.010  0.00  0.00    +0.090 A 
ATOM     22  S   UNL     1       2.466  -0.849   1.408  0.00  0.00    -0.077 S 
BRANCH  18  24
ATOM     23  C   UNL     1      -0.019   1.526   0.010  0.00  0.00    +0.009 C 
ATOM     24  C   UNL     1       0.002  -0.004   0.002  0.00  0.00    +0.039 C 
ENDBRANCH  18  24
BRANCH  20  25
ATOM     25  C   UNL     1       0.776  -1.613   4.748  0.00  0.00    +0.102 C 
ATOM     26  N   UNL     1       0.457  -1.891   5.802  0.00  0.00    -0.191 NA
ENDBRANCH  20  25
ENDBRANCH   1  21
TORSDOF 4
