REMARK  Name = ZINC10705899
REMARK  17 active torsions:
REMARK  status: ('A' for Active; 'I' for Inactive)
REMARK    1  A    between atoms: C_1  and  C_2
REMARK    2  A    between atoms: C_2  and  O_3
REMARK    3  A    between atoms: O_3  and  C_4
REMARK    4  A    between atoms: C_6  and  C_16
REMARK    5  A    between atoms: C_8  and  O_13
REMARK    6  A    between atoms: C_9  and  O_10
REMARK    7  A    between atoms: O_10  and  C_11
REMARK    8  A    between atoms: C_11  and  C_12
REMARK    9  A    between atoms: O_13  and  C_14
REMARK   10  A    between atoms: C_14  and  C_15
REMARK   11  A    between atoms: N_18  and  C_19
REMARK   12  A    between atoms: C_19  and  C_20
REMARK   13  A    between atoms: C_20  and  S_21
REMARK   14  A    between atoms: S_21  and  N_24
REMARK   15  A    between atoms: N_27  and  S_30
REMARK   16  A    between atoms: S_30  and  C_33
REMARK   17  A    between atoms: C_33  and  C_34
REMARK                            x       y       z     vdW  Elec       q    Type
REMARK                         _______ _______ _______ _____ _____    ______ ____
ROOT
ATOM      1  C   UNL     1      -1.124   7.541   1.857  0.00  0.00    +0.244 C 
ATOM      2  O   UNL     1      -2.088   8.133   1.411  0.00  0.00    -0.270 OA
ATOM      3  N   UNL     1      -0.161   8.219   2.511  0.00  0.00    -0.310 N 
ATOM      4  H   UNL     1       0.609   7.747   2.866  0.00  0.00    +0.149 HD
ENDROOT
BRANCH   1   7
ATOM      5  C   UNL     1       0.200   4.030   2.030  0.00  0.00    +0.166 A 
ATOM      6  C   UNL     1       0.098   5.399   2.192  0.00  0.00    +0.062 A 
ATOM      7  C   UNL     1      -1.010   6.080   1.681  0.00  0.00    +0.044 A 
ATOM      8  C   UNL     1      -2.008   5.377   1.002  0.00  0.00    +0.062 A 
ATOM      9  C   UNL     1      -1.898   4.008   0.838  0.00  0.00    +0.166 A 
ATOM     10  C   UNL     1      -0.793   3.332   1.349  0.00  0.00    +0.204 A 
BRANCH   5  11
ATOM     11  O   UNL     1       1.275   3.365   2.532  0.00  0.00    -0.488 OA
BRANCH  11  13
ATOM     12  C   UNL     1       3.381   3.229   3.710  0.00  0.00    +0.048 C 
ATOM     13  C   UNL     1       2.256   4.143   3.220  0.00  0.00    +0.226 C 
ENDBRANCH  11  13
ENDBRANCH   5  11
BRANCH  10  14
ATOM     14  O   UNL     1      -0.688   1.987   1.186  0.00  0.00    -0.485 OA
BRANCH  14  15
ATOM     15  C   UNL     1      -0.019   1.526   0.010  0.00  0.00    +0.226 C 
ATOM     16  C   UNL     1       0.002  -0.004   0.002  0.00  0.00    +0.048 C 
ENDBRANCH  14  15
ENDBRANCH  10  14
BRANCH   9  17
ATOM     17  O   UNL     1      -2.870   3.323   0.178  0.00  0.00    -0.488 OA
BRANCH  17  18
ATOM     18  C   UNL     1      -3.975   4.081  -0.319  0.00  0.00    +0.226 C 
ATOM     19  C   UNL     1      -4.957   3.145  -1.026  0.00  0.00    +0.048 C 
ENDBRANCH  17  18
ENDBRANCH   9  17
ENDBRANCH   1   7
BRANCH   3  20
ATOM     20  C   UNL     1      -0.274   9.669   2.686  0.00  0.00    +0.128 C 
BRANCH  20  21
ATOM     21  C   UNL     1       0.942  10.187   3.456  0.00  0.00    +0.204 C 
BRANCH  21  22
ATOM     22  S   UNL     1       0.801  11.982   3.672  0.00  0.00    +0.033 S 
ATOM     23  O   UNL     1       0.923  12.638   2.417  0.00  0.00    -0.158 OA
ATOM     24  O   UNL     1      -0.277  12.287   4.547  0.00  0.00    -0.158 OA
BRANCH  22  25
ATOM     25  N   UNL     1       2.161  12.418   4.511  0.00  0.00    -0.179 NA
ATOM     26  C   UNL     1       2.159  12.441   5.980  0.00  0.00    +0.126 C 
ATOM     27  C   UNL     1       3.308  11.550   6.481  0.00  0.00    +0.126 C 
ATOM     28  N   UNL     1       4.537  11.927   5.769  0.00  0.00    -0.179 NA
ATOM     29  C   UNL     1       4.538  11.909   4.299  0.00  0.00    +0.126 C 
ATOM     30  C   UNL     1       3.390  12.795   3.798  0.00  0.00    +0.126 C 
BRANCH  28  31
ATOM     31  S   UNL     1       5.898  12.363   6.607  0.00  0.00    +0.032 S 
ATOM     32  O   UNL     1       5.776  11.708   7.862  0.00  0.00    -0.158 OA
ATOM     33  O   UNL     1       6.976  12.058   5.732  0.00  0.00    -0.158 OA
BRANCH  31  34
ATOM     34  C   UNL     1       5.757  14.158   6.822  0.00  0.00    +0.182 C 
ATOM     35  C   UNL     1       6.973  14.676   7.593  0.00  0.00    +0.029 C 
ENDBRANCH  31  34
ENDBRANCH  28  31
ENDBRANCH  22  25
ENDBRANCH  21  22
ENDBRANCH  20  21
ENDBRANCH   3  20
TORSDOF 13
