REMARK  Name = ZINC33274815
REMARK  6 active torsions:
REMARK  status: ('A' for Active; 'I' for Inactive)
REMARK    1  A    between atoms: C_3  and  N_19
REMARK    2  A    between atoms: C_6  and  C_7
REMARK    3  A    between atoms: C_7  and  C_10
REMARK    4  A    between atoms: N_12  and  C_13
REMARK    5  A    between atoms: N_19  and  S_20
REMARK    6  A    between atoms: S_20  and  C_23
REMARK                            x       y       z     vdW  Elec       q    Type
REMARK                         _______ _______ _______ _____ _____    ______ ____
ROOT
ATOM      1  C   UNL     1       1.465  -1.527  -5.458  0.00  0.00    +0.006 A 
ATOM      2  C   UNL     1       2.409  -2.483  -5.137  0.00  0.00    +0.025 A 
ATOM      3  C   UNL     1       3.037  -2.448  -3.899  0.00  0.00    +0.048 A 
ATOM      4  C   UNL     1       2.717  -1.449  -2.989  0.00  0.00    +0.025 A 
ATOM      5  C   UNL     1       1.776  -0.493  -3.318  0.00  0.00    +0.006 A 
ATOM      6  C   UNL     1       1.153  -0.530  -4.552  0.00  0.00    -0.032 A 
ENDROOT
BRANCH   6   7
ATOM      7  C   UNL     1       0.127   0.515  -4.907  0.00  0.00    +0.072 C 
ATOM      8  C   UNL     1       0.451   1.458  -6.067  0.00  0.00    +0.022 C 
ATOM      9  C   UNL     1      -0.603   0.362  -6.243  0.00  0.00    +0.022 C 
BRANCH   7  10
ATOM     10  C   UNL     1      -0.654   1.080  -3.749  0.00  0.00    +0.224 C 
ATOM     11  O   UNL     1      -0.672   2.277  -3.556  0.00  0.00    -0.275 OA
ATOM     12  N   UNL     1      -1.332   0.255  -2.926  0.00  0.00    -0.312 N 
ATOM     13  H   UNL     1      -1.384  -0.822  -3.147  0.00  0.00    +0.149 HD
BRANCH  12  14
ATOM     14  C   UNL     1      -2.000   0.791  -1.738  0.00  0.00    +0.073 C 
ATOM     15  C   UNL     1      -3.155  -0.131  -1.342  0.00  0.00    +0.022 C 
ATOM     16  C   UNL     1      -3.853   0.429  -0.101  0.00  0.00    +0.002 C 
ATOM     17  C   UNL     1      -2.850   0.516   1.052  0.00  0.00    +0.000 C 
ATOM     18  C   UNL     1      -1.696   1.438   0.656  0.00  0.00    +0.002 C 
ATOM     19  C   UNL     1      -0.998   0.878  -0.585  0.00  0.00    +0.022 C 
ENDBRANCH  12  14
ENDBRANCH   7  10
ENDBRANCH   6   7
BRANCH   3  20
ATOM     20  N   UNL     1       3.988  -3.417  -3.569  0.00  0.00    -0.216 N 
ATOM     21  H   UNL     1       4.943  -3.117  -3.113  0.00  0.00    +0.174 HD
BRANCH  20  22
ATOM     22  S   UNL     1       3.677  -5.016  -3.865  0.00  0.00    +0.072 S 
ATOM     23  O   UNL     1       3.284  -5.109  -5.227  0.00  0.00    -0.150 OA
ATOM     24  O   UNL     1       4.776  -5.748  -3.338  0.00  0.00    -0.150 OA
BRANCH  22  25
ATOM     25  C   UNL     1       2.269  -5.460  -2.903  0.00  0.00    +0.109 A 
ATOM     26  C   UNL     1       2.423  -5.845  -1.584  0.00  0.00    +0.029 A 
ATOM     27  C   UNL     1       1.315  -6.187  -0.837  0.00  0.00    +0.006 A 
ATOM     28  C   UNL     1       0.046  -6.160  -1.402  0.00  0.00    -0.044 A 
ATOM     29  C   UNL     1      -0.106  -5.780  -2.716  0.00  0.00    -0.042 A 
ATOM     30  C   UNL     1       1.010  -5.430  -3.466  0.00  0.00    +0.032 A 
ATOM     31  C   UNL     1      -1.452  -5.718  -3.391  0.00  0.00    +0.035 C 
ATOM     32  C   UNL     1      -2.485  -6.522  -2.604  0.00  0.00    +0.005 C 
ATOM     33  C   UNL     1      -2.432  -6.073  -1.139  0.00  0.00    +0.005 C 
ATOM     34  C   UNL     1      -1.117  -6.561  -0.533  0.00  0.00    +0.035 C 
ENDBRANCH  22  25
ENDBRANCH  20  22
ENDBRANCH   3  20
TORSDOF 6
