REMARK  Name = ZINC40382420
REMARK  8 active torsions:
REMARK  status: ('A' for Active; 'I' for Inactive)
REMARK    1  A    between atoms: C_1  and  C_2
REMARK    2  A    between atoms: C_2  and  C_3
REMARK    3  A    between atoms: C_3  and  C_4
REMARK    4  A    between atoms: C_4  and  C_6
REMARK    5  A    between atoms: C_4  and  C_7
REMARK    6  A    between atoms: N_9  and  C_10
REMARK    7  A    between atoms: C_14  and  S_16
REMARK    8  A    between atoms: S_16  and  N_19
REMARK                            x       y       z     vdW  Elec       q    Type
REMARK                         _______ _______ _______ _____ _____    ______ ____
ROOT
ATOM      1  C   UNL     1       2.613  -4.324   3.585  0.00  0.00    +0.038 A 
ATOM      2  C   UNL     1       3.356  -5.481   3.390  0.00  0.00    +0.061 A 
ATOM      3  C   UNL     1       4.201  -5.934   4.386  0.00  0.00    +0.127 A 
ATOM      4  C   UNL     1       4.307  -5.234   5.577  0.00  0.00    +0.067 A 
ATOM      5  C   UNL     1       3.568  -4.082   5.773  0.00  0.00    +0.109 A 
ATOM      6  C   UNL     1       2.726  -3.622   4.778  0.00  0.00    +0.052 A 
ATOM      7  F   UNL     1       4.924  -7.059   4.198  0.00  0.00    -0.205 F 
ENDROOT
BRANCH   1  10
ATOM      8  C   UNL     1       1.597  -2.538   2.385  0.00  0.00    +0.220 C 
ATOM      9  O   UNL     1       2.129  -1.747   3.135  0.00  0.00    -0.275 OA
ATOM     10  N   UNL     1       1.757  -3.862   2.579  0.00  0.00    -0.285 N 
ATOM     11  H   UNL     1       1.278  -4.495   2.022  0.00  0.00    +0.155 HD
BRANCH   8  12
ATOM     12  C   UNL     1       0.757  -2.041   1.237  0.00  0.00    +0.072 C 
ATOM     13  C   UNL     1      -0.672  -2.568   1.385  0.00  0.00    +0.017 C 
BRANCH  12  14
ATOM     14  C   UNL     1       0.740  -0.511   1.243  0.00  0.00    +0.012 C 
BRANCH  14  16
ATOM     15  C   UNL     1      -0.026   1.525   0.014  0.00  0.00    +0.004 C 
ATOM     16  C   UNL     1      -0.008  -0.005   0.008  0.00  0.00    -0.003 C 
ENDBRANCH  14  16
ENDBRANCH  12  14
ENDBRANCH   8  12
ENDBRANCH   1  10
BRANCH   5  17
ATOM     17  S   UNL     1       3.705  -3.196   7.289  0.00  0.00    +0.056 S 
ATOM     18  O   UNL     1       2.501  -2.455   7.436  0.00  0.00    -0.153 OA
ATOM     19  O   UNL     1       4.150  -4.128   8.265  0.00  0.00    -0.153 OA
BRANCH  17  20
ATOM     20  N   UNL     1       4.922  -2.089   7.102  0.00  0.00    -0.204 NA
ATOM     21  H   UNL     1       4.894  -1.250   7.588  0.00  0.00    +0.144 HD
ATOM     22  H   UNL     1       5.663  -2.280   6.505  0.00  0.00    +0.144 HD
ENDBRANCH  17  20
ENDBRANCH   5  17
TORSDOF 6
