REMARK  Name = ZINC21239166
REMARK  13 active torsions:
REMARK  status: ('A' for Active; 'I' for Inactive)
REMARK    1  A    between atoms: C_1  and  C_2
REMARK    2  A    between atoms: C_2  and  C_3
REMARK    3  A    between atoms: C_2  and  O_4
REMARK    4  A    between atoms: O_4  and  C_5
REMARK    5  A    between atoms: C_8  and  C_13
REMARK    6  A    between atoms: C_10  and  O_11
REMARK    7  A    between atoms: O_11  and  C_12
REMARK    8  A    between atoms: C_18  and  C_28
REMARK    9  A    between atoms: C_30  and  O_37
REMARK   10  A    between atoms: C_31  and  O_36
REMARK   11  A    between atoms: C_32  and  O_34
REMARK   12  A    between atoms: O_34  and  C_35
REMARK   13  A    between atoms: O_37  and  C_38
REMARK                            x       y       z     vdW  Elec       q    Type
REMARK                         _______ _______ _______ _____ _____    ______ ____
ROOT
ATOM      1  C   UNL     1      -0.881  -3.152   5.199  0.00  0.00    +0.032 C 
ATOM      2  C   UNL     1      -1.220  -4.472   4.507  0.00  0.00    +0.059 C 
ATOM      3  C   UNL     1      -1.035  -4.335   3.005  0.00  0.00    +0.017 C 
ATOM      4  C   UNL     1      -1.254  -3.157   2.395  0.00  0.00    +0.036 C 
ATOM      5  C   UNL     1      -1.115  -2.887   0.916  0.00  0.00    +0.136 C 
ATOM      6  N   UNL     1      -0.967  -4.074   0.102  0.00  0.00    -0.331 N 
ATOM      7  C   UNL     1       0.151  -4.896   0.221  0.00  0.00    +0.049 A 
ATOM      8  C   UNL     1       1.087  -5.000  -0.795  0.00  0.00    +0.025 A 
ATOM      9  C   UNL     1       2.238  -5.739  -0.586  0.00  0.00    +0.002 A 
ATOM     10  C   UNL     1       2.454  -6.370   0.626  0.00  0.00    +0.002 A 
ATOM     11  C   UNL     1       1.510  -6.285   1.636  0.00  0.00    +0.025 A 
ATOM     12  C   UNL     1       0.350  -5.562   1.421  0.00  0.00    +0.052 A 
ATOM     13  N   UNL     1      -0.660  -5.475   2.372  0.00  0.00    -0.316 N 
ATOM     14  C   UNL     1      -1.650  -2.027   3.149  0.00  0.00    +0.163 C 
ATOM     15  O   UNL     1      -1.859  -0.980   2.570  0.00  0.00    -0.292 OA
ATOM     16  C   UNL     1      -1.819  -2.077   4.638  0.00  0.00    +0.088 C 
ATOM     17  H   UNL     1      -1.745  -4.340  -0.628  0.00  0.00    +0.147 HD
ATOM     18  H   UNL     1      -1.168  -6.424   2.600  0.00  0.00    +0.152 HD
ENDROOT
BRANCH   1  22
ATOM     19  C   UNL     1      -1.472  -3.534   9.417  0.00  0.00    +0.162 A 
ATOM     20  C   UNL     1      -2.522  -3.765   8.543  0.00  0.00    +0.050 A 
ATOM     21  C   UNL     1      -2.328  -3.641   7.181  0.00  0.00    +0.008 A 
ATOM     22  C   UNL     1      -1.087  -3.286   6.685  0.00  0.00    -0.040 A 
ATOM     23  C   UNL     1      -0.033  -3.058   7.551  0.00  0.00    +0.053 A 
ATOM     24  C   UNL     1      -0.222  -3.176   8.918  0.00  0.00    +0.162 A 
BRANCH  24  25
ATOM     25  O   UNL     1       0.812  -2.948   9.772  0.00  0.00    -0.491 OA
ATOM     26  C   UNL     1       2.065  -2.584   9.189  0.00  0.00    +0.277 C 
ENDBRANCH  24  25
BRANCH  19  27
ATOM     27  O   UNL     1      -1.661  -3.656  10.758  0.00  0.00    -0.486 OA
BRANCH  27  29
ATOM     28  C   UNL     1      -3.270  -5.415  11.153  0.00  0.00    +0.051 C 
ATOM     29  C   UNL     1      -2.994  -3.911  11.205  0.00  0.00    +0.167 C 
ATOM     30  C   UNL     1      -3.154  -3.413  12.642  0.00  0.00    +0.051 C 
ENDBRANCH  27  29
ENDBRANCH  19  27
ENDBRANCH   1  22
BRANCH   5  31
ATOM     31  C   UNL     1       0.091  -2.008   0.703  0.00  0.00    -0.016 A 
ATOM     32  C   UNL     1       1.342  -2.447   1.095  0.00  0.00    +0.055 A 
ATOM     33  C   UNL     1       2.454  -1.642   0.901  0.00  0.00    +0.165 A 
ATOM     34  C   UNL     1       2.310  -0.392   0.310  0.00  0.00    +0.201 A 
ATOM     35  C   UNL     1       1.051   0.045  -0.083  0.00  0.00    +0.165 A 
ATOM     36  C   UNL     1      -0.056  -0.766   0.116  0.00  0.00    +0.055 A 
BRANCH  35  37
ATOM     37  O   UNL     1       0.904   1.268  -0.661  0.00  0.00    -0.491 OA
ATOM     38  C   UNL     1      -0.430   1.699  -0.937  0.00  0.00    +0.277 C 
ENDBRANCH  35  37
BRANCH  34  39
ATOM     39  O   UNL     1       3.399   0.401   0.118  0.00  0.00    -0.501 OA
ATOM     40  H   UNL     1       3.283   1.390  -0.350  0.00  0.00    +0.292 HD
ENDBRANCH  34  39
BRANCH  33  41
ATOM     41  O   UNL     1       3.684  -2.075   1.287  0.00  0.00    -0.491 OA
ATOM     42  C   UNL     1       3.757  -3.370   1.886  0.00  0.00    +0.277 C 
ENDBRANCH  33  41
ENDBRANCH   5  31
TORSDOF 8
