REMARK  Name = ZINC34791562
REMARK  15 active torsions:
REMARK  status: ('A' for Active; 'I' for Inactive)
REMARK    1  A    between atoms: C_1  and  C_2
REMARK    2  A    between atoms: C_2  and  C_3
REMARK    3  A    between atoms: C_2  and  C_4
REMARK    4  A    between atoms: C_4  and  C_5
REMARK    5  A    between atoms: C_5  and  N_6
REMARK    6  A    between atoms: C_7  and  C_9
REMARK    7  A    between atoms: C_9  and  C_11
REMARK    8  A    between atoms: C_9  and  N_15
REMARK    9  A    between atoms: C_11  and  C_12
REMARK   10  A    between atoms: C_12  and  C_13
REMARK   11  A    between atoms: C_12  and  C_14
REMARK   12  A    between atoms: C_21  and  C_30
REMARK   13  A    between atoms: N_26  and  C_27
REMARK   14  A    between atoms: C_27  and  C_28
REMARK   15  A    between atoms: C_35  and  C_36
REMARK                            x       y       z     vdW  Elec       q    Type
REMARK                         _______ _______ _______ _____ _____    ______ ____
ROOT
ATOM      1  N   UNL     1      -3.308  -5.298   0.662  0.00  0.00    -0.281 N 
ATOM      2  C   UNL     1      -4.114  -5.587  -0.533  0.00  0.00    +0.160 C 
ATOM      3  C   UNL     1      -4.236  -7.094  -0.564  0.00  0.00    +0.043 C 
ATOM      4  C   UNL     1      -3.561  -7.552   0.510  0.00  0.00    +0.058 C 
ATOM      5  C   UNL     1      -3.005  -6.477   1.234  0.00  0.00    +0.247 C 
ATOM      6  O   UNL     1      -2.341  -6.600   2.247  0.00  0.00    -0.270 OA
ATOM      7  C   UNL     1      -3.518  -9.050   0.729  0.00  0.00    +0.142 C 
ATOM      8  N   UNL     1      -4.223  -9.889  -0.256  0.00  0.00    -0.288 N 
ATOM      9  C   UNL     1      -4.855  -9.282  -1.280  0.00  0.00    +0.307 C 
ATOM     10  O   UNL     1      -5.440  -9.966  -2.097  0.00  0.00    -0.252 OA
ATOM     11  N   UNL     1      -4.860  -7.951  -1.425  0.00  0.00    -0.253 N 
ATOM     12  H   UNL     1      -4.231 -10.855  -0.169  0.00  0.00    +0.151 HD
ENDROOT
BRANCH   7  13
ATOM     13  C   UNL     1      -4.104  -9.338   2.087  0.00  0.00    -0.011 A 
ATOM     14  C   UNL     1      -5.465  -9.205   2.295  0.00  0.00    +0.006 A 
ATOM     15  C   UNL     1      -6.002  -9.469   3.541  0.00  0.00    +0.000 A 
ATOM     16  C   UNL     1      -5.180  -9.866   4.579  0.00  0.00    +0.001 A 
ATOM     17  C   UNL     1      -3.820 -10.000   4.371  0.00  0.00    +0.013 A 
ATOM     18  C   UNL     1      -3.283  -9.740   3.124  0.00  0.00    +0.060 A 
BRANCH  18  19
ATOM     19  C   UNL     1      -1.801  -9.891   2.895  0.00  0.00    +0.418 C 
ATOM     20  F   UNL     1      -1.177 -10.237   4.098  0.00  0.00    -0.166 F 
ATOM     21  F   UNL     1      -1.575 -10.895   1.947  0.00  0.00    -0.166 F 
ATOM     22  F   UNL     1      -1.276  -8.682   2.428  0.00  0.00    -0.166 F 
ENDBRANCH  18  19
ENDBRANCH   7  13
BRANCH   1  23
ATOM     23  C   UNL     1      -2.905  -3.972   1.138  0.00  0.00    +0.163 C 
BRANCH  23  25
ATOM     24  N   UNL     1      -0.799  -2.750   1.575  0.00  0.00    -0.314 N 
ATOM     25  C   UNL     1      -1.400  -3.885   1.167  0.00  0.00    +0.234 C 
ATOM     26  O   UNL     1      -0.731  -4.837   0.824  0.00  0.00    -0.274 OA
ATOM     27  H   UNL     1      -1.334  -1.989   1.849  0.00  0.00    +0.149 HD
BRANCH  24  28
ATOM     28  C   UNL     1       0.664  -2.666   1.603  0.00  0.00    +0.104 C 
BRANCH  28  29
ATOM     29  C   UNL     1       1.085  -1.281   2.100  0.00  0.00    +0.022 C 
BRANCH  29  31
ATOM     30  C   UNL     1       3.034   0.229   2.506  0.00  0.00    +0.007 C 
ATOM     31  C   UNL     1       2.612  -1.193   2.130  0.00  0.00    -0.016 C 
ATOM     32  C   UNL     1       3.160  -2.179   3.164  0.00  0.00    +0.007 C 
ENDBRANCH  29  31
ENDBRANCH  28  29
ENDBRANCH  24  28
ENDBRANCH  23  25
BRANCH  23  33
ATOM     33  C   UNL     1      -3.456  -3.747   2.548  0.00  0.00    +0.035 C 
BRANCH  33  34
ATOM     34  C   UNL     1      -4.984  -3.711   2.498  0.00  0.00    -0.015 C 
ATOM     35  C   UNL     1      -5.539  -3.611   3.920  0.00  0.00    +0.007 C 
ATOM     36  C   UNL     1      -5.440  -2.497   1.686  0.00  0.00    +0.007 C 
ENDBRANCH  33  34
ENDBRANCH  23  33
ENDBRANCH   1  23
BRANCH  11  37
ATOM     37  C   UNL     1      -5.576  -7.382  -2.570  0.00  0.00    +0.141 C 
BRANCH  37  38
ATOM     38  C   UNL     1      -4.636  -7.267  -3.743  0.00  0.00    -0.015 C 
ATOM     39  C   UNL     1      -4.947  -7.822  -4.888  0.00  0.00    +0.005 C 
ENDBRANCH  37  38
ENDBRANCH  11  37
TORSDOF 11
