REMARK  Name = ZINC37866079
REMARK  7 active torsions:
REMARK  status: ('A' for Active; 'I' for Inactive)
REMARK    1  A    between atoms: C_4  and  N_26
REMARK    2  A    between atoms: C_5  and  C_7
REMARK    3  A    between atoms: C_8  and  C_9
REMARK    4  A    between atoms: N_10  and  N_11
REMARK    5  A    between atoms: C_12  and  C_14
REMARK    6  A    between atoms: C_14  and  S_15
REMARK    7  A    between atoms: S_15  and  C_16
REMARK                            x       y       z     vdW  Elec       q    Type
REMARK                         _______ _______ _______ _____ _____    ______ ____
ROOT
ATOM      1  N   UNL     1      -1.017  -6.305  -0.551  0.00  0.00    -0.206 N 
ATOM      2  C   UNL     1      -2.172  -6.984  -0.700  0.00  0.00    +0.242 C 
ATOM      3  O   UNL     1      -3.223  -6.384  -0.778  0.00  0.00    -0.273 OA
ATOM      4  H   UNL     1      -0.177  -6.785  -0.488  0.00  0.00    +0.177 HD
ENDROOT
BRANCH   1   6
ATOM      5  C   UNL     1       0.084  -4.249  -0.345  0.00  0.00    +0.130 C 
ATOM      6  N   UNL     1      -1.031  -4.905  -0.488  0.00  0.00    -0.188 NA
BRANCH   5   8
ATOM      7  C   UNL     1       1.226  -2.152  -0.134  0.00  0.00    +0.012 C 
ATOM      8  C   UNL     1       0.070  -2.832  -0.282  0.00  0.00    +0.022 C 
BRANCH   7  13
ATOM      9  C   UNL     1       0.074   1.406  -0.415  0.00  0.00    +0.001 A 
ATOM     10  C   UNL     1       1.184   2.085   0.056  0.00  0.00    +0.002 A 
ATOM     11  C   UNL     1       2.308   1.389   0.465  0.00  0.00    +0.033 A 
ATOM     12  C   UNL     1       2.329   0.011   0.407  0.00  0.00    +0.133 A 
ATOM     13  C   UNL     1       1.211  -0.682  -0.068  0.00  0.00    +0.005 A 
ATOM     14  C   UNL     1       0.079   0.029  -0.479  0.00  0.00    +0.010 A 
BRANCH  12  15
ATOM     15  N   UNL     1       3.532  -0.732   0.844  0.00  0.00    +0.057 N 
ATOM     16  O   UNL     1       3.414  -1.780   1.435  0.00  0.00    -0.126 OA
ATOM     17  O   UNL     1       4.633  -0.290   0.612  0.00  0.00    -0.126 OA
ENDBRANCH  12  15
ENDBRANCH   7  13
ENDBRANCH   5   8
ENDBRANCH   1   6
BRANCH   2  18
ATOM     18  C   UNL     1      -2.157  -8.489  -0.767  0.00  0.00    +0.174 C 
BRANCH  18  19
ATOM     19  S   UNL     1      -3.853  -9.103  -0.967  0.00  0.00    -0.078 S 
BRANCH  19  20
ATOM     20  C   UNL     1      -3.668 -10.854  -1.029  0.00  0.00    +0.168 A 
ATOM     21  N   UNL     1      -4.692 -11.746  -1.179  0.00  0.00    -0.333 N 
ATOM     22  H   UNL     1      -5.633 -11.532  -1.269  0.00  0.00    +0.168 HD
ATOM     23  C   UNL     1      -4.134 -13.014  -1.178  0.00  0.00    +0.067 A 
ATOM     24  C   UNL     1      -4.655 -14.294  -1.293  0.00  0.00    +0.028 A 
ATOM     25  C   UNL     1      -3.812 -15.386  -1.254  0.00  0.00    +0.002 A 
ATOM     26  C   UNL     1      -2.445 -15.212  -1.100  0.00  0.00    +0.002 A 
ATOM     27  C   UNL     1      -1.909 -13.948  -0.985  0.00  0.00    +0.030 A 
ATOM     28  C   UNL     1      -2.750 -12.833  -1.023  0.00  0.00    +0.090 A 
ATOM     29  N   UNL     1      -2.528 -11.495  -0.943  0.00  0.00    -0.222 NA
ENDBRANCH  19  20
ENDBRANCH  18  19
ENDBRANCH   2  18
TORSDOF 7
