REMARK  Name = ZINC21250999
REMARK  10 active torsions:
REMARK  status: ('A' for Active; 'I' for Inactive)
REMARK    1  A    between atoms: C_1  and  C_2
REMARK    2  A    between atoms: C_2  and  O_3
REMARK    3  A    between atoms: O_3  and  C_4
REMARK    4  A    between atoms: C_7  and  C_12
REMARK    5  A    between atoms: C_9  and  O_10
REMARK    6  A    between atoms: O_10  and  C_11
REMARK    7  A    between atoms: C_17  and  C_27
REMARK    8  A    between atoms: C_30  and  N_33
REMARK    9  A    between atoms: N_33  and  C_34
REMARK   10  A    between atoms: N_33  and  C_35
REMARK                            x       y       z     vdW  Elec       q    Type
REMARK                         _______ _______ _______ _____ _____    ______ ____
ROOT
ATOM      1  C   UNL     1      -4.365  -0.358  -2.634  0.00  0.00    +0.032 C 
ATOM      2  C   UNL     1      -3.974  -0.275  -1.160  0.00  0.00    +0.059 C 
ATOM      3  C   UNL     1      -3.385   1.092  -0.856  0.00  0.00    +0.017 C 
ATOM      4  C   UNL     1      -3.817   2.183  -1.515  0.00  0.00    +0.036 C 
ATOM      5  C   UNL     1      -3.330   3.595  -1.303  0.00  0.00    +0.136 C 
ATOM      6  N   UNL     1      -2.511   3.782  -0.111  0.00  0.00    -0.331 N 
ATOM      7  C   UNL     1      -1.265   3.164  -0.002  0.00  0.00    +0.049 A 
ATOM      8  C   UNL     1      -0.091   3.898   0.016  0.00  0.00    +0.025 A 
ATOM      9  C   UNL     1       1.124   3.235   0.035  0.00  0.00    +0.002 A 
ATOM     10  C   UNL     1       1.166   1.852   0.037  0.00  0.00    +0.002 A 
ATOM     11  C   UNL     1      -0.007   1.117   0.036  0.00  0.00    +0.025 A 
ATOM     12  C   UNL     1      -1.223   1.778   0.028  0.00  0.00    +0.052 A 
ATOM     13  N   UNL     1      -2.435   1.105   0.112  0.00  0.00    -0.316 N 
ATOM     14  C   UNL     1      -4.809   2.062  -2.516  0.00  0.00    +0.163 C 
ATOM     15  O   UNL     1      -5.197   3.066  -3.080  0.00  0.00    -0.292 OA
ATOM     16  C   UNL     1      -5.400   0.741  -2.905  0.00  0.00    +0.088 C 
ATOM     17  H   UNL     1      -2.875   4.414   0.712  0.00  0.00    +0.147 HD
ATOM     18  H   UNL     1      -2.598   0.553   1.049  0.00  0.00    +0.152 HD
ENDROOT
BRANCH   1  22
ATOM     19  C   UNL     1      -6.072  -4.190  -3.465  0.00  0.00    +0.162 A 
ATOM     20  C   UNL     1      -6.659  -3.355  -2.528  0.00  0.00    +0.050 A 
ATOM     21  C   UNL     1      -6.105  -2.117  -2.261  0.00  0.00    +0.008 A 
ATOM     22  C   UNL     1      -4.965  -1.709  -2.928  0.00  0.00    -0.040 A 
ATOM     23  C   UNL     1      -4.377  -2.534  -3.869  0.00  0.00    +0.053 A 
ATOM     24  C   UNL     1      -4.924  -3.779  -4.137  0.00  0.00    +0.162 A 
BRANCH  24  25
ATOM     25  O   UNL     1      -4.345  -4.594  -5.058  0.00  0.00    -0.491 OA
ATOM     26  C   UNL     1      -3.169  -4.106  -5.708  0.00  0.00    +0.277 C 
ENDBRANCH  24  25
BRANCH  19  27
ATOM     27  O   UNL     1      -6.616  -5.408  -3.728  0.00  0.00    -0.489 OA
BRANCH  27  29
ATOM     28  C   UNL     1      -8.255  -7.158  -3.429  0.00  0.00    +0.048 C 
ATOM     29  C   UNL     1      -7.793  -5.764  -3.002  0.00  0.00    +0.226 C 
ENDBRANCH  27  29
ENDBRANCH  19  27
ENDBRANCH   1  22
BRANCH   5  30
ATOM     30  C   UNL     1      -2.529   4.010  -2.510  0.00  0.00    -0.023 A 
ATOM     31  C   UNL     1      -2.981   5.036  -3.319  0.00  0.00    +0.007 A 
ATOM     32  C   UNL     1      -2.246   5.422  -4.423  0.00  0.00    +0.023 A 
ATOM     33  C   UNL     1      -1.058   4.771  -4.727  0.00  0.00    +0.029 A 
ATOM     34  C   UNL     1      -0.609   3.736  -3.916  0.00  0.00    +0.023 A 
ATOM     35  C   UNL     1      -1.346   3.359  -2.810  0.00  0.00    +0.007 A 
BRANCH  33  36
ATOM     36  N   UNL     1      -0.315   5.155  -5.846  0.00  0.00    -0.336 N 
ATOM     37  C   UNL     1       0.874   4.391  -6.234  0.00  0.00    +0.129 C 
ATOM     38  C   UNL     1      -0.724   6.322  -6.631  0.00  0.00    +0.129 C 
ENDBRANCH  33  36
ENDBRANCH   5  30
TORSDOF 6
