REMARK  Name = ZINC03667911
REMARK  4 active torsions:
REMARK  status: ('A' for Active; 'I' for Inactive)
REMARK    1  A    between atoms: C_4  and  C_7
REMARK    2  A    between atoms: C_7  and  N_45
REMARK    3  A    between atoms: C_15  and  O_25
REMARK    4  A    between atoms: C_17  and  C_20
REMARK                            x       y       z     vdW  Elec       q    Type
REMARK                         _______ _______ _______ _____ _____    ______ ____
ROOT
ATOM      1  C   UNL     1       1.376   5.527   1.449  0.00  0.00    -0.073 C 
ATOM      2  C   UNL     1       1.010   6.066   2.834  0.00  0.00    +0.018 C 
ATOM      3  C   UNL     1       1.741   5.231   3.879  0.00  0.00    -0.027 A 
ATOM      4  C   UNL     1       2.249   4.021   3.542  0.00  0.00    -0.021 A 
ATOM      5  S   UNL     1       3.000   3.412   5.027  0.00  0.00    -0.080 S 
ATOM      6  C   UNL     1       2.647   4.729   6.062  0.00  0.00    +0.080 A 
ATOM      7  C   UNL     1       1.945   5.636   5.256  0.00  0.00    +0.067 A 
ATOM      8  C   UNL     1       1.486   6.896   5.896  0.00  0.00    +0.220 C 
ATOM      9  N   UNL     1       1.966   7.188   7.074  0.00  0.00    -0.220 NA
ATOM     10  C   UNL     1       2.970   6.401   7.780  0.00  0.00    +0.260 C 
ATOM     11  N   UNL     1       2.924   4.981   7.384  0.00  0.00    -0.311 N 
ATOM     12  C   UNL     1       2.172   3.366   2.199  0.00  0.00    -0.035 C 
ATOM     13  H   UNL     1       3.080   4.266   8.020  0.00  0.00    +0.149 HD
ATOM     14  N   UNL     1       1.133   4.071   1.409  0.00  0.00    +0.386 N 
ATOM     15  H   UNL     1       0.212   3.874   1.818  0.00  0.00    -0.081 HD
ENDROOT
BRANCH  10  16
ATOM     16  C   UNL     1       4.337   6.955   7.470  0.00  0.00    +0.147 A 
ATOM     17  C   UNL     1       4.614   8.230   7.147  0.00  0.00    +0.048 A 
ATOM     18  C   UNL     1       6.011   8.306   6.940  0.00  0.00    +0.041 A 
ATOM     19  C   UNL     1       6.503   7.072   7.149  0.00  0.00    +0.195 A 
ATOM     20  O   UNL     1       5.485   6.259   7.476  0.00  0.00    -0.464 OA
ENDBRANCH  10  16
BRANCH   8  21
ATOM     21  O   UNL     1       0.601   7.713   5.279  0.00  0.00    -0.492 OA
ATOM     22  H   UNL     1       0.375   8.503   5.787  0.00  0.00    +0.294 HD
ENDBRANCH   8  21
BRANCH  14  23
ATOM     23  C   UNL     1       1.151   3.592   0.010  0.00  0.00    -0.043 C 
BRANCH  23  27
ATOM     24  C   UNL     1       1.208  -0.679  -0.014  0.00  0.00    +0.000 A 
ATOM     25  C   UNL     1       0.002  -0.004   0.002  0.00  0.00    +0.000 A 
ATOM     26  C   UNL     1      -0.017   1.378   0.010  0.00  0.00    +0.002 A 
ATOM     27  C   UNL     1       1.171   2.086   0.002  0.00  0.00    -0.064 A 
ATOM     28  C   UNL     1       2.377   1.411  -0.014  0.00  0.00    +0.002 A 
ATOM     29  C   UNL     1       2.396   0.029  -0.021  0.00  0.00    +0.000 A 
ENDBRANCH  23  27
ENDBRANCH  14  23
TORSDOF 4
