REMARK  Name = ZINC41645295
REMARK  11 active torsions:
REMARK  status: ('A' for Active; 'I' for Inactive)
REMARK    1  A    between atoms: C_1  and  C_2
REMARK    2  A    between atoms: N_8  and  C_9
REMARK    3  A    between atoms: C_9  and  C_11
REMARK    4  A    between atoms: C_9  and  C_12
REMARK    5  A    between atoms: C_12  and  N_13
REMARK    6  A    between atoms: C_14  and  C_16
REMARK    7  A    between atoms: N_18  and  C_19
REMARK    8  A    between atoms: C_22  and  N_25
REMARK    9  A    between atoms: C_26  and  C_28
REMARK   10  A    between atoms: C_28  and  C_29
REMARK   11  A    between atoms: C_28  and  C_30
REMARK                            x       y       z     vdW  Elec       q    Type
REMARK                         _______ _______ _______ _____ _____    ______ ____
ROOT
ATOM      1  C   UNL     1      -1.932   3.499  -0.752  0.00  0.00    +0.303 C 
ATOM      2  O   UNL     1      -2.477   2.584  -1.336  0.00  0.00    -0.265 OA
ATOM      3  N   UNL     1      -2.106   4.766  -1.175  0.00  0.00    -0.278 N 
ATOM      4  H   UNL     1      -1.615   5.490  -0.755  0.00  0.00    +0.155 HD
ENDROOT
BRANCH   3   5
ATOM      5  C   UNL     1      -2.994   5.039  -2.221  0.00  0.00    +0.034 A 
ATOM      6  C   UNL     1      -2.712   6.056  -3.124  0.00  0.00    +0.025 A 
ATOM      7  C   UNL     1      -3.588   6.325  -4.156  0.00  0.00    +0.025 A 
ATOM      8  C   UNL     1      -4.752   5.579  -4.291  0.00  0.00    +0.034 A 
ATOM      9  C   UNL     1      -5.034   4.563  -3.388  0.00  0.00    +0.025 A 
ATOM     10  C   UNL     1      -4.155   4.290  -2.359  0.00  0.00    +0.025 A 
BRANCH   8  11
ATOM     11  N   UNL     1      -5.641   5.852  -5.338  0.00  0.00    -0.285 N 
ATOM     12  C   UNL     1      -6.968   5.708  -5.150  0.00  0.00    +0.220 C 
ATOM     13  O   UNL     1      -7.398   5.430  -4.050  0.00  0.00    -0.275 OA
ATOM     14  H   UNL     1      -5.302   6.145  -6.198  0.00  0.00    +0.155 HD
BRANCH  12  15
ATOM     15  C   UNL     1      -7.917   5.894  -6.306  0.00  0.00    +0.069 C 
ATOM     16  C   UNL     1      -9.354   5.676  -5.826  0.00  0.00    +0.017 C 
ATOM     17  C   UNL     1      -7.774   7.312  -6.861  0.00  0.00    +0.017 C 
ENDBRANCH  12  15
ENDBRANCH   8  11
ENDBRANCH   3   5
BRANCH   1  19
ATOM     18  N   UNL     1      -0.813   1.946   0.796  0.00  0.00    -0.309 N 
ATOM     19  C   UNL     1      -1.069   3.219   0.434  0.00  0.00    +0.299 C 
ATOM     20  O   UNL     1      -0.599   4.138   1.073  0.00  0.00    -0.265 OA
ATOM     21  H   UNL     1      -1.128   1.213   0.245  0.00  0.00    +0.149 HD
BRANCH  18  22
ATOM     22  C   UNL     1      -0.060   1.671   2.022  0.00  0.00    +0.089 C 
BRANCH  22  23
ATOM     23  C   UNL     1      -0.014   0.161   2.264  0.00  0.00    -0.054 C 
ATOM     24  C   UNL     1       0.809  -0.129   3.521  0.00  0.00    -0.012 C 
BRANCH  23  31
ATOM     25  C   UNL     1      -0.900  -2.391   1.498  0.00  0.00    -0.013 C 
ATOM     26  C   UNL     1       0.553  -1.956   1.295  0.00  0.00    -0.071 C 
ATOM     27  C   UNL     1       1.124  -2.653   0.058  0.00  0.00    -0.016 C 
ATOM     28  C   UNL     1       2.578  -2.216  -0.142  0.00  0.00    -0.003 C 
ATOM     29  C   UNL     1       2.630  -0.690  -0.259  0.00  0.00    -0.019 C 
ATOM     30  C   UNL     1       2.003  -0.066   0.990  0.00  0.00    -0.078 C 
ATOM     31  N   UNL     1       0.607  -0.501   1.109  0.00  0.00    +0.384 N 
ATOM     32  H   UNL     1       0.104  -0.252   0.271  0.00  0.00    -0.081 HD
ENDBRANCH  23  31
ENDBRANCH  22  23
ENDBRANCH  18  22
ENDBRANCH   1  19
TORSDOF 7
