REMARK  Name = ZINC13506497
REMARK  8 active torsions:
REMARK  status: ('A' for Active; 'I' for Inactive)
REMARK    1  A    between atoms: C_5  and  C_7
REMARK    2  A    between atoms: C_7  and  C_9
REMARK    3  A    between atoms: C_7  and  N_18
REMARK    4  A    between atoms: N_11  and  C_12
REMARK    5  A    between atoms: N_18  and  C_19
REMARK    6  A    between atoms: C_25  and  C_27
REMARK    7  A    between atoms: C_27  and  N_28
REMARK    8  A    between atoms: C_29  and  C_31
REMARK                            x       y       z     vdW  Elec       q    Type
REMARK                         _______ _______ _______ _____ _____    ______ ____
ROOT
ATOM      1  N   UNL     1      -6.324   3.050   0.012  0.00  0.00    -0.252 N 
ATOM      2  C   UNL     1      -5.292   2.986   0.877  0.00  0.00    +0.238 C 
ATOM      3  O   UNL     1      -5.212   2.061   1.657  0.00  0.00    -0.274 OA
ENDROOT
BRANCH   1   4
ATOM      4  C   UNL     1      -6.360   4.056  -0.960  0.00  0.00    +0.056 A 
ATOM      5  C   UNL     1      -7.258   5.114  -0.849  0.00  0.00    +0.026 A 
ATOM      6  C   UNL     1      -7.256   6.086  -1.836  0.00  0.00    +0.021 A 
ATOM      7  C   UNL     1      -6.369   5.974  -2.892  0.00  0.00    +0.111 A 
ATOM      8  N   UNL     1      -5.531   4.959  -2.968  0.00  0.00    -0.261 NA
ATOM      9  C   UNL     1      -5.497   4.016  -2.047  0.00  0.00    +0.134 A 
ENDBRANCH   1   4
BRANCH   1  10
ATOM     10  C   UNL     1      -7.407   2.067   0.090  0.00  0.00    +0.200 C 
BRANCH  10  15
ATOM     11  C   UNL     1      -8.897   3.687   3.158  0.00  0.00    +0.001 A 
ATOM     12  C   UNL     1      -9.581   2.628   3.726  0.00  0.00    +0.003 A 
ATOM     13  C   UNL     1      -9.562   1.387   3.119  0.00  0.00    +0.039 A 
ATOM     14  C   UNL     1      -8.862   1.205   1.938  0.00  0.00    +0.129 A 
ATOM     15  C   UNL     1      -8.173   2.265   1.373  0.00  0.00    +0.017 A 
ATOM     16  C   UNL     1      -8.194   3.505   1.982  0.00  0.00    +0.009 A 
ATOM     17  F   UNL     1      -8.848  -0.006   1.341  0.00  0.00    -0.205 F 
ENDBRANCH  10  15
BRANCH  10  18
ATOM     18  C   UNL     1      -8.336   2.249  -1.083  0.00  0.00    +0.239 C 
ATOM     19  O   UNL     1      -8.033   3.002  -1.985  0.00  0.00    -0.273 OA
ATOM     20  N   UNL     1      -9.502   1.576  -1.130  0.00  0.00    -0.311 N 
ATOM     21  H   UNL     1      -9.744   0.974  -0.408  0.00  0.00    +0.149 HD
BRANCH  20  22
ATOM     22  C   UNL     1     -10.405   1.753  -2.270  0.00  0.00    +0.073 C 
ATOM     23  C   UNL     1     -11.290   2.978  -2.034  0.00  0.00    +0.022 C 
ATOM     24  C   UNL     1     -12.233   3.163  -3.225  0.00  0.00    +0.002 C 
ATOM     25  C   UNL     1     -13.112   1.920  -3.377  0.00  0.00    +0.000 C 
ATOM     26  C   UNL     1     -12.227   0.694  -3.613  0.00  0.00    +0.002 C 
ATOM     27  C   UNL     1     -11.284   0.510  -2.422  0.00  0.00    +0.022 C 
ENDBRANCH  20  22
ENDBRANCH  10  18
ENDBRANCH   1  10
BRANCH   2  28
ATOM     28  C   UNL     1      -4.238   4.063   0.874  0.00  0.00    +0.201 C 
BRANCH  28  29
ATOM     29  N   UNL     1      -3.303   3.834   1.978  0.00  0.00    -0.302 N 
ATOM     30  C   UNL     1      -2.270   4.678   2.173  0.00  0.00    +0.251 C 
ATOM     31  O   UNL     1      -2.115   5.631   1.432  0.00  0.00    -0.270 OA
ATOM     32  H   UNL     1      -3.426   3.074   2.569  0.00  0.00    +0.150 HD
BRANCH  30  33
ATOM     33  C   UNL     1      -1.334   4.449   3.278  0.00  0.00    +0.074 A 
ATOM     34  C   UNL     1      -0.218   5.184   3.644  0.00  0.00    +0.021 A 
ATOM     35  C   UNL     1       0.495   4.740   4.730  0.00  0.00    +0.008 A 
ATOM     36  C   UNL     1       0.081   3.622   5.382  0.00  0.00    +0.046 A 
ATOM     37  S   UNL     1      -1.331   3.145   4.496  0.00  0.00    -0.092 S 
ENDBRANCH  30  33
ENDBRANCH  28  29
ENDBRANCH   2  28
TORSDOF 8
