REMARK  Name = ZINC32604693
REMARK  8 active torsions:
REMARK  status: ('A' for Active; 'I' for Inactive)
REMARK    1  A    between atoms: C_1  and  C_2
REMARK    2  A    between atoms: C_2  and  C_3
REMARK    3  A    between atoms: C_2  and  C_4
REMARK    4  A    between atoms: C_2  and  C_5
REMARK    5  A    between atoms: N_16  and  C_28
REMARK    6  A    between atoms: C_17  and  S_20
REMARK    7  A    between atoms: S_20  and  C_21
REMARK    8  A    between atoms: C_21  and  C_22
REMARK                            x       y       z     vdW  Elec       q    Type
REMARK                         _______ _______ _______ _____ _____    ______ ____
ROOT
ATOM      1  C   UNL     1       0.387   0.384  -4.730  0.00  0.00    -0.000 C 
ATOM      2  C   UNL     1      -0.988  -0.270  -4.562  0.00  0.00    +0.009 C 
ATOM      3  C   UNL     1      -1.257  -0.541  -3.081  0.00  0.00    +0.037 C 
ATOM      4  C   UNL     1      -0.081  -1.317  -2.500  0.00  0.00    -0.023 A 
ATOM      5  C   UNL     1       1.113  -1.340  -3.133  0.00  0.00    -0.004 A 
ATOM      6  S   UNL     1       2.154  -2.348  -2.110  0.00  0.00    -0.078 S 
ATOM      7  C   UNL     1       1.029  -2.729  -0.877  0.00  0.00    +0.080 A 
ATOM      8  C   UNL     1      -0.150  -2.072  -1.259  0.00  0.00    +0.069 A 
ATOM      9  C   UNL     1      -1.328  -2.207  -0.372  0.00  0.00    +0.256 C 
ATOM     10  O   UNL     1      -2.415  -1.762  -0.690  0.00  0.00    -0.269 OA
ATOM     11  N   UNL     1      -1.146  -2.845   0.803  0.00  0.00    -0.239 N 
ATOM     12  C   UNL     1       0.168  -3.183   1.341  0.00  0.00    +0.227 C 
ATOM     13  N   UNL     1       1.126  -3.486   0.263  0.00  0.00    -0.311 N 
ATOM     14  C   UNL     1       1.470  -0.658  -4.417  0.00  0.00    +0.046 C 
ATOM     15  H   UNL     1       1.870  -4.285   0.396  0.00  0.00    +0.149 HD
ENDROOT
BRANCH  11  16
ATOM     16  C   UNL     1      -2.277  -3.201   1.545  0.00  0.00    +0.039 A 
ATOM     17  C   UNL     1      -2.872  -4.441   1.355  0.00  0.00    +0.023 A 
ATOM     18  C   UNL     1      -3.985  -4.792   2.093  0.00  0.00    +0.002 A 
ATOM     19  C   UNL     1      -4.514  -3.905   3.013  0.00  0.00    +0.000 A 
ATOM     20  C   UNL     1      -3.927  -2.667   3.201  0.00  0.00    +0.002 A 
ATOM     21  C   UNL     1      -2.811  -2.312   2.470  0.00  0.00    +0.023 A 
ENDBRANCH  11  16
BRANCH   1  23
ATOM     22  C   UNL     1      -0.544   1.900  -6.484  0.00  0.00    +0.011 C 
ATOM     23  C   UNL     1       0.549   0.876  -6.169  0.00  0.00    -0.035 C 
ATOM     24  C   UNL     1       1.923   1.529  -6.334  0.00  0.00    +0.011 C 
ATOM     25  C   UNL     1       0.428  -0.309  -7.130  0.00  0.00    +0.011 C 
ENDBRANCH   1  23
BRANCH  12  26
ATOM     26  S   UNL     1       0.790  -1.783   2.313  0.00  0.00    -0.114 S 
BRANCH  26  27
ATOM     27  C   UNL     1       0.866  -0.420   1.119  0.00  0.00    +0.107 C 
BRANCH  27  28
ATOM     28  C   UNL     1       1.374   0.822   1.807  0.00  0.00    -0.037 A 
ATOM     29  C   UNL     1       0.484   1.700   2.395  0.00  0.00    +0.004 A 
ATOM     30  C   UNL     1       0.951   2.836   3.029  0.00  0.00    +0.000 A 
ATOM     31  C   UNL     1       2.307   3.099   3.067  0.00  0.00    +0.000 A 
ATOM     32  C   UNL     1       3.197   2.223   2.474  0.00  0.00    +0.000 A 
ATOM     33  C   UNL     1       2.731   1.085   1.843  0.00  0.00    +0.004 A 
ENDBRANCH  27  28
ENDBRANCH  26  27
ENDBRANCH  12  26
TORSDOF 5
