REMARK  Name = ZINC59894330
REMARK  5 active torsions:
REMARK  status: ('A' for Active; 'I' for Inactive)
REMARK    1  A    between atoms: C_3  and  C_8
REMARK    2  A    between atoms: C_8  and  C_10
REMARK    3  A    between atoms: C_8  and  N_27
REMARK    4  A    between atoms: C_10  and  N_11
REMARK    5  A    between atoms: C_12  and  C_14
REMARK                            x       y       z     vdW  Elec       q    Type
REMARK                         _______ _______ _______ _____ _____    ______ ____
ROOT
ATOM      1  N   UNL     1       5.543   3.085  -0.985  0.00  0.00    -0.312 N 
ATOM      2  C   UNL     1       6.276   3.372  -2.079  0.00  0.00    +0.249 C 
ATOM      3  O   UNL     1       5.953   2.922  -3.162  0.00  0.00    -0.270 OA
ATOM      4  H   UNL     1       5.839   3.384  -0.111  0.00  0.00    +0.149 HD
ENDROOT
BRANCH   2   5
ATOM      5  C   UNL     1       7.466   4.230  -1.963  0.00  0.00    +0.102 A 
ATOM      6  C   UNL     1       8.168   4.632  -3.091  0.00  0.00    +0.031 A 
ATOM      7  C   UNL     1       9.302   5.456  -2.930  0.00  0.00    +0.037 A 
ATOM      8  C   UNL     1       9.708   5.863  -1.670  0.00  0.00    +0.030 A 
ATOM      9  N   UNL     1       9.030   5.467  -0.573  0.00  0.00    -0.325 N 
ATOM     10  H   UNL     1       9.337   5.759   0.300  0.00  0.00    +0.169 HD
ATOM     11  C   UNL     1       7.940   4.687  -0.654  0.00  0.00    +0.261 A 
ATOM     12  O   UNL     1       7.350   4.356   0.359  0.00  0.00    -0.267 OA
ATOM     13  C   UNL     1      10.904   6.760  -1.481  0.00  0.00    +0.054 C 
ATOM     14  C   UNL     1      11.863   6.663  -2.664  0.00  0.00    +0.014 C 
ATOM     15  C   UNL     1      11.098   6.960  -3.961  0.00  0.00    +0.080 C 
ATOM     16  C   UNL     1      10.055   5.875  -4.125  0.00  0.00    +0.165 C 
ATOM     17  O   UNL     1       9.846   5.366  -5.207  0.00  0.00    -0.292 OA
ENDBRANCH   2   5
BRANCH   1  18
ATOM     18  C   UNL     1       4.300   2.321  -1.115  0.00  0.00    +0.094 C 
BRANCH  18  19
ATOM     19  C   UNL     1       3.603   2.245   0.244  0.00  0.00    -0.020 C 
BRANCH  19  22
ATOM     20  C   UNL     1       3.529   5.609   1.956  0.00  0.00    +0.002 A 
ATOM     21  C   UNL     1       3.926   4.342   1.571  0.00  0.00    +0.002 A 
ATOM     22  C   UNL     1       3.169   3.626   0.663  0.00  0.00    -0.058 A 
ATOM     23  C   UNL     1       2.014   4.177   0.139  0.00  0.00    +0.022 A 
ATOM     24  C   UNL     1       1.617   5.445   0.524  0.00  0.00    +0.041 A 
ATOM     25  C   UNL     1       2.375   6.161   1.434  0.00  0.00    +0.020 A 
ATOM     26 CL   UNL     1       0.167   6.137  -0.134  0.00  0.00    -0.084 Cl
ENDBRANCH  19  22
BRANCH  19  27
ATOM     27  N   UNL     1       2.425   1.372   0.143  0.00  0.00    +0.385 N 
ATOM     28  C   UNL     1       2.848  -0.030  -0.103  0.00  0.00    -0.078 C 
ATOM     29  C   UNL     1       1.626  -0.857   0.371  0.00  0.00    -0.020 C 
ATOM     30  C   UNL     1       1.136  -0.071   1.609  0.00  0.00    -0.020 C 
ATOM     31  C   UNL     1       1.692   1.354   1.427  0.00  0.00    -0.078 C 
ATOM     32  H   UNL     1       1.819   1.689  -0.599  0.00  0.00    -0.081 HD
ENDBRANCH  19  27
ENDBRANCH  18  19
ENDBRANCH   1  18
TORSDOF 5
