REMARK  Name = ZINC49611705
REMARK  10 active torsions:
REMARK  status: ('A' for Active; 'I' for Inactive)
REMARK    1  A    between atoms: C_1  and  C_2
REMARK    2  A    between atoms: C_5  and  C_8
REMARK    3  A    between atoms: C_8  and  C_10
REMARK    4  A    between atoms: C_8  and  N_17
REMARK    5  A    between atoms: C_10  and  N_11
REMARK    6  A    between atoms: N_17  and  C_18
REMARK    7  A    between atoms: C_18  and  C_19
REMARK    8  A    between atoms: N_21  and  C_22
REMARK    9  A    between atoms: N_21  and  C_28
REMARK   10  A    between atoms: C_22  and  C_23
REMARK                            x       y       z     vdW  Elec       q    Type
REMARK                         _______ _______ _______ _____ _____    ______ ____
ROOT
ATOM      1  N   UNL     1      -0.686  -5.407   0.910  0.00  0.00    +0.390 N 
ATOM      2  H   UNL     1       0.139  -4.927   1.238  0.00  0.00    -0.084 HD
ATOM      3  H   UNL     1      -1.410  -5.350   1.610  0.00  0.00    -0.084 HD
ENDROOT
BRANCH   1   4
ATOM      4  C   UNL     1      -1.156  -4.779  -0.332  0.00  0.00    -0.026 C 
BRANCH   4   9
ATOM      5  C   UNL     1      -1.319   0.957   0.350  0.00  0.00    +0.044 C 
ATOM      6  C   UNL     1      -1.277  -0.539   0.172  0.00  0.00    -0.050 A 
ATOM      7  C   UNL     1      -0.832  -1.081  -1.019  0.00  0.00    +0.003 A 
ATOM      8  C   UNL     1      -0.793  -2.453  -1.183  0.00  0.00    +0.002 A 
ATOM      9  C   UNL     1      -1.198  -3.283  -0.154  0.00  0.00    -0.060 A 
ATOM     10  C   UNL     1      -1.641  -2.741   1.038  0.00  0.00    +0.002 A 
ATOM     11  C   UNL     1      -1.677  -1.369   1.202  0.00  0.00    +0.003 A 
ENDBRANCH   4   9
BRANCH   4  12
ATOM     12  C   UNL     1      -2.558  -5.292  -0.664  0.00  0.00    +0.073 C 
BRANCH  12  13
ATOM     13  N   UNL     1      -2.491  -6.722  -0.996  0.00  0.00    -0.299 NA
ATOM     14  C   UNL     1      -1.826  -6.932  -2.290  0.00  0.00    +0.112 C 
ATOM     15  C   UNL     1      -1.723  -8.434  -2.567  0.00  0.00    +0.175 C 
ATOM     16  O   UNL     1      -3.032  -9.010  -2.531  0.00  0.00    -0.377 OA
ATOM     17  C   UNL     1      -3.708  -8.825  -1.285  0.00  0.00    +0.175 C 
ATOM     18  C   UNL     1      -3.830  -7.327  -0.994  0.00  0.00    +0.112 C 
ENDBRANCH  12  13
ENDBRANCH   4  12
ENDBRANCH   1   4
BRANCH   1  19
ATOM     19  C   UNL     1      -0.363  -6.817   0.654  0.00  0.00    +0.016 C 
BRANCH  19  20
ATOM     20  C   UNL     1       0.933  -6.904  -0.112  0.00  0.00    +0.199 C 
ATOM     21  O   UNL     1       1.269  -5.995  -0.840  0.00  0.00    -0.278 OA
ATOM     22  N   UNL     1       1.717  -7.993   0.013  0.00  0.00    -0.291 N 
BRANCH  22  23
ATOM     23  C   UNL     1       1.296  -9.104   0.870  0.00  0.00    +0.099 C 
ATOM     24  C   UNL     1      -0.128  -9.543   0.489  0.00  0.00    +0.047 C 
ATOM     25  C   UNL     1      -0.699 -10.483   1.578  0.00  0.00    +0.168 C 
ATOM     26  S   UNL     1       0.184  -9.929   3.094  0.00  0.00    -0.029 S 
ATOM     27  O   UNL     1       0.984 -10.998   3.579  0.00  0.00    -0.174 OA
ATOM     28  O   UNL     1      -0.745  -9.300   3.965  0.00  0.00    -0.174 OA
ATOM     29  C   UNL     1       1.280  -8.646   2.356  0.00  0.00    +0.188 C 
ENDBRANCH  22  23
BRANCH  22  30
ATOM     30  C   UNL     1       2.990  -8.065  -0.708  0.00  0.00    +0.182 C 
BRANCH  30  31
ATOM     31  C   UNL     1       4.087  -7.488   0.150  0.00  0.00    +0.122 A 
ATOM     32  C   UNL     1       4.848  -8.175   1.021  0.00  0.00    +0.046 A 
ATOM     33  C   UNL     1       5.741  -7.247   1.604  0.00  0.00    +0.041 A 
ATOM     34  C   UNL     1       5.472  -6.048   1.055  0.00  0.00    +0.195 A 
ATOM     35  O   UNL     1       4.473  -6.202   0.171  0.00  0.00    -0.466 OA
ENDBRANCH  30  31
ENDBRANCH  22  30
ENDBRANCH  19  20
ENDBRANCH   1  19
TORSDOF 9
