REMARK  Name = ZINC38596975
REMARK  10 active torsions:
REMARK  status: ('A' for Active; 'I' for Inactive)
REMARK    1  A    between atoms: C_1  and  C_2
REMARK    2  A    between atoms: C_2  and  C_4
REMARK    3  A    between atoms: C_2  and  N_24
REMARK    4  A    between atoms: C_4  and  C_6
REMARK    5  A    between atoms: C_4  and  N_11
REMARK    6  A    between atoms: N_14  and  C_17
REMARK    7  A    between atoms: C_17  and  C_18
REMARK    8  A    between atoms: C_25  and  C_27
REMARK    9  A    between atoms: N_29  and  C_30
REMARK   10  A    between atoms: C_35  and  N_36
REMARK                            x       y       z     vdW  Elec       q    Type
REMARK                         _______ _______ _______ _____ _____    ______ ____
ROOT
ATOM      1  C   UNL     1       0.706  -0.772   0.621  0.00  0.00    +0.113 C 
ENDROOT
BRANCH   1   2
ATOM      2  N   UNL     1       2.084  -0.269   0.532  0.00  0.00    -0.297 NA
ATOM      3  C   UNL     1       2.684  -0.603  -0.767  0.00  0.00    +0.066 C 
ATOM      4  C   UNL     1       4.093  -0.012  -0.842  0.00  0.00    -0.063 C 
ATOM      5  N   UNL     1       4.912  -0.556   0.250  0.00  0.00    +0.384 N 
ATOM      6  C   UNL     1       4.313  -0.194   1.541  0.00  0.00    -0.063 C 
ATOM      7  C   UNL     1       2.905  -0.786   1.635  0.00  0.00    +0.066 C 
ATOM      8  H   UNL     1       4.953  -1.561   0.169  0.00  0.00    -0.081 HD
BRANCH   5   9
ATOM      9  C   UNL     1       6.269  -0.002   0.167  0.00  0.00    -0.043 C 
BRANCH   9  10
ATOM     10  C   UNL     1       7.142  -0.652   1.210  0.00  0.00    -0.064 A 
ATOM     11  C   UNL     1       7.237  -0.100   2.474  0.00  0.00    +0.002 A 
ATOM     12  C   UNL     1       8.037  -0.697   3.430  0.00  0.00    +0.000 A 
ATOM     13  C   UNL     1       8.742  -1.846   3.123  0.00  0.00    +0.000 A 
ATOM     14  C   UNL     1       8.646  -2.398   1.860  0.00  0.00    +0.000 A 
ATOM     15  C   UNL     1       7.842  -1.804   0.905  0.00  0.00    +0.002 A 
ENDBRANCH   9  10
ENDBRANCH   5   9
ENDBRANCH   1   2
BRANCH   1  16
ATOM     16  C   UNL     1       0.723  -2.278   0.667  0.00  0.00    +0.009 A 
ATOM     17  C   UNL     1       0.078  -3.113   1.518  0.00  0.00    +0.013 A 
ATOM     18  C   UNL     1       0.243  -4.478   1.372  0.00  0.00    +0.008 A 
ATOM     19  C   UNL     1       1.044  -4.940   0.381  0.00  0.00    +0.045 A 
ATOM     20  S   UNL     1       1.592  -3.426  -0.389  0.00  0.00    -0.100 S 
ENDBRANCH   1  16
BRANCH   1  22
ATOM     21  C   UNL     1      -0.103   1.221  -0.651  0.00  0.00    +0.030 C 
ATOM     22  C   UNL     1      -0.086  -0.308  -0.604  0.00  0.00    +0.092 C 
BRANCH  22  23
ATOM     23  N   UNL     1      -1.459  -0.810  -0.516  0.00  0.00    -0.303 N 
ATOM     24  C   UNL     1      -2.187  -0.982  -1.637  0.00  0.00    +0.300 C 
ATOM     25  O   UNL     1      -1.704  -0.721  -2.720  0.00  0.00    -0.265 OA
ATOM     26  H   UNL     1      -1.845  -1.018   0.349  0.00  0.00    +0.149 HD
BRANCH  24  27
ATOM     27  C   UNL     1      -3.587  -1.493  -1.547  0.00  0.00    +0.303 C 
ATOM     28  O   UNL     1      -4.070  -1.754  -0.464  0.00  0.00    -0.265 OA
ATOM     29  N   UNL     1      -4.315  -1.665  -2.668  0.00  0.00    -0.276 N 
ATOM     30  H   UNL     1      -3.906  -1.531  -3.538  0.00  0.00    +0.155 HD
BRANCH  29  31
ATOM     31  C   UNL     1      -5.659  -2.037  -2.579  0.00  0.00    +0.064 A 
ATOM     32  C   UNL     1      -6.398  -1.709  -1.449  0.00  0.00    +0.025 A 
ATOM     33  C   UNL     1      -7.726  -2.077  -1.364  0.00  0.00    +0.002 A 
ATOM     34  C   UNL     1      -8.321  -2.771  -2.402  0.00  0.00    +0.002 A 
ATOM     35  C   UNL     1      -7.589  -3.099  -3.528  0.00  0.00    +0.034 A 
ATOM     36  C   UNL     1      -6.261  -2.729  -3.622  0.00  0.00    +0.147 A 
BRANCH  36  37
ATOM     37  N   UNL     1      -5.479  -3.075  -4.830  0.00  0.00    +0.058 N 
ATOM     38  O   UNL     1      -6.027  -3.589  -5.778  0.00  0.00    -0.126 OA
ATOM     39  O   UNL     1      -4.293  -2.845  -4.869  0.00  0.00    -0.126 OA
ENDBRANCH  36  37
ENDBRANCH  29  31
ENDBRANCH  24  27
ENDBRANCH  22  23
ENDBRANCH   1  22
TORSDOF 9
