REMARK  Name = ZINC14472591
REMARK  4 active torsions:
REMARK  status: ('A' for Active; 'I' for Inactive)
REMARK    1  A    between atoms: C_1  and  C_2
REMARK    2  A    between atoms: C_4  and  C_28
REMARK    3  A    between atoms: C_15  and  C_18
REMARK    4  A    between atoms: C_20  and  N_25
REMARK                            x       y       z     vdW  Elec       q    Type
REMARK                         _______ _______ _______ _____ _____    ______ ____
ROOT
ATOM      1  C   UNL     1       0.402  -5.338   0.801  0.00  0.00    +0.044 C 
ATOM      2  C   UNL     1       1.025  -4.053   1.282  0.00  0.00    -0.050 A 
ATOM      3  C   UNL     1       1.627  -3.999   2.526  0.00  0.00    +0.008 A 
ATOM      4  C   UNL     1       2.197  -2.822   2.961  0.00  0.00    -0.029 A 
ATOM      5  C   UNL     1       2.168  -1.685   2.155  0.00  0.00    +0.034 A 
ATOM      6  C   UNL     1       1.562  -1.738   0.911  0.00  0.00    -0.019 A 
ATOM      7  C   UNL     1       0.994  -2.930   0.481  0.00  0.00    +0.009 A 
ATOM      8  C   UNL     1       1.490  -0.552  -0.006  0.00  0.00    +0.049 C 
ATOM      9  C   UNL     1       0.078  -0.017  -0.071  0.00  0.00    -0.023 C 
ATOM     10  C   UNL     1       0.085   1.292  -0.097  0.00  0.00    -0.030 C 
ATOM     11  C   UNL     1       1.506   1.818  -0.061  0.00  0.00    +0.033 C 
ATOM     12  C   UNL     1       2.318   0.633   0.534  0.00  0.00    +0.029 C 
ATOM     13  C   UNL     1       2.175   0.685   2.057  0.00  0.00    +0.106 C 
ATOM     14  N   UNL     1       2.761  -0.521   2.643  0.00  0.00    -0.336 N 
ATOM     15  C   UNL     1       2.854  -2.763   4.316  0.00  0.00    +0.045 C 
ATOM     16  H   UNL     1       3.761  -0.540   2.507  0.00  0.00    +0.147 HD
ENDROOT
BRANCH  13  17
ATOM     17  C   UNL     1       2.892   1.900   2.588  0.00  0.00    -0.007 A 
ATOM     18  C   UNL     1       3.819   2.555   1.800  0.00  0.00    +0.039 A 
ATOM     19  C   UNL     1       4.472   3.673   2.284  0.00  0.00    +0.127 A 
ATOM     20  C   UNL     1       4.207   4.130   3.562  0.00  0.00    +0.034 A 
ATOM     21  C   UNL     1       3.283   3.473   4.353  0.00  0.00    +0.022 A 
ATOM     22  C   UNL     1       2.625   2.357   3.866  0.00  0.00    +0.046 A 
ATOM     23 CL   UNL     1       1.466   1.531   4.859  0.00  0.00    -0.083 Cl
BRANCH  19  24
ATOM     24  N   UNL     1       5.461   4.377   1.438  0.00  0.00    +0.056 N 
ATOM     25  O   UNL     1       6.041   5.359   1.866  0.00  0.00    -0.126 OA
ATOM     26  O   UNL     1       5.696   3.974   0.312  0.00  0.00    -0.126 OA
ENDBRANCH  19  24
ENDBRANCH  13  17
TORSDOF 2
