REMARK  Name = ZINC62910642
REMARK  6 active torsions:
REMARK  status: ('A' for Active; 'I' for Inactive)
REMARK    1  A    between atoms: C_1  and  C_2
REMARK    2  A    between atoms: C_2  and  C_3
REMARK    3  A    between atoms: C_3  and  C_4
REMARK    4  A    between atoms: C_4  and  C_9
REMARK    5  A    between atoms: N_11  and  C_12
REMARK    6  A    between atoms: C_17  and  C_18
REMARK                            x       y       z     vdW  Elec       q    Type
REMARK                         _______ _______ _______ _____ _____    ______ ____
ROOT
ATOM      1  C   UNL     1      -0.569  -2.477   1.312  0.00  0.00    +0.222 C 
ATOM      2  O   UNL     1      -1.064  -3.293   2.060  0.00  0.00    -0.275 OA
ATOM      3  N   UNL     1       0.641  -1.953   1.593  0.00  0.00    -0.284 N 
ATOM      4  H   UNL     1       1.073  -1.362   0.956  0.00  0.00    +0.155 HD
ENDROOT
BRANCH   1   5
ATOM      5  C   UNL     1      -1.307  -2.047   0.070  0.00  0.00    +0.031 C 
ATOM      6  C   UNL     1      -0.570  -2.547  -1.194  0.00  0.00    -0.005 C 
ATOM      7  C   UNL     1      -1.331  -3.849  -1.547  0.00  0.00    -0.082 C 
ATOM      8  N   UNL     1      -2.743  -3.515  -1.226  0.00  0.00    +0.380 N 
ATOM      9  C   UNL     1      -2.694  -2.713   0.016  0.00  0.00    -0.067 C 
ATOM     10  H   UNL     1      -3.151  -2.975  -1.974  0.00  0.00    -0.086 HD
ATOM     11  H   UNL     1      -3.274  -4.359  -1.074  0.00  0.00    -0.086 HD
BRANCH   5  12
ATOM     12  C   UNL     1      -1.446  -0.524   0.036  0.00  0.00    +0.014 C 
BRANCH  12  14
ATOM     13  C   UNL     1      -2.191   1.480   1.328  0.00  0.00    +0.004 C 
ATOM     14  C   UNL     1      -2.162  -0.049   1.302  0.00  0.00    -0.002 C 
ENDBRANCH  12  14
ENDBRANCH   5  12
ENDBRANCH   1   5
BRANCH   3  15
ATOM     15  C   UNL     1       1.271  -2.260   2.795  0.00  0.00    +0.048 A 
ATOM     16  C   UNL     1       0.519  -2.637   3.900  0.00  0.00    +0.025 A 
ATOM     17  C   UNL     1       1.145  -2.942   5.092  0.00  0.00    +0.016 A 
ATOM     18  C   UNL     1       2.526  -2.874   5.197  0.00  0.00    +0.014 A 
ATOM     19  C   UNL     1       3.289  -2.502   4.112  0.00  0.00    +0.031 A 
ATOM     20  C   UNL     1       2.670  -2.197   2.895  0.00  0.00    +0.085 A 
ATOM     21  I   UNL     1       3.457  -3.340   7.015  0.00  0.00    -0.044 I 
BRANCH  20  22
ATOM     22  C   UNL     1       3.479  -1.805   1.730  0.00  0.00    +0.388 C 
ATOM     23  O   UNL     1       4.700  -1.837   1.794  0.00  0.00    -0.241 OA
ATOM     24  O   UNL     1       2.930  -1.446   0.697  0.00  0.00    -0.241 OA
ENDBRANCH  20  22
ENDBRANCH   3  15
TORSDOF 5
