REMARK  Name = ZINC27521563
REMARK  9 active torsions:
REMARK  status: ('A' for Active; 'I' for Inactive)
REMARK    1  A    between atoms: C_1  and  C_2
REMARK    2  A    between atoms: C_7  and  N_8
REMARK    3  A    between atoms: C_9  and  C_11
REMARK    4  A    between atoms: C_11  and  N_22
REMARK    5  A    between atoms: C_12  and  C_13
REMARK    6  A    between atoms: C_17  and  N_19
REMARK    7  A    between atoms: C_23  and  C_25
REMARK    8  A    between atoms: C_28  and  O_32
REMARK    9  A    between atoms: O_32  and  C_33
REMARK                            x       y       z     vdW  Elec       q    Type
REMARK                         _______ _______ _______ _____ _____    ______ ____
ROOT
ATOM      1  C   UNL     1       3.812   6.054  -0.235  0.00  0.00    +0.097 C 
ATOM      2  C   UNL     1       4.958   5.349  -0.383  0.00  0.00    +0.036 C 
ENDROOT
BRANCH   2   3
ATOM      3  C   UNL     1       4.908   3.887  -0.534  0.00  0.00    -0.021 A 
ATOM      4  C   UNL     1       3.874   3.154   0.059  0.00  0.00    +0.008 A 
ATOM      5  C   UNL     1       3.830   1.784  -0.092  0.00  0.00    +0.003 A 
ATOM      6  C   UNL     1       4.813   1.133  -0.817  0.00  0.00    +0.033 A 
ATOM      7  C   UNL     1       5.843   1.850  -1.401  0.00  0.00    +0.127 A 
ATOM      8  C   UNL     1       5.897   3.221  -1.265  0.00  0.00    +0.040 A 
BRANCH   7   9
ATOM      9  N   UNL     1       6.888   1.143  -2.174  0.00  0.00    +0.056 N 
ATOM     10  O   UNL     1       7.795   1.773  -2.689  0.00  0.00    -0.126 OA
ATOM     11  O   UNL     1       6.842  -0.068  -2.296  0.00  0.00    -0.126 OA
ENDBRANCH   7   9
ENDBRANCH   2   3
BRANCH   1  13
ATOM     12  N   UNL     1       2.066   5.031  -1.601  0.00  0.00    -0.280 N 
ATOM     13  C   UNL     1       2.513   5.382  -0.378  0.00  0.00    +0.262 C 
ATOM     14  O   UNL     1       1.840   5.143   0.607  0.00  0.00    -0.268 OA
ATOM     15  H   UNL     1       2.706   5.179  -2.483  0.00  0.00    +0.155 HD
BRANCH  12  22
ATOM     16  C   UNL     1       1.484   3.615  -3.999  0.00  0.00    +0.045 C 
ATOM     17  C   UNL     1       0.463   3.779  -2.902  0.00  0.00    -0.029 A 
ATOM     18  C   UNL     1      -0.798   3.234  -3.044  0.00  0.00    +0.006 A 
ATOM     19  C   UNL     1      -1.737   3.389  -2.041  0.00  0.00    +0.020 A 
ATOM     20  C   UNL     1      -1.413   4.080  -0.886  0.00  0.00    +0.043 A 
ATOM     21  C   UNL     1      -0.152   4.628  -0.738  0.00  0.00    +0.043 A 
ATOM     22  C   UNL     1       0.791   4.478  -1.747  0.00  0.00    +0.038 A 
ATOM     23 CL   UNL     1      -2.593   4.267   0.373  0.00  0.00    -0.083 Cl
ENDBRANCH  12  22
ENDBRANCH   1  13
BRANCH   1  24
ATOM     24  N   UNL     1       3.865   7.420   0.054  0.00  0.00    -0.277 N 
ATOM     25  C   UNL     1       2.723   8.124   0.194  0.00  0.00    +0.250 C 
ATOM     26  O   UNL     1       1.650   7.552   0.170  0.00  0.00    -0.270 OA
ATOM     27  H   UNL     1       4.837   7.922   0.166  0.00  0.00    +0.155 HD
BRANCH  25  28
ATOM     28  C   UNL     1       2.776   9.586   0.378  0.00  0.00    +0.056 A 
ATOM     29  C   UNL     1       4.009  10.245   0.405  0.00  0.00    +0.018 A 
ATOM     30  C   UNL     1       4.054  11.610   0.577  0.00  0.00    +0.046 A 
ATOM     31  C   UNL     1       2.876  12.335   0.721  0.00  0.00    +0.122 A 
ATOM     32  C   UNL     1       1.648  11.685   0.694  0.00  0.00    +0.066 A 
ATOM     33  C   UNL     1       1.593  10.319   0.518  0.00  0.00    +0.057 A 
ATOM     34 CL   UNL     1       0.058   9.508   0.477  0.00  0.00    -0.083 Cl
BRANCH  31  35
ATOM     35  O   UNL     1       2.925  13.681   0.889  0.00  0.00    -0.495 OA
ATOM     36  C   UNL     1       1.678  14.363   1.031  0.00  0.00    +0.277 C 
ENDBRANCH  31  35
ENDBRANCH  25  28
ENDBRANCH   1  24
TORSDOF 7
