REMARK  Name = ZINC06452674
REMARK  5 active torsions:
REMARK  status: ('A' for Active; 'I' for Inactive)
REMARK    1  A    between atoms: C_4  and  C_7
REMARK    2  A    between atoms: C_7  and  N_8
REMARK    3  A    between atoms: C_15  and  N_18
REMARK    4  A    between atoms: C_16  and  O_17
REMARK    5  A    between atoms: N_19  and  C_20
REMARK                            x       y       z     vdW  Elec       q    Type
REMARK                         _______ _______ _______ _____ _____    ______ ____
ROOT
ATOM      1  N   UNL     1       4.152  -0.952   1.338  0.00  0.00    -0.306 N 
ATOM      2  C   UNL     1       4.939  -0.090   2.080  0.00  0.00    +0.055 A 
ATOM      3  C   UNL     1       5.507   1.148   1.802  0.00  0.00    +0.026 A 
ATOM      4  C   UNL     1       6.263   1.790   2.760  0.00  0.00    +0.002 A 
ATOM      5  C   UNL     1       6.465   1.212   4.004  0.00  0.00    +0.001 A 
ATOM      6  C   UNL     1       5.910  -0.014   4.299  0.00  0.00    +0.012 A 
ATOM      7  C   UNL     1       5.144  -0.674   3.340  0.00  0.00    +0.031 A 
ATOM      8  C   UNL     1       4.423  -1.960   3.318  0.00  0.00    +0.154 A 
ATOM      9  C   UNL     1       3.839  -2.057   2.067  0.00  0.00    +0.222 A 
ENDROOT
BRANCH   9  10
ATOM     10  O   UNL     1       3.080  -3.090   1.637  0.00  0.00    -0.492 OA
ATOM     11  H   UNL     1       3.583  -3.796   1.208  0.00  0.00    +0.294 HD
ENDBRANCH   9  10
BRANCH   8  12
ATOM     12  N   UNL     1       4.345  -2.862   4.322  0.00  0.00    -0.148 NA
ATOM     13  N   UNL     1       3.699  -3.909   4.165  0.00  0.00    -0.182 NA
BRANCH  13  14
ATOM     14  C   UNL     1       3.614  -4.887   5.253  0.00  0.00    +0.150 C 
ATOM     15  C   UNL     1       2.841  -4.273   6.432  0.00  0.00    +0.053 C 
ATOM     16  C   UNL     1       2.494  -5.413   7.430  0.00  0.00    +0.168 C 
ATOM     17  S   UNL     1       2.026  -6.756   6.258  0.00  0.00    -0.029 S 
ATOM     18  O   UNL     1       2.630  -7.971   6.682  0.00  0.00    -0.174 OA
ATOM     19  O   UNL     1       0.622  -6.712   6.041  0.00  0.00    -0.174 OA
ATOM     20  C   UNL     1       2.884  -6.155   4.748  0.00  0.00    +0.194 C 
ENDBRANCH  13  14
ENDBRANCH   8  12
BRANCH   1  21
ATOM     21  C   UNL     1       3.711  -0.707  -0.038  0.00  0.00    +0.160 C 
BRANCH  21  25
ATOM     22  C   UNL     1      -0.017   1.378   0.010  0.00  0.00    +0.000 A 
ATOM     23  C   UNL     1       1.171   2.086   0.002  0.00  0.00    +0.000 A 
ATOM     24  C   UNL     1       2.377   1.411  -0.013  0.00  0.00    +0.005 A 
ATOM     25  C   UNL     1       2.396   0.029  -0.020  0.00  0.00    -0.028 A 
ATOM     26  C   UNL     1       1.208  -0.679  -0.012  0.00  0.00    +0.005 A 
ATOM     27  C   UNL     1       0.002  -0.004   0.002  0.00  0.00    +0.000 A 
ENDBRANCH  21  25
ENDBRANCH   1  21
TORSDOF 5
