REMARK  Name = ZINC21894359
REMARK  5 active torsions:
REMARK  status: ('A' for Active; 'I' for Inactive)
REMARK    1  A    between atoms: C_1  and  C_2
REMARK    2  A    between atoms: C_2  and  C_3
REMARK    3  A    between atoms: C_2  and  C_4
REMARK    4  A    between atoms: C_4  and  C_5
REMARK    5  A    between atoms: C_5  and  N_6
REMARK                            x       y       z     vdW  Elec       q    Type
REMARK                         _______ _______ _______ _____ _____    ______ ____
ROOT
ATOM      1  N   UNL     1       4.707   3.892  -0.234  0.00  0.00    -0.299 N 
ATOM      2  C   UNL     1       3.553   3.208  -0.105  0.00  0.00    +0.307 C 
ATOM      3  O   UNL     1       3.568   1.993  -0.069  0.00  0.00    -0.252 OA
ATOM      4  N   UNL     1       2.383   3.871  -0.017  0.00  0.00    -0.252 N 
ATOM      5  C   UNL     1       2.361   5.348   0.063  0.00  0.00    +0.137 C 
ATOM      6  C   UNL     1       1.099   5.782  -0.676  0.00  0.00    +0.091 C 
ATOM      7  C   UNL     1       0.850   7.293  -0.655  0.00  0.00    +0.025 C 
ATOM      8  C   UNL     1      -0.693   7.421  -0.556  0.00  0.00    +0.021 C 
ATOM      9  C   UNL     1      -1.210   5.960  -0.456  0.00  0.00    +0.105 C 
ATOM     10  N   UNL     1      -0.056   5.228   0.076  0.00  0.00    -0.324 N 
ATOM     11  C   UNL     1      -0.059   3.850   0.025  0.00  0.00    +0.052 A 
ATOM     12  C   UNL     1       1.164   3.167   0.000  0.00  0.00    +0.059 A 
ATOM     13  C   UNL     1       1.175   1.782  -0.023  0.00  0.00    +0.025 A 
ATOM     14  C   UNL     1      -0.014   1.077  -0.027  0.00  0.00    +0.002 A 
ATOM     15  C   UNL     1      -1.221   1.751  -0.020  0.00  0.00    +0.002 A 
ATOM     16  C   UNL     1      -1.245   3.132   0.011  0.00  0.00    +0.025 A 
ATOM     17  H   UNL     1       4.703   4.991  -0.184  0.00  0.00    +0.150 HD
ENDROOT
BRANCH   1  18
ATOM     18  C   UNL     1       5.966   3.173  -0.442  0.00  0.00    +0.106 C 
BRANCH  18  19
ATOM     19  C   UNL     1       7.114   4.177  -0.556  0.00  0.00    +0.022 C 
BRANCH  19  21
ATOM     20  C   UNL     1       9.558   4.431  -1.010  0.00  0.00    +0.007 C 
ATOM     21  C   UNL     1       8.429   3.426  -0.772  0.00  0.00    -0.016 C 
ATOM     22  C   UNL     1       8.747   2.586   0.466  0.00  0.00    +0.007 C 
ENDBRANCH  19  21
ENDBRANCH  18  19
ENDBRANCH   1  18
TORSDOF 3
