REMARK  Name = ZINC10710430
REMARK  9 active torsions:
REMARK  status: ('A' for Active; 'I' for Inactive)
REMARK    1  A    between atoms: C_1  and  C_2
REMARK    2  A    between atoms: C_5  and  N_8
REMARK    3  A    between atoms: C_9  and  N_14
REMARK    4  A    between atoms: C_11  and  C_13
REMARK    5  A    between atoms: C_15  and  C_17
REMARK    6  A    between atoms: C_17  and  S_18
REMARK    7  A    between atoms: S_18  and  C_19
REMARK    8  A    between atoms: C_22  and  C_25
REMARK    9  A    between atoms: N_23  and  C_24
REMARK                            x       y       z     vdW  Elec       q    Type
REMARK                         _______ _______ _______ _____ _____    ______ ____
ROOT
ATOM      1  N   UNL     1       3.356  11.976   0.035  0.00  0.00    -0.270 N 
ATOM      2  C   UNL     1       3.734  10.697   0.235  0.00  0.00    +0.229 C 
ATOM      3  O   UNL     1       4.882  10.444   0.535  0.00  0.00    -0.275 OA
ATOM      4  H   UNL     1       2.316  12.205  -0.237  0.00  0.00    +0.156 HD
ENDROOT
BRANCH   1   6
ATOM      5  N   UNL     1       4.045  14.335  -0.003  0.00  0.00    -0.218 N 
ATOM      6  C   UNL     1       4.285  13.007   0.173  0.00  0.00    +0.129 A 
ATOM      7  C   UNL     1       5.598  12.869   0.503  0.00  0.00    +0.068 A 
ATOM      8  C   UNL     1       6.168  14.145   0.534  0.00  0.00    +0.062 A 
ATOM      9  N   UNL     1       5.243  15.021   0.236  0.00  0.00    -0.170 NA
ATOM     10  C   UNL     1       7.607  14.459   0.857  0.00  0.00    +0.067 C 
BRANCH   5  15
ATOM     11  C   UNL     1      -0.921  16.677  -1.438  0.00  0.00    +0.044 C 
ATOM     12  C   UNL     1       0.398  16.055  -1.057  0.00  0.00    -0.050 A 
ATOM     13  C   UNL     1       1.250  16.719  -0.194  0.00  0.00    +0.005 A 
ATOM     14  C   UNL     1       2.459  16.152   0.158  0.00  0.00    +0.028 A 
ATOM     15  C   UNL     1       2.819  14.913  -0.357  0.00  0.00    +0.067 A 
ATOM     16  C   UNL     1       1.963  14.252  -1.228  0.00  0.00    +0.028 A 
ATOM     17  C   UNL     1       0.753  14.822  -1.571  0.00  0.00    +0.005 A 
ENDBRANCH   5  15
ENDBRANCH   1   6
BRANCH   2  18
ATOM     18  C   UNL     1       2.731   9.583   0.085  0.00  0.00    +0.173 C 
BRANCH  18  19
ATOM     19  S   UNL     1       3.538   7.997   0.415  0.00  0.00    -0.077 S 
BRANCH  19  20
ATOM     20  C   UNL     1       2.175   6.905   0.176  0.00  0.00    +0.192 A 
ATOM     21  N   UNL     1       0.950   7.248  -0.151  0.00  0.00    -0.122 NA
ATOM     22  N   UNL     1       0.209   6.203  -0.249  0.00  0.00    -0.128 NA
ATOM     23  C   UNL     1       0.914   5.126   0.019  0.00  0.00    +0.171 A 
ATOM     24  N   UNL     1       2.197   5.543   0.297  0.00  0.00    -0.305 N 
ATOM     25  C   UNL     1       3.345   4.703   0.646  0.00  0.00    +0.153 C 
BRANCH  23  26
ATOM     26  C   UNL     1       0.426   3.737   0.017  0.00  0.00    +0.056 A 
ATOM     27  C   UNL     1      -0.866   3.275   0.026  0.00  0.00    +0.019 A 
ATOM     28  C   UNL     1      -1.081   1.915   0.017  0.00  0.00    +0.008 A 
ATOM     29  C   UNL     1      -0.013   1.076   0.008  0.00  0.00    +0.046 A 
ATOM     30  S   UNL     1       1.361   2.216   0.001  0.00  0.00    -0.094 S 
ENDBRANCH  23  26
ENDBRANCH  19  20
ENDBRANCH  18  19
ENDBRANCH   2  18
TORSDOF 6
