REMARK  Name = ZINC07842446
REMARK  11 active torsions:
REMARK  status: ('A' for Active; 'I' for Inactive)
REMARK    1  A    between atoms: C_1  and  C_2
REMARK    2  A    between atoms: C_2  and  N_3
REMARK    3  A    between atoms: N_3  and  C_4
REMARK    4  A    between atoms: C_4  and  C_5
REMARK    5  A    between atoms: N_7  and  C_8
REMARK    6  A    between atoms: C_8  and  C_9
REMARK    7  A    between atoms: C_8  and  C_10
REMARK    8  A    between atoms: C_11  and  C_13
REMARK    9  A    between atoms: C_14  and  C_24
REMARK   10  A    between atoms: C_17  and  O_22
REMARK   11  A    between atoms: O_22  and  C_23
REMARK                            x       y       z     vdW  Elec       q    Type
REMARK                         _______ _______ _______ _____ _____    ______ ____
ROOT
ATOM      1  N   UNL     1      -4.322   2.063   0.545  0.00  0.00    -0.286 N 
ATOM      2  C   UNL     1      -3.053   1.656   0.346  0.00  0.00    +0.283 C 
ATOM      3  O   UNL     1      -2.245   1.716   1.254  0.00  0.00    -0.267 OA
ENDROOT
BRANCH   2   4
ATOM      4  C   UNL     1      -2.644   1.138  -0.967  0.00  0.00    +0.194 A 
ATOM      5  C   UNL     1      -1.373   0.813  -1.319  0.00  0.00    +0.008 A 
ATOM      6  C   UNL     1      -1.443   0.341  -2.701  0.00  0.00    +0.027 A 
ATOM      7  C   UNL     1      -0.499  -0.134  -3.615  0.00  0.00    +0.057 A 
ATOM      8  C   UNL     1      -0.905  -0.509  -4.880  0.00  0.00    +0.121 A 
ATOM      9  C   UNL     1      -2.247  -0.415  -5.242  0.00  0.00    +0.049 A 
ATOM     10  C   UNL     1      -3.185   0.051  -4.348  0.00  0.00    +0.050 A 
ATOM     11  C   UNL     1      -2.798   0.435  -3.069  0.00  0.00    +0.136 A 
ATOM     12  O   UNL     1      -3.475   0.917  -2.007  0.00  0.00    -0.450 OA
ATOM     13  C   UNL     1      -0.141   0.913  -0.456  0.00  0.00    +0.048 C 
BRANCH   8  14
ATOM     14  O   UNL     1       0.008  -0.973  -5.775  0.00  0.00    -0.495 OA
ATOM     15  C   UNL     1      -0.480  -1.344  -7.066  0.00  0.00    +0.277 C 
ENDBRANCH   8  14
ENDBRANCH   2   4
BRANCH   1  17
ATOM     16  C   UNL     1      -4.617   4.187   1.722  0.00  0.00    +0.024 C 
ATOM     17  C   UNL     1      -4.707   2.663   1.825  0.00  0.00    +0.105 C 
ENDBRANCH   1  17
BRANCH   1  18
ATOM     18  C   UNL     1      -5.317   1.907  -0.519  0.00  0.00    +0.203 C 
BRANCH  18  19
ATOM     19  C   UNL     1      -5.876   0.508  -0.482  0.00  0.00    +0.231 C 
ATOM     20  O   UNL     1      -5.483  -0.280   0.351  0.00  0.00    -0.274 OA
ATOM     21  N   UNL     1      -6.814   0.134  -1.375  0.00  0.00    -0.312 N 
ATOM     22  H   UNL     1      -7.128   0.764  -2.041  0.00  0.00    +0.149 HD
BRANCH  21  23
ATOM     23  C   UNL     1      -7.358  -1.226  -1.338  0.00  0.00    +0.067 C 
ATOM     24  C   UNL     1      -8.505  -1.290  -0.328  0.00  0.00    +0.027 C 
ATOM     25  C   UNL     1      -7.880  -1.604  -2.726  0.00  0.00    +0.027 C 
ENDBRANCH  21  23
ENDBRANCH  18  19
ENDBRANCH   1  18
TORSDOF 6
