REMARK  Name = ZINC62875088
REMARK  5 active torsions:
REMARK  status: ('A' for Active; 'I' for Inactive)
REMARK    1  A    between atoms: C_1  and  C_2
REMARK    2  A    between atoms: C_2  and  C_3
REMARK    3  A    between atoms: C_3  and  C_19
REMARK    4  A    between atoms: C_14  and  C_18
REMARK    5  A    between atoms: C_15  and  C_17
REMARK                            x       y       z     vdW  Elec       q    Type
REMARK                         _______ _______ _______ _____ _____    ______ ____
ROOT
ATOM      1  C   UNL     1      -1.429  -0.532   0.014  0.00  0.00    +0.087 C 
ATOM      2  C   UNL     1      -1.408  -2.062   0.002  0.00  0.00    +0.021 C 
ATOM      3  C   UNL     1      -0.663  -2.554  -1.241  0.00  0.00    +0.020 C 
ATOM      4  C   UNL     1      -1.398  -2.071  -2.496  0.00  0.00    +0.109 C 
ATOM      5  N   UNL     1      -1.551  -0.612  -2.422  0.00  0.00    -0.284 N 
ATOM      6  C   UNL     1      -2.172  -0.026  -1.227  0.00  0.00    +0.127 C 
ATOM      7  C   UNL     1      -1.128   0.175  -3.432  0.00  0.00    +0.308 C 
ATOM      8  O   UNL     1      -1.342   1.371  -3.401  0.00  0.00    -0.252 OA
ATOM      9  N   UNL     1      -0.468  -0.365  -4.476  0.00  0.00    -0.248 N 
ATOM     10  C   UNL     1       0.060   0.457  -5.464  0.00  0.00    +0.166 A 
ATOM     11  N   UNL     1       0.019   1.769  -5.544  0.00  0.00    -0.230 NA
ATOM     12  C   UNL     1       0.574   2.409  -6.557  0.00  0.00    +0.050 A 
ATOM     13  C   UNL     1       1.183   1.653  -7.503  0.00  0.00    +0.011 A 
ATOM     14  S   UNL     1       0.913   0.015  -6.846  0.00  0.00    -0.057 S 
ATOM     15  C   UNL     1       1.897   2.079  -8.761  0.00  0.00    +0.053 C 
ATOM     16  C   UNL     1       0.532   3.912  -6.657  0.00  0.00    +0.066 C 
ATOM     17  H   UNL     1      -0.362  -1.327  -4.537  0.00  0.00    +0.158 HD
ENDROOT
BRANCH   1  18
ATOM     18  C   UNL     1      -2.133  -0.047   1.255  0.00  0.00    +0.364 C 
ATOM     19  O   UNL     1      -2.260   1.148   1.456  0.00  0.00    -0.246 OA
ATOM     20  O   UNL     1      -2.576  -0.851   2.057  0.00  0.00    -0.246 OA
ENDBRANCH   1  18
BRANCH   1  22
ATOM     21  C   UNL     1      -0.015   1.528   0.008  0.00  0.00    +0.005 C 
ATOM     22  C   UNL     1       0.006  -0.001   0.001  0.00  0.00    +0.016 C 
ENDBRANCH   1  22
TORSDOF 2
