REMARK  Name = ZINC19941425
REMARK  10 active torsions:
REMARK  status: ('A' for Active; 'I' for Inactive)
REMARK    1  A    between atoms: C_1  and  C_2
REMARK    2  A    between atoms: C_2  and  C_3
REMARK    3  A    between atoms: C_10  and  C_15
REMARK    4  A    between atoms: C_15  and  C_17
REMARK    5  A    between atoms: C_15  and  N_29
REMARK    6  A    between atoms: N_21  and  C_22
REMARK    7  A    between atoms: C_22  and  C_23
REMARK    8  A    between atoms: N_32  and  C_35
REMARK    9  A    between atoms: C_37  and  C_42
REMARK   10  A    between atoms: C_40  and  C_41
REMARK                            x       y       z     vdW  Elec       q    Type
REMARK                         _______ _______ _______ _____ _____    ______ ____
ROOT
ATOM      1  C   UNL     1      -5.297  -2.056   0.058  0.00  0.00    +0.162 C 
ENDROOT
BRANCH   1   9
ATOM      2  C   UNL     1      -8.165  -3.360   5.383  0.00  0.00    -0.047 A 
ATOM      3  C   UNL     1      -7.164  -4.168   5.905  0.00  0.00    +0.005 A 
ATOM      4  C   UNL     1      -6.008  -4.404   5.194  0.00  0.00    +0.026 A 
ATOM      5  C   UNL     1      -5.840  -3.827   3.939  0.00  0.00    +0.049 A 
ATOM      6  C   UNL     1      -6.857  -3.008   3.413  0.00  0.00    -0.001 A 
ATOM      7  C   UNL     1      -8.022  -2.783   4.153  0.00  0.00    +0.013 A 
ATOM      8  C   UNL     1      -6.671  -2.406   2.092  0.00  0.00    +0.021 A 
ATOM      9  C   UNL     1      -5.520  -2.660   1.420  0.00  0.00    +0.042 A 
ATOM     10  C   UNL     1      -4.534  -3.493   1.990  0.00  0.00    +0.254 A 
ATOM     11  O   UNL     1      -3.509  -3.713   1.368  0.00  0.00    -0.268 OA
ATOM     12  N   UNL     1      -4.693  -4.046   3.205  0.00  0.00    -0.322 N 
ATOM     13  H   UNL     1      -3.893  -4.681   3.612  0.00  0.00    +0.169 HD
BRANCH   2  15
ATOM     14  C   UNL     1     -10.457  -4.190   5.837  0.00  0.00    +0.009 C 
ATOM     15  C   UNL     1      -9.421  -3.118   6.180  0.00  0.00    +0.032 C 
ENDBRANCH   2  15
ENDBRANCH   1   9
BRANCH   1  16
ATOM     16  N   UNL     1      -4.034  -1.307   0.055  0.00  0.00    -0.286 NA
ATOM     17  C   UNL     1      -3.896  -0.511  -1.172  0.00  0.00    +0.104 C 
ATOM     18  C   UNL     1      -2.535   0.190  -1.172  0.00  0.00    +0.120 C 
ATOM     19  N   UNL     1      -2.426   1.042   0.020  0.00  0.00    -0.327 N 
ATOM     20  C   UNL     1      -2.564   0.247   1.247  0.00  0.00    +0.120 C 
ATOM     21  C   UNL     1      -3.925  -0.454   1.247  0.00  0.00    +0.104 C 
BRANCH  19  22
ATOM     22  C   UNL     1      -1.225   1.755   0.017  0.00  0.00    +0.033 A 
ATOM     23  C   UNL     1      -0.013   1.076   0.008  0.00  0.00    +0.026 A 
ATOM     24  C   UNL     1       1.173   1.783   0.000  0.00  0.00    -0.049 A 
ATOM     25  C   UNL     1       1.155   3.166   0.007  0.00  0.00    +0.004 A 
ATOM     26  C   UNL     1      -0.049   3.845   0.022  0.00  0.00    +0.005 A 
ATOM     27  C   UNL     1      -1.239   3.144   0.030  0.00  0.00    -0.029 A 
ATOM     28  C   UNL     1      -2.551   3.884   0.047  0.00  0.00    +0.045 C 
ATOM     29  C   UNL     1       2.488   1.048  -0.016  0.00  0.00    +0.044 C 
ENDBRANCH  19  22
ENDBRANCH   1  16
BRANCH   1  30
ATOM     30  C   UNL     1      -5.233  -3.153  -0.974  0.00  0.00    +0.173 A 
ATOM     31  N   UNL     1      -4.234  -3.976  -1.179  0.00  0.00    -0.111 NA
ATOM     32  N   UNL     1      -4.560  -4.766  -2.144  0.00  0.00    -0.023 NA
ATOM     33  N   UNL     1      -5.742  -4.467  -2.559  0.00  0.00    -0.044 NA
ATOM     34  N   UNL     1      -6.192  -3.481  -1.859  0.00  0.00    -0.225 N 
BRANCH  34  35
ATOM     35  C   UNL     1      -7.500  -2.838  -2.002  0.00  0.00    +0.179 C 
BRANCH  35  36
ATOM     36  C   UNL     1      -7.395  -1.687  -3.004  0.00  0.00    +0.140 C 
ATOM     37  C   UNL     1      -8.739  -0.930  -3.076  0.00  0.00    +0.035 C 
ATOM     38  C   UNL     1      -8.861  -0.619  -4.593  0.00  0.00    +0.031 C 
ATOM     39  C   UNL     1      -8.194  -1.875  -5.206  0.00  0.00    +0.160 C 
ATOM     40  O   UNL     1      -7.119  -2.203  -4.311  0.00  0.00    -0.375 OA
ENDBRANCH  35  36
ENDBRANCH  34  35
ENDBRANCH   1  30
TORSDOF 7
