REMARK  Name = ZINC35750614
REMARK  12 active torsions:
REMARK  status: ('A' for Active; 'I' for Inactive)
REMARK    1  A    between atoms: C_1  and  C_2
REMARK    2  A    between atoms: C_6  and  C_8
REMARK    3  A    between atoms: N_10  and  C_11
REMARK    4  A    between atoms: C_14  and  C_17
REMARK    5  A    between atoms: C_19  and  C_33
REMARK    6  A    between atoms: N_21  and  C_25
REMARK    7  A    between atoms: C_25  and  C_26
REMARK    8  A    between atoms: N_35  and  C_36
REMARK    9  A    between atoms: C_36  and  C_37
REMARK   10  A    between atoms: C_37  and  C_38
REMARK   11  A    between atoms: C_38  and  C_39
REMARK   12  A    between atoms: C_38  and  C_40
REMARK                            x       y       z     vdW  Elec       q    Type
REMARK                         _______ _______ _______ _____ _____    ______ ____
ROOT
ATOM      1  C   UNL     1       0.493  -7.253   7.202  0.00  0.00    +0.238 C 
ATOM      2  C   UNL     1      -0.850  -7.945   7.536  0.00  0.00    +0.210 C 
ATOM      3  N   UNL     1      -0.405  -9.252   8.061  0.00  0.00    -0.248 N 
ATOM      4  C   UNL     1       0.890  -9.408   7.729  0.00  0.00    +0.405 C 
ATOM      5  O   UNL     1       1.552 -10.377   8.044  0.00  0.00    -0.226 OA
ATOM      6  O   UNL     1       1.373  -8.379   7.013  0.00  0.00    -0.440 OA
ENDROOT
BRANCH   1  10
ATOM      7  C   UNL     1       0.173  -4.947   3.617  0.00  0.00    +0.034 A 
ATOM      8  C   UNL     1       0.159  -4.316   4.855  0.00  0.00    +0.024 A 
ATOM      9  C   UNL     1       0.262  -5.064   6.011  0.00  0.00    +0.009 A 
ATOM     10  C   UNL     1       0.380  -6.440   5.938  0.00  0.00    -0.005 A 
ATOM     11  C   UNL     1       0.395  -7.072   4.708  0.00  0.00    +0.009 A 
ATOM     12  C   UNL     1       0.286  -6.330   3.548  0.00  0.00    +0.024 A 
BRANCH   7  15
ATOM     13  C   UNL     1       0.637  -2.973   2.375  0.00  0.00    +0.248 C 
ATOM     14  O   UNL     1       1.168  -2.493   3.357  0.00  0.00    -0.270 OA
ATOM     15  N   UNL     1       0.068  -4.193   2.445  0.00  0.00    -0.282 N 
ATOM     16  H   UNL     1      -0.415  -4.548   1.681  0.00  0.00    +0.155 HD
BRANCH  13  22
ATOM     17  C   UNL     1       1.811   1.108  -0.245  0.00  0.00    +0.044 C 
ATOM     18  C   UNL     1       1.178  -0.257  -0.161  0.00  0.00    -0.050 A 
ATOM     19  C   UNL     1       0.572  -0.806  -1.278  0.00  0.00    +0.003 A 
ATOM     20  C   UNL     1      -0.012  -2.058  -1.210  0.00  0.00    +0.001 A 
ATOM     21  C   UNL     1       0.005  -2.768  -0.026  0.00  0.00    +0.013 A 
ATOM     22  C   UNL     1       0.615  -2.219   1.103  0.00  0.00    +0.037 A 
ATOM     23  C   UNL     1       1.208  -0.958   1.026  0.00  0.00    +0.016 A 
ENDBRANCH  13  22
ENDBRANCH   7  15
ENDBRANCH   1  10
BRANCH   2  24
ATOM     24  C   UNL     1      -1.687  -8.118   6.295  0.00  0.00    +0.238 C 
ATOM     25  O   UNL     1      -1.720  -9.190   5.730  0.00  0.00    -0.274 OA
ATOM     26  N   UNL     1      -2.400  -7.080   5.813  0.00  0.00    -0.314 N 
ATOM     27  H   UNL     1      -2.374  -6.223   6.265  0.00  0.00    +0.149 HD
BRANCH  26  28
ATOM     28  C   UNL     1      -3.214  -7.248   4.607  0.00  0.00    +0.104 C 
BRANCH  28  29
ATOM     29  C   UNL     1      -3.916  -5.929   4.277  0.00  0.00    +0.022 C 
BRANCH  29  30
ATOM     30  C   UNL     1      -4.766  -6.104   3.018  0.00  0.00    -0.016 C 
ATOM     31  C   UNL     1      -5.891  -7.102   3.297  0.00  0.00    +0.007 C 
ATOM     32  C   UNL     1      -5.368  -4.756   2.617  0.00  0.00    +0.007 C 
ENDBRANCH  29  30
ENDBRANCH  28  29
ENDBRANCH  26  28
ENDBRANCH   2  24
BRANCH   3  33
ATOM     33  C   UNL     1      -1.227 -10.206   8.809  0.00  0.00    +0.147 C 
BRANCH  33  34
ATOM     34  C   UNL     1      -1.895 -11.155   7.848  0.00  0.00    -0.030 A 
ATOM     35  C   UNL     1      -3.136 -10.845   7.322  0.00  0.00    +0.008 A 
ATOM     36  C   UNL     1      -3.750 -11.714   6.440  0.00  0.00    +0.038 A 
ATOM     37  C   UNL     1      -3.122 -12.896   6.083  0.00  0.00    +0.123 A 
ATOM     38  C   UNL     1      -1.880 -13.205   6.611  0.00  0.00    +0.038 A 
ATOM     39  C   UNL     1      -1.266 -12.332   7.489  0.00  0.00    +0.008 A 
ATOM     40  F   UNL     1      -3.721 -13.746   5.222  0.00  0.00    -0.205 F 
ENDBRANCH  33  34
ENDBRANCH   3  33
TORSDOF 9
