REMARK  Name = ZINC14542567
REMARK  14 active torsions:
REMARK  status: ('A' for Active; 'I' for Inactive)
REMARK    1  A    between atoms: C_1  and  C_2
REMARK    2  A    between atoms: C_2  and  N_3
REMARK    3  A    between atoms: N_3  and  C_4
REMARK    4  A    between atoms: C_4  and  C_5
REMARK    5  A    between atoms: C_6  and  C_8
REMARK    6  A    between atoms: C_8  and  O_9
REMARK    7  A    between atoms: O_9  and  C_10
REMARK    8  A    between atoms: N_17  and  C_19
REMARK    9  A    between atoms: C_19  and  C_20
REMARK   10  A    between atoms: C_23  and  O_26
REMARK   11  A    between atoms: O_26  and  C_27
REMARK   12  A    between atoms: C_28  and  C_30
REMARK   13  A    between atoms: C_33  and  O_35
REMARK   14  A    between atoms: O_35  and  C_36
REMARK                            x       y       z     vdW  Elec       q    Type
REMARK                         _______ _______ _______ _____ _____    ______ ____
ROOT
ATOM      1  C   UNL     1       6.252   2.813   0.935  0.00  0.00    +0.153 C 
ATOM      2  C   UNL     1       5.622   2.091  -0.251  0.00  0.00    +0.141 C 
ATOM      3  N   UNL     1       4.168   2.028  -0.128  0.00  0.00    -0.284 N 
ATOM      4  C   UNL     1       3.369   3.258  -0.120  0.00  0.00    +0.204 C 
ATOM      5  C   UNL     1       3.390   3.834   1.285  0.00  0.00    +0.233 C 
ATOM      6  O   UNL     1       2.381   3.844   1.958  0.00  0.00    -0.274 OA
ATOM      7  N   UNL     1       4.536   4.333   1.774  0.00  0.00    -0.293 N 
ATOM      8  C   UNL     1       5.771   4.265   0.986  0.00  0.00    +0.141 C 
ATOM      9  C   UNL     1       3.556   0.831  -0.027  0.00  0.00    +0.283 C 
ATOM     10  O   UNL     1       4.218  -0.190   0.010  0.00  0.00    -0.267 OA
ENDROOT
BRANCH   9  11
ATOM     11  C   UNL     1       2.098   0.760   0.038  0.00  0.00    +0.194 A 
ATOM     12  C   UNL     1       1.340  -0.391   0.005  0.00  0.00    +0.058 A 
ATOM     13  C   UNL     1       0.002   0.006   0.093  0.00  0.00    +0.091 A 
ATOM     14  C   UNL     1      -0.010   1.365   0.176  0.00  0.00    +0.287 A 
ATOM     15  O   UNL     1       1.254   1.811   0.142  0.00  0.00    -0.420 OA
BRANCH  14  16
ATOM     16  O   UNL     1      -1.116   2.139   0.271  0.00  0.00    -0.467 OA
ATOM     17  C   UNL     1      -0.915   3.551   0.348  0.00  0.00    +0.280 C 
ENDBRANCH  14  16
ENDBRANCH   9  11
BRANCH   1  18
ATOM     18  O   UNL     1       7.675   2.790   0.801  0.00  0.00    -0.364 OA
BRANCH  18  19
ATOM     19  C   UNL     1       8.297   1.656   1.408  0.00  0.00    +0.256 C 
BRANCH  19  21
ATOM     20  N   UNL     1      10.586   0.765   1.699  0.00  0.00    -0.300 N 
ATOM     21  C   UNL     1       9.789   1.734   1.208  0.00  0.00    +0.241 C 
ATOM     22  O   UNL     1      10.271   2.669   0.605  0.00  0.00    -0.273 OA
BRANCH  20  24
ATOM     23  C   UNL     1      12.669   1.600   2.673  0.00  0.00    +0.024 C 
ATOM     24  C   UNL     1      12.036   0.842   1.504  0.00  0.00    +0.104 C 
ENDBRANCH  20  24
BRANCH  20  25
ATOM     25  C   UNL     1      10.004  -0.364   2.428  0.00  0.00    +0.104 C 
ATOM     26  C   UNL     1       9.673  -1.489   1.445  0.00  0.00    +0.024 C 
ENDBRANCH  20  25
ENDBRANCH  19  21
ENDBRANCH  18  19
ENDBRANCH   1  18
BRANCH   7  27
ATOM     27  C   UNL     1       4.553   4.950   3.103  0.00  0.00    +0.143 C 
BRANCH  27  28
ATOM     28  C   UNL     1       4.258   6.422   2.977  0.00  0.00    -0.030 A 
ATOM     29  C   UNL     1       5.294   7.322   2.806  0.00  0.00    +0.009 A 
ATOM     30  C   UNL     1       5.025   8.672   2.685  0.00  0.00    +0.046 A 
ATOM     31  C   UNL     1       3.715   9.125   2.747  0.00  0.00    +0.120 A 
ATOM     32  C   UNL     1       2.678   8.221   2.925  0.00  0.00    +0.046 A 
ATOM     33  C   UNL     1       2.952   6.872   3.040  0.00  0.00    +0.009 A 
BRANCH  31  34
ATOM     34  O   UNL     1       3.449  10.453   2.635  0.00  0.00    -0.495 OA
ATOM     35  C   UNL     1       4.566  11.326   2.453  0.00  0.00    +0.277 C 
ENDBRANCH  31  34
ENDBRANCH  27  28
ENDBRANCH   7  27
TORSDOF 10
