REMARK  Name = ZINC40361297
REMARK  11 active torsions:
REMARK  status: ('A' for Active; 'I' for Inactive)
REMARK    1  A    between atoms: C_1  and  C_2
REMARK    2  A    between atoms: C_2  and  C_3
REMARK    3  A    between atoms: C_3  and  C_5
REMARK    4  A    between atoms: C_3  and  C_6
REMARK    5  A    between atoms: C_6  and  C_8
REMARK    6  A    between atoms: C_6  and  N_24
REMARK    7  A    between atoms: C_16  and  C_18
REMARK    8  A    between atoms: N_27  and  C_28
REMARK    9  A    between atoms: C_28  and  C_29
REMARK   10  A    between atoms: C_28  and  C_30
REMARK   11  A    between atoms: C_28  and  C_31
REMARK                            x       y       z     vdW  Elec       q    Type
REMARK                         _______ _______ _______ _____ _____    ______ ____
ROOT
ATOM      1  C   UNL     1       0.544   1.342   1.444  0.00  0.00    +0.236 C 
ATOM      2  O   UNL     1       1.182   2.047   2.197  0.00  0.00    -0.274 OA
ATOM      3  N   UNL     1      -0.289   1.899   0.543  0.00  0.00    -0.297 N 
ATOM      4  C   UNL     1      -1.154   1.058  -0.296  0.00  0.00    +0.127 C 
ATOM      5  C   UNL     1      -2.607   1.512  -0.111  0.00  0.00    +0.126 C 
ATOM      6  N   UNL     1      -2.668   2.971  -0.272  0.00  0.00    -0.298 N 
ATOM      7  C   UNL     1      -1.803   3.813   0.567  0.00  0.00    +0.126 C 
ATOM      8  C   UNL     1      -0.353   3.359   0.386  0.00  0.00    +0.127 C 
ATOM      9  C   UNL     1      -3.501   3.528  -1.172  0.00  0.00    +0.219 C 
ATOM     10  O   UNL     1      -4.284   2.833  -1.786  0.00  0.00    -0.275 OA
ENDROOT
BRANCH   9  11
ATOM     11  C   UNL     1      -3.461   5.015  -1.418  0.00  0.00    +0.075 C 
ATOM     12  C   UNL     1      -3.970   5.750  -0.176  0.00  0.00    +0.013 C 
ATOM     13  C   UNL     1      -3.929   7.260  -0.425  0.00  0.00    +0.001 C 
ATOM     14  C   UNL     1      -4.818   7.603  -1.622  0.00  0.00    +0.000 C 
ATOM     15  C   UNL     1      -4.310   6.867  -2.864  0.00  0.00    +0.001 C 
ATOM     16  C   UNL     1      -4.350   5.358  -2.614  0.00  0.00    +0.013 C 
ENDBRANCH   9  11
BRANCH   1  17
ATOM     17  C   UNL     1       0.684  -0.157   1.515  0.00  0.00    +0.163 C 
BRANCH  17  18
ATOM     18  N   UNL     1       1.327  -0.528   2.778  0.00  0.00    -0.288 N 
ATOM     19  C   UNL     1       1.121  -1.751   3.305  0.00  0.00    +0.301 C 
ATOM     20  O   UNL     1       0.401  -2.546   2.733  0.00  0.00    -0.253 OA
ATOM     21  N   UNL     1       1.712  -2.092   4.467  0.00  0.00    -0.295 N 
ATOM     22  H   UNL     1       1.902   0.107   3.234  0.00  0.00    +0.151 HD
ATOM     23  H   UNL     1       2.287  -1.458   4.924  0.00  0.00    +0.151 HD
BRANCH  21  24
ATOM     24  C   UNL     1       1.488  -3.421   5.040  0.00  0.00    +0.028 C 
ATOM     25  C   UNL     1       1.966  -4.489   4.054  0.00  0.00    +0.031 C 
ATOM     26  C   UNL     1       2.268  -3.550   6.350  0.00  0.00    +0.031 C 
ATOM     27  C   UNL     1      -0.005  -3.613   5.316  0.00  0.00    +0.031 C 
ENDBRANCH  21  24
ENDBRANCH  17  18
BRANCH  17  28
ATOM     28  C   UNL     1       1.540  -0.645   0.344  0.00  0.00    +0.015 C 
ATOM     29  C   UNL     1       2.967  -0.116   0.500  0.00  0.00    +0.010 C 
BRANCH  28  31
ATOM     30  C   UNL     1       0.157  -2.702   0.029  0.00  0.00    +0.004 C 
ATOM     31  C   UNL     1       1.561  -2.175   0.331  0.00  0.00    +0.002 C 
ENDBRANCH  28  31
ENDBRANCH  17  28
ENDBRANCH   1  17
TORSDOF 6
