REMARK  Name = ZINC16646902
REMARK  13 active torsions:
REMARK  status: ('A' for Active; 'I' for Inactive)
REMARK    1  A    between atoms: C_1  and  C_2
REMARK    2  A    between atoms: C_2  and  C_3
REMARK    3  A    between atoms: C_3  and  C_4
REMARK    4  A    between atoms: C_4  and  C_5
REMARK    5  A    between atoms: C_5  and  C_6
REMARK    6  A    between atoms: C_9  and  C_12
REMARK    7  A    between atoms: N_22  and  C_31
REMARK    8  A    between atoms: N_24  and  C_25
REMARK    9  A    between atoms: C_31  and  C_32
REMARK   10  A    between atoms: N_34  and  C_35
REMARK   11  A    between atoms: C_35  and  C_37
REMARK   12  A    between atoms: C_35  and  C_38
REMARK   13  A    between atoms: C_38  and  C_39
REMARK                            x       y       z     vdW  Elec       q    Type
REMARK                         _______ _______ _______ _____ _____    ______ ____
ROOT
ATOM      1  C   UNL     1      -0.220   8.331  -1.674  0.00  0.00    +0.247 C 
ATOM      2  O   UNL     1      -1.344   8.188  -1.234  0.00  0.00    -0.270 OA
ATOM      3  N   UNL     1       0.845   8.175  -0.863  0.00  0.00    -0.297 N 
ATOM      4  C   UNL     1       2.201   8.469  -1.345  0.00  0.00    +0.110 C 
ATOM      5  C   UNL     1       3.086   7.241  -1.107  0.00  0.00    +0.054 C 
ATOM      6  C   UNL     1       3.003   6.833   0.361  0.00  0.00    +0.115 C 
ATOM      7  C   UNL     1       1.567   6.486   0.743  0.00  0.00    +0.054 C 
ATOM      8  C   UNL     1       0.671   7.709   0.520  0.00  0.00    +0.110 C 
ATOM      9  C   UNL     1       3.531   7.936   1.244  0.00  0.00    +0.241 C 
ATOM     10  O   UNL     1       3.273   9.117   1.137  0.00  0.00    -0.273 OA
ATOM     11  N   UNL     1       4.340   7.386   2.174  0.00  0.00    -0.275 N 
ATOM     12  C   UNL     1       4.388   5.931   1.986  0.00  0.00    +0.217 C 
ATOM     13  N   UNL     1       3.888   5.676   0.615  0.00  0.00    -0.300 N 
ENDROOT
BRANCH   1  17
ATOM     14  C   UNL     1       0.351   9.318  -5.765  0.00  0.00    -0.047 A 
ATOM     15  C   UNL     1      -0.752   9.804  -5.087  0.00  0.00    +0.004 A 
ATOM     16  C   UNL     1      -0.944   9.487  -3.758  0.00  0.00    +0.013 A 
ATOM     17  C   UNL     1      -0.021   8.674  -3.098  0.00  0.00    +0.037 A 
ATOM     18  C   UNL     1       1.093   8.192  -3.786  0.00  0.00    +0.013 A 
ATOM     19  C   UNL     1       1.270   8.512  -5.117  0.00  0.00    +0.004 A 
BRANCH  14  20
ATOM     20  C   UNL     1       0.554   9.668  -7.217  0.00  0.00    +0.035 C 
BRANCH  20  21
ATOM     21  C   UNL     1       1.375  10.955  -7.322  0.00  0.00    +0.005 C 
BRANCH  21  22
ATOM     22  C   UNL     1       1.580  11.310  -8.796  0.00  0.00    +0.000 C 
BRANCH  22  24
ATOM     23  C   UNL     1       2.606  12.953 -10.374  0.00  0.00    +0.004 C 
ATOM     24  C   UNL     1       2.401  12.597  -8.901  0.00  0.00    -0.003 C 
ENDBRANCH  22  24
ENDBRANCH  21  22
ENDBRANCH  20  21
ENDBRANCH  14  20
ENDBRANCH   1  17
BRANCH  13  25
ATOM     25  C   UNL     1       3.173   4.477   0.558  0.00  0.00    +0.032 A 
ATOM     26  C   UNL     1       2.472   4.138  -0.592  0.00  0.00    +0.023 A 
ATOM     27  C   UNL     1       1.766   2.953  -0.645  0.00  0.00    +0.002 A 
ATOM     28  C   UNL     1       1.751   2.106   0.448  0.00  0.00    +0.000 A 
ATOM     29  C   UNL     1       2.452   2.437   1.593  0.00  0.00    +0.002 A 
ATOM     30  C   UNL     1       3.161   3.621   1.652  0.00  0.00    +0.023 A 
ENDBRANCH  13  25
BRANCH  11  31
ATOM     31  C   UNL     1       5.061   8.128   3.212  0.00  0.00    +0.205 C 
BRANCH  31  32
ATOM     32  C   UNL     1       4.199   8.233   4.444  0.00  0.00    +0.231 C 
ATOM     33  O   UNL     1       3.092   7.738   4.454  0.00  0.00    -0.274 OA
ATOM     34  N   UNL     1       4.658   8.879   5.535  0.00  0.00    -0.311 N 
ATOM     35  H   UNL     1       5.543   9.275   5.527  0.00  0.00    +0.149 HD
BRANCH  34  36
ATOM     36  C   UNL     1       3.820   8.981   6.732  0.00  0.00    +0.070 C 
ATOM     37  C   UNL     1       3.993   7.722   7.584  0.00  0.00    +0.028 C 
BRANCH  36  38
ATOM     38  C   UNL     1       4.239  10.208   7.544  0.00  0.00    +0.018 C 
ATOM     39  C   UNL     1       3.950  11.476   6.738  0.00  0.00    +0.005 C 
ENDBRANCH  36  38
ENDBRANCH  34  36
ENDBRANCH  31  32
ENDBRANCH  11  31
TORSDOF 10
