REMARK  Name = ZINC08413536
REMARK  6 active torsions:
REMARK  status: ('A' for Active; 'I' for Inactive)
REMARK    1  A    between atoms: C_1  and  C_2
REMARK    2  A    between atoms: C_3  and  C_25
REMARK    3  A    between atoms: C_4  and  C_16
REMARK    4  A    between atoms: C_10  and  C_14
REMARK    5  A    between atoms: C_10  and  C_15
REMARK    6  A    between atoms: C_20  and  N_22
REMARK                            x       y       z     vdW  Elec       q    Type
REMARK                         _______ _______ _______ _____ _____    ______ ____
ROOT
ATOM      1  C   UNL     1      -2.851   6.832  -2.294  0.00  0.00    +0.061 C 
ATOM      2  C   UNL     1      -2.083   6.320  -1.103  0.00  0.00    +0.014 C 
ATOM      3  C   UNL     1      -0.832   5.858  -1.264  0.00  0.00    +0.043 C 
ATOM      4  C   UNL     1      -0.040   5.334  -0.102  0.00  0.00    +0.090 C 
ATOM      5  C   UNL     1      -0.632   5.793   1.206  0.00  0.00    +0.024 C 
ATOM      6  C   UNL     1      -1.898   6.255   1.267  0.00  0.00    +0.016 C 
ATOM      7  N   UNL     1      -2.664   6.328   0.135  0.00  0.00    -0.321 N 
ATOM      8  C   UNL     1      -2.502   6.697   2.576  0.00  0.00    +0.058 C 
ATOM      9  C   UNL     1      -1.407   7.262   3.483  0.00  0.00    -0.023 C 
ATOM     10  C   UNL     1      -0.346   6.177   3.697  0.00  0.00    +0.086 C 
ATOM     11  C   UNL     1       0.173   5.728   2.359  0.00  0.00    +0.162 C 
ATOM     12  O   UNL     1       1.307   5.300   2.271  0.00  0.00    -0.292 OA
ATOM     13  C   UNL     1      -0.767   8.482   2.817  0.00  0.00    +0.011 C 
ATOM     14  C   UNL     1      -2.011   7.668   4.828  0.00  0.00    +0.011 C 
ATOM     15  H   UNL     1      -3.759   6.395   0.228  0.00  0.00    +0.152 HD
ENDROOT
BRANCH   3  16
ATOM     16  C   UNL     1      -0.249   5.867  -2.555  0.00  0.00    +0.248 C 
ATOM     17  O   UNL     1      -0.916   6.188  -3.522  0.00  0.00    -0.270 OA
ATOM     18  N   UNL     1       1.043   5.518  -2.713  0.00  0.00    -0.267 N 
ATOM     19  C   UNL     1       1.646   5.628  -3.964  0.00  0.00    +0.125 A 
ATOM     20  C   UNL     1       3.006   5.370  -4.099  0.00  0.00    +0.045 A 
ATOM     21  C   UNL     1       3.592   5.482  -5.347  0.00  0.00    +0.020 A 
ATOM     22  C   UNL     1       2.795   5.851  -6.423  0.00  0.00    +0.036 A 
ATOM     23  C   UNL     1       1.450   6.093  -6.216  0.00  0.00    +0.128 A 
ATOM     24  N   UNL     1       0.918   5.972  -5.015  0.00  0.00    -0.239 NA
ATOM     25 BR   UNL     1       3.541   6.021  -8.152  0.00  0.00    -0.049 Br
ATOM     26  H   UNL     1       1.622   5.147  -1.855  0.00  0.00    +0.157 HD
ENDBRANCH   3  16
BRANCH   4  27
ATOM     27  C   UNL     1      -0.038   3.827  -0.144  0.00  0.00    -0.033 A 
ATOM     28  C   UNL     1      -1.231   3.133  -0.065  0.00  0.00    +0.005 A 
ATOM     29  C   UNL     1      -1.231   1.751  -0.108  0.00  0.00    +0.003 A 
ATOM     30  C   UNL     1      -0.036   1.064  -0.220  0.00  0.00    +0.033 A 
ATOM     31  C   UNL     1       1.156   1.758  -0.299  0.00  0.00    +0.126 A 
ATOM     32  C   UNL     1       1.155   3.140  -0.261  0.00  0.00    +0.037 A 
BRANCH  31  33
ATOM     33  N   UNL     1       2.434   1.022  -0.425  0.00  0.00    +0.056 N 
ATOM     34  O   UNL     1       2.435  -0.195  -0.459  0.00  0.00    -0.126 OA
ATOM     35  O   UNL     1       3.485   1.634  -0.495  0.00  0.00    -0.126 OA
ENDBRANCH  31  33
ENDBRANCH   4  27
TORSDOF 3
