REMARK  Name = ZINC12980820
REMARK  7 active torsions:
REMARK  status: ('A' for Active; 'I' for Inactive)
REMARK    1  A    between atoms: C_1  and  C_2
REMARK    2  A    between atoms: C_15  and  C_17
REMARK    3  A    between atoms: C_17  and  C_19
REMARK    4  A    between atoms: C_17  and  N_63
REMARK    5  A    between atoms: C_22  and  C_25
REMARK    6  A    between atoms: N_27  and  C_28
REMARK    7  A    between atoms: C_33  and  O_34
REMARK                            x       y       z     vdW  Elec       q    Type
REMARK                         _______ _______ _______ _____ _____    ______ ____
ROOT
ATOM      1  C   UNL     1       1.473  -1.862  -0.460  0.00  0.00    -0.077 C 
ATOM      2  C   UNL     1       2.941  -2.269  -0.605  0.00  0.00    -0.006 C 
ATOM      3  C   UNL     1       3.640  -2.131   0.750  0.00  0.00    +0.072 C 
ATOM      4  C   UNL     1       3.501  -0.687   1.242  0.00  0.00    -0.006 C 
ATOM      5  C   UNL     1       2.016  -0.326   1.334  0.00  0.00    -0.077 C 
ATOM      6  N   UNL     1       1.407  -0.456  -0.007  0.00  0.00    +0.386 N 
ATOM      7  H   UNL     1       1.929   0.131  -0.668  0.00  0.00    -0.081 HD
ENDROOT
BRANCH   3   8
ATOM      8  C   UNL     1       5.100  -2.473   0.601  0.00  0.00    +0.220 C 
ATOM      9  O   UNL     1       5.947  -1.644   0.862  0.00  0.00    -0.275 OA
ATOM     10  N   UNL     1       5.465  -3.699   0.177  0.00  0.00    -0.282 N 
ATOM     11  H   UNL     1       4.790  -4.336  -0.102  0.00  0.00    +0.155 HD
BRANCH  10  12
ATOM     12  C   UNL     1       6.821  -4.053   0.140  0.00  0.00    +0.075 A 
ATOM     13  C   UNL     1       7.730  -3.409   0.966  0.00  0.00    +0.027 A 
ATOM     14  C   UNL     1       9.066  -3.760   0.928  0.00  0.00    +0.002 A 
ATOM     15  C   UNL     1       9.500  -4.752   0.067  0.00  0.00    +0.004 A 
ATOM     16  C   UNL     1       8.600  -5.397  -0.759  0.00  0.00    +0.047 A 
ATOM     17  C   UNL     1       7.257  -5.055  -0.723  0.00  0.00    +0.138 A 
BRANCH  17  18
ATOM     18  O   UNL     1       6.369  -5.693  -1.532  0.00  0.00    -0.505 OA
ATOM     19  H   UNL     1       6.252  -5.274  -2.395  0.00  0.00    +0.292 HD
ENDBRANCH  17  18
ENDBRANCH  10  12
ENDBRANCH   3   8
BRANCH   6  20
ATOM     20  C   UNL     1       0.001  -0.004   0.031  0.00  0.00    -0.004 C 
ATOM     21  C   UNL     1      -0.717  -0.586   1.250  0.00  0.00    -0.005 C 
BRANCH  20  35
ATOM     22  C   UNL     1       0.927   9.941   0.335  0.00  0.00    +0.008 C 
ATOM     23  C   UNL     1       0.579   8.487   0.009  0.00  0.00    -0.009 C 
ATOM     24  C   UNL     1      -0.533   8.004   0.944  0.00  0.00    +0.008 C 
ATOM     25  C   UNL     1      -1.061   6.650   0.468  0.00  0.00    +0.037 C 
ATOM     26  C   UNL     1       0.117   5.695   0.297  0.00  0.00    -0.023 A 
ATOM     27  C   UNL     1       1.377   6.167   0.189  0.00  0.00    -0.004 A 
ATOM     28  S   UNL     1       2.394   4.726   0.012  0.00  0.00    -0.073 S 
ATOM     29  C   UNL     1       1.120   3.492   0.085  0.00  0.00    +0.116 A 
ATOM     30  C   UNL     1      -0.054   4.244   0.244  0.00  0.00    +0.075 A 
ATOM     31  C   UNL     1      -1.269   3.487   0.333  0.00  0.00    +0.260 A 
ATOM     32  O   UNL     1      -2.341   4.050   0.472  0.00  0.00    -0.267 OA
ATOM     33  N   UNL     1      -1.205   2.145   0.256  0.00  0.00    -0.312 N 
ATOM     34  H   UNL     1      -2.024   1.627   0.312  0.00  0.00    +0.170 HD
ATOM     35  C   UNL     1      -0.019   1.501   0.106  0.00  0.00    +0.097 A 
ATOM     36  N   UNL     1       1.104   2.163   0.022  0.00  0.00    -0.228 NA
ATOM     37  C   UNL     1       1.815   7.600   0.213  0.00  0.00    +0.046 C 
ENDBRANCH  20  35
ENDBRANCH   6  20
TORSDOF 5
