REMARK  Name = ZINC36984729
REMARK  4 active torsions:
REMARK  status: ('A' for Active; 'I' for Inactive)
REMARK    1  A    between atoms: C_1  and  C_2
REMARK    2  A    between atoms: C_5  and  N_20
REMARK    3  A    between atoms: C_6  and  O_8
REMARK    4  A    between atoms: O_8  and  C_9
REMARK                            x       y       z     vdW  Elec       q    Type
REMARK                         _______ _______ _______ _____ _____    ______ ____
ROOT
ATOM      1  O   UNL     1       0.050  -2.771   2.366  0.00  0.00    -0.434 OA
ENDROOT
BRANCH   1   2
ATOM      2  C   UNL     1       0.151  -2.063   3.514  0.00  0.00    +0.249 C 
ATOM      3  N   UNL     1       0.127  -0.770   3.487  0.00  0.00    -0.090 NA
ATOM      4  S   UNL     1       0.275  -0.278   5.080  0.00  0.00    +0.103 S 
ATOM      5  O   UNL     1       1.536   0.362   5.221  0.00  0.00    -0.146 OA
ATOM      6  O   UNL     1      -0.955   0.323   5.463  0.00  0.00    -0.146 OA
ATOM      7  C   UNL     1       0.378  -1.857   5.877  0.00  0.00    +0.125 A 
ATOM      8  C   UNL     1       0.281  -2.754   4.804  0.00  0.00    +0.065 A 
ATOM      9  C   UNL     1       0.326  -4.125   5.103  0.00  0.00    +0.015 A 
ATOM     10  C   UNL     1       0.454  -4.548   6.407  0.00  0.00    +0.001 A 
ATOM     11  C   UNL     1       0.542  -3.638   7.446  0.00  0.00    +0.002 A 
ATOM     12  C   UNL     1       0.509  -2.278   7.168  0.00  0.00    +0.030 A 
ENDBRANCH   1   2
BRANCH   1  18
ATOM     13  C   UNL     1      -2.695  -0.784  -1.146  0.00  0.00    +0.044 C 
ATOM     14  C   UNL     1      -1.347  -1.095  -0.547  0.00  0.00    -0.047 A 
ATOM     15  C   UNL     1      -0.195  -0.681  -1.189  0.00  0.00    +0.005 A 
ATOM     16  C   UNL     1       1.044  -0.964  -0.644  0.00  0.00    +0.027 A 
ATOM     17  C   UNL     1       1.132  -1.666   0.550  0.00  0.00    +0.068 A 
ATOM     18  C   UNL     1      -0.030  -2.083   1.196  0.00  0.00    +0.151 A 
ATOM     19  C   UNL     1      -1.267  -1.790   0.646  0.00  0.00    +0.051 A 
BRANCH  17  20
ATOM     20  N   UNL     1       2.384  -1.954   1.103  0.00  0.00    -0.355 N 
ATOM     21  H   UNL     1       3.192  -1.663   0.651  0.00  0.00    +0.142 HD
ATOM     22  H   UNL     1       2.445  -2.444   1.937  0.00  0.00    +0.142 HD
ENDBRANCH  17  20
ENDBRANCH   1  18
TORSDOF 3
