REMARK  Name = ZINC45440222
REMARK  8 active torsions:
REMARK  status: ('A' for Active; 'I' for Inactive)
REMARK    1  A    between atoms: C_1  and  C_2
REMARK    2  A    between atoms: C_5  and  C_29
REMARK    3  A    between atoms: C_6  and  O_8
REMARK    4  A    between atoms: O_8  and  C_9
REMARK    5  A    between atoms: C_9  and  C_10
REMARK    6  A    between atoms: N_12  and  N_13
REMARK    7  A    between atoms: N_16  and  C_17
REMARK    8  A    between atoms: C_22  and  C_25
REMARK                            x       y       z     vdW  Elec       q    Type
REMARK                         _______ _______ _______ _____ _____    ______ ____
ROOT
ATOM      1  N   UNL     1       0.078  -3.286   7.105  0.00  0.00    -0.218 N 
ATOM      2  C   UNL     1       0.077  -2.780   8.354  0.00  0.00    +0.316 C 
ATOM      3  O   UNL     1       0.092  -3.527   9.313  0.00  0.00    -0.251 OA
ATOM      4  N   UNL     1       0.060  -1.445   8.540  0.00  0.00    -0.295 N 
ATOM      5  H   UNL     1       0.090  -4.247   6.971  0.00  0.00    +0.174 HD
ATOM      6  H   UNL     1       0.049  -0.849   7.775  0.00  0.00    +0.151 HD
ENDROOT
BRANCH   4   7
ATOM      7  C   UNL     1       0.059  -0.894   9.898  0.00  0.00    +0.075 C 
ATOM      8  C   UNL     1      -1.376  -0.838  10.424  0.00  0.00    +0.022 C 
ATOM      9  C   UNL     1      -1.377  -0.263  11.842  0.00  0.00    +0.002 C 
ATOM     10  C   UNL     1      -0.787   1.148  11.820  0.00  0.00    +0.012 C 
ATOM     11  C   UNL     1       0.649   1.092  11.294  0.00  0.00    +0.095 C 
ATOM     12  C   UNL     1       0.650   0.517   9.876  0.00  0.00    +0.034 C 
BRANCH  11  13
ATOM     13  C   UNL     1       1.240   2.503  11.273  0.00  0.00    +0.393 C 
ATOM     14  F   UNL     1       1.239   3.029  12.569  0.00  0.00    -0.170 F 
ATOM     15  F   UNL     1       2.552   2.452  10.791  0.00  0.00    -0.170 F 
ATOM     16  F   UNL     1       0.468   3.319  10.438  0.00  0.00    -0.170 F 
ENDBRANCH  11  13
ENDBRANCH   4   7
BRANCH   1  19
ATOM     17  C   UNL     1       0.063  -2.932   4.751  0.00  0.00    +0.267 C 
ATOM     18  O   UNL     1       0.078  -4.133   4.584  0.00  0.00    -0.271 OA
ATOM     19  N   UNL     1       0.062  -2.425   6.000  0.00  0.00    -0.230 N 
ATOM     20  H   UNL     1       0.050  -1.465   6.134  0.00  0.00    +0.173 HD
BRANCH  17  21
ATOM     21  C   UNL     1       0.045  -2.006   3.562  0.00  0.00    +0.326 C 
BRANCH  21  22
ATOM     22  O   UNL     1       0.050  -2.776   2.358  0.00  0.00    -0.482 OA
BRANCH  22  28
ATOM     23  C   UNL     1      -0.018   1.503   0.010  0.00  0.00    +0.044 C 
ATOM     24  C   UNL     1       0.002  -0.004   0.002  0.00  0.00    -0.047 A 
ATOM     25  C   UNL     1       0.006  -0.688  -1.200  0.00  0.00    +0.004 A 
ATOM     26  C   UNL     1       0.024  -2.071  -1.211  0.00  0.00    +0.007 A 
ATOM     27  C   UNL     1       0.039  -2.772  -0.020  0.00  0.00    -0.009 A 
ATOM     28  C   UNL     1       0.035  -2.088   1.186  0.00  0.00    +0.124 A 
ATOM     29  C   UNL     1       0.023  -0.700   1.195  0.00  0.00    +0.049 A 
ATOM     30  C   UNL     1       0.059  -4.279  -0.033  0.00  0.00    +0.047 C 
ENDBRANCH  22  28
ENDBRANCH  21  22
ENDBRANCH  17  21
ENDBRANCH   1  19
TORSDOF 6
