REMARK  Name = ZINC13612613
REMARK  11 active torsions:
REMARK  status: ('A' for Active; 'I' for Inactive)
REMARK    1  A    between atoms: C_1  and  N_2
REMARK    2  A    between atoms: N_2  and  C_3
REMARK    3  A    between atoms: N_2  and  C_4
REMARK    4  A    between atoms: C_7  and  C_10
REMARK    5  A    between atoms: C_11  and  C_23
REMARK    6  A    between atoms: C_12  and  N_22
REMARK    7  A    between atoms: C_14  and  S_18
REMARK    8  A    between atoms: C_15  and  C_16
REMARK    9  A    between atoms: S_18  and  C_19
REMARK   10  A    between atoms: C_19  and  C_20
REMARK   11  A    between atoms: C_20  and  O_21
REMARK                            x       y       z     vdW  Elec       q    Type
REMARK                         _______ _______ _______ _____ _____    ______ ____
ROOT
ATOM      1  C   UNL     1       2.478   1.072  -0.015  0.00  0.00    +0.023 A 
ATOM      2  C   UNL     1       2.876   0.272   1.075  0.00  0.00    +0.100 A 
ATOM      3  C   UNL     1       4.112  -0.398   1.013  0.00  0.00    +0.136 A 
ATOM      4  N   UNL     1       4.900  -0.277  -0.043  0.00  0.00    -0.224 NA
ATOM      5  C   UNL     1       4.569   0.468  -1.088  0.00  0.00    +0.117 A 
ATOM      6  C   UNL     1       3.350   1.171  -1.118  0.00  0.00    +0.093 A 
ENDROOT
BRANCH   1  10
ATOM      7  C   UNL     1      -1.234   3.140   0.031  0.00  0.00    +0.029 A 
ATOM      8  C   UNL     1      -1.214   1.749   0.017  0.00  0.00    +0.024 A 
ATOM      9  C   UNL     1      -0.013   1.076   0.008  0.00  0.00    +0.010 A 
ATOM     10  C   UNL     1       1.187   1.791   0.000  0.00  0.00    -0.015 A 
ATOM     11  C   UNL     1       1.164   3.188   0.008  0.00  0.00    +0.010 A 
ATOM     12  C   UNL     1      -0.040   3.855   0.023  0.00  0.00    +0.024 A 
BRANCH   7  14
ATOM     13  C   UNL     1      -2.473   5.283   0.055  0.00  0.00    +0.129 C 
ATOM     14  N   UNL     1      -2.450   3.818   0.047  0.00  0.00    -0.336 N 
ATOM     15  C   UNL     1      -3.708   3.066   0.056  0.00  0.00    +0.129 C 
ENDBRANCH   7  14
ENDBRANCH   1  10
BRANCH   3  16
ATOM     16  N   UNL     1       4.511  -1.188   2.072  0.00  0.00    -0.342 N 
ATOM     17  H   UNL     1       5.476  -1.716   2.032  0.00  0.00    +0.144 HD
ATOM     18  H   UNL     1       3.865  -1.291   2.956  0.00  0.00    +0.144 HD
ENDBRANCH   3  16
BRANCH   6  19
ATOM     19  C   UNL     1       3.001   1.973  -2.252  0.00  0.00    +0.102 C 
ATOM     20  N   UNL     1       2.724   2.609  -3.151  0.00  0.00    -0.191 NA
ENDBRANCH   6  19
BRANCH   2  21
ATOM     21  C   UNL     1       2.034   0.138   2.225  0.00  0.00    +0.103 C 
ATOM     22  N   UNL     1       1.365   0.033   3.138  0.00  0.00    -0.191 NA
ENDBRANCH   2  21
BRANCH   5  23
ATOM     23  S   UNL     1       5.671   0.580  -2.458  0.00  0.00    -0.102 S 
BRANCH  23  24
ATOM     24  C   UNL     1       7.011  -0.488  -1.873  0.00  0.00    +0.103 C 
BRANCH  24  25
ATOM     25  C   UNL     1       8.116  -0.545  -2.929  0.00  0.00    +0.167 C 
BRANCH  25  26
ATOM     26  O   UNL     1       9.173  -1.388  -2.467  0.00  0.00    -0.394 OA
ATOM     27  H   UNL     1      10.060  -1.552  -3.096  0.00  0.00    +0.209 HD
ENDBRANCH  25  26
ENDBRANCH  24  25
ENDBRANCH  23  24
ENDBRANCH   5  23
TORSDOF 9
