REMARK  Name = ZINC61762009
REMARK  4 active torsions:
REMARK  status: ('A' for Active; 'I' for Inactive)
REMARK    1  A    between atoms: C_1  and  C_2
REMARK    2  A    between atoms: C_2  and  C_3
REMARK    3  A    between atoms: C_2  and  N_4
REMARK    4  A    between atoms: N_11  and  C_12
REMARK                            x       y       z     vdW  Elec       q    Type
REMARK                         _______ _______ _______ _____ _____    ______ ____
ROOT
ATOM      1  N   UNL     1      -1.372  -0.511   0.012  0.00  0.00    -0.308 N 
ATOM      2  C   UNL     1      -2.216  -0.200   1.037  0.00  0.00    +0.109 A 
ATOM      3  C   UNL     1      -3.484  -0.662   1.056  0.00  0.00    +0.131 A 
ATOM      4  N   UNL     1      -3.962  -1.436   0.082  0.00  0.00    -0.234 NA
ATOM      5  C   UNL     1      -3.206  -1.777  -0.939  0.00  0.00    +0.185 A 
ATOM      6  C   UNL     1      -1.823  -1.290  -0.997  0.00  0.00    +0.291 A 
ATOM      7  O   UNL     1      -1.096  -1.583  -1.931  0.00  0.00    -0.264 OA
ATOM      8  N   UNL     1      -3.710  -2.584  -1.950  0.00  0.00    -0.322 N 
ATOM      9  H   UNL     1      -3.147  -2.832  -2.700  0.00  0.00    +0.148 HD
ENDROOT
BRANCH   8  10
ATOM     10  C   UNL     1      -5.094  -3.061  -1.885  0.00  0.00    +0.072 C 
ATOM     11  C   UNL     1      -5.160  -4.384  -1.094  0.00  0.00    +0.022 C 
ATOM     12  C   UNL     1      -6.237  -5.215  -1.834  0.00  0.00    +0.002 C 
ATOM     13  C   UNL     1      -5.976  -4.867  -3.321  0.00  0.00    +0.002 C 
ATOM     14  C   UNL     1      -5.613  -3.368  -3.301  0.00  0.00    +0.022 C 
ENDBRANCH   8  10
BRANCH   1  16
ATOM     15  C   UNL     1      -0.019   1.526   0.010  0.00  0.00    +0.030 C 
ATOM     16  C   UNL     1       0.002  -0.004   0.002  0.00  0.00    +0.084 C 
ATOM     17  C   UNL     1       0.742  -0.511   1.242  0.00  0.00    +0.030 C 
ENDBRANCH   1  16
TORSDOF 2
