REMARK  Name = ZINC20720730
REMARK  6 active torsions:
REMARK  status: ('A' for Active; 'I' for Inactive)
REMARK    1  A    between atoms: C_1  and  C_2
REMARK    2  A    between atoms: C_2  and  C_3
REMARK    3  A    between atoms: C_3  and  C_5
REMARK    4  A    between atoms: C_3  and  O_6
REMARK    5  A    between atoms: O_6  and  C_7
REMARK    6  A    between atoms: C_20  and  C_23
REMARK                            x       y       z     vdW  Elec       q    Type
REMARK                         _______ _______ _______ _____ _____    ______ ____
ROOT
ATOM      1  C   UNL     1       2.248  -0.322   0.218  0.00  0.00    +0.121 A 
ATOM      2  C   UNL     1       3.269   0.615   0.283  0.00  0.00    +0.047 A 
ATOM      3  C   UNL     1       2.962   1.961   0.283  0.00  0.00    +0.027 A 
ATOM      4  C   UNL     1       1.637   2.373   0.220  0.00  0.00    +0.032 A 
ATOM      5  C   UNL     1       0.612   1.442   0.153  0.00  0.00    -0.016 A 
ATOM      6  C   UNL     1       0.928   0.090   0.154  0.00  0.00    +0.051 A 
ATOM      7  C   UNL     1      -0.828   1.841   0.074  0.00  0.00    +0.049 C 
ATOM      8  C   UNL     1      -1.533   1.614   1.394  0.00  0.00    -0.023 C 
ATOM      9  C   UNL     1      -2.413   2.562   1.607  0.00  0.00    -0.030 C 
ATOM     10  C   UNL     1      -2.419   3.549   0.456  0.00  0.00    +0.033 C 
ATOM     11  C   UNL     1      -1.023   3.343  -0.203  0.00  0.00    +0.029 C 
ATOM     12  C   UNL     1      -0.012   4.162   0.604  0.00  0.00    +0.107 C 
ATOM     13  N   UNL     1       1.343   3.744   0.230  0.00  0.00    -0.336 N 
ATOM     14  H   UNL     1       2.098   4.498  -0.034  0.00  0.00    +0.147 HD
ENDROOT
BRANCH  12  15
ATOM     15  C   UNL     1      -0.226   3.922   2.077  0.00  0.00    -0.002 A 
ATOM     16  C   UNL     1       0.379   2.990   2.830  0.00  0.00    +0.089 A 
ATOM     17  N   UNL     1      -0.066   3.072   4.121  0.00  0.00    -0.360 N 
ATOM     18  H   UNL     1       0.323   2.381   4.883  0.00  0.00    +0.165 HD
ATOM     19  C   UNL     1      -0.991   4.087   4.234  0.00  0.00    +0.047 A 
ATOM     20  C   UNL     1      -1.127   4.667   2.959  0.00  0.00    +0.005 A 
ATOM     21  C   UNL     1      -2.005   5.736   2.771  0.00  0.00    +0.010 A 
ATOM     22  C   UNL     1      -2.725   6.216   3.828  0.00  0.00    +0.001 A 
ATOM     23  C   UNL     1      -2.592   5.649   5.088  0.00  0.00    +0.002 A 
ATOM     24  C   UNL     1      -1.738   4.588   5.294  0.00  0.00    +0.026 A 
ENDBRANCH  12  15
BRANCH   1  25
ATOM     25  O   UNL     1       2.544  -1.649   0.219  0.00  0.00    -0.489 OA
BRANCH  25  26
ATOM     26  C   UNL     1       3.926  -2.005   0.149  0.00  0.00    +0.170 C 
ATOM     27  C   UNL     1       4.477  -2.193   1.564  0.00  0.00    +0.052 C 
BRANCH  26  29
ATOM     28  C   UNL     1       3.643  -3.089  -2.085  0.00  0.00    +0.007 C 
ATOM     29  C   UNL     1       4.078  -3.311  -0.635  0.00  0.00    +0.041 C 
ENDBRANCH  26  29
ENDBRANCH  25  26
ENDBRANCH   1  25
TORSDOF 4
