REMARK  Name = ZINC02194348
REMARK  3 active torsions:
REMARK  status: ('A' for Active; 'I' for Inactive)
REMARK    1  A    between atoms: C_1  and  C_2
REMARK    2  A    between atoms: C_5  and  C_8
REMARK    3  A    between atoms: C_11  and  C_23
REMARK                            x       y       z     vdW  Elec       q    Type
REMARK                         _______ _______ _______ _____ _____    ______ ____
ROOT
ATOM      1  C   UNL     1       0.059  -4.275  -0.021  0.00  0.00    +0.122 C 
ATOM      2  C   UNL     1       1.318  -4.776   0.696  0.00  0.00    +0.057 C 
ATOM      3  C   UNL     1       1.217  -6.289   0.922  0.00  0.00    +0.106 C 
ATOM      4  N   UNL     1       0.072  -6.554   1.813  0.00  0.00    -0.309 N 
ATOM      5  C   UNL     1      -1.096  -5.858   1.541  0.00  0.00    +0.175 A 
ATOM      6  N   UNL     1      -1.124  -4.785   0.677  0.00  0.00    -0.306 N 
ATOM      7  C   UNL     1      -2.415  -4.337   0.628  0.00  0.00    +0.069 A 
ATOM      8  C   UNL     1      -3.029  -3.302  -0.065  0.00  0.00    +0.028 A 
ATOM      9  C   UNL     1      -4.390  -3.133   0.129  0.00  0.00    +0.002 A 
ATOM     10  C   UNL     1      -5.118  -3.951   0.975  0.00  0.00    +0.002 A 
ATOM     11  C   UNL     1      -4.530  -4.989   1.676  0.00  0.00    +0.028 A 
ATOM     12  C   UNL     1      -3.156  -5.179   1.495  0.00  0.00    +0.065 A 
ATOM     13  N   UNL     1      -2.292  -6.078   2.019  0.00  0.00    -0.327 N 
ATOM     14  H   UNL     1       0.132  -7.183   2.549  0.00  0.00    +0.149 HD
ATOM     15  H   UNL     1      -2.525  -6.779   2.648  0.00  0.00    +0.169 HD
ENDROOT
BRANCH   1  20
ATOM     16  C   UNL     1      -0.018   1.503   0.010  0.00  0.00    +0.044 C 
ATOM     17  C   UNL     1       0.002  -0.004   0.002  0.00  0.00    -0.050 A 
ATOM     18  C   UNL     1       0.006  -0.689  -1.199  0.00  0.00    +0.004 A 
ATOM     19  C   UNL     1       0.025  -2.071  -1.206  0.00  0.00    +0.006 A 
ATOM     20  C   UNL     1       0.040  -2.768  -0.013  0.00  0.00    -0.025 A 
ATOM     21  C   UNL     1       0.037  -2.084   1.188  0.00  0.00    +0.006 A 
ATOM     22  C   UNL     1       0.023  -0.702   1.195  0.00  0.00    +0.004 A 
ENDBRANCH   1  20
BRANCH   3  23
ATOM     23  C   UNL     1       2.486  -6.791   1.561  0.00  0.00    -0.027 A 
ATOM     24  C   UNL     1       2.681  -6.642   2.921  0.00  0.00    +0.006 A 
ATOM     25  C   UNL     1       3.845  -7.103   3.507  0.00  0.00    +0.015 A 
ATOM     26  C   UNL     1       4.815  -7.713   2.732  0.00  0.00    +0.018 A 
ATOM     27  C   UNL     1       4.619  -7.862   1.371  0.00  0.00    +0.015 A 
ATOM     28  C   UNL     1       3.453  -7.405   0.787  0.00  0.00    +0.006 A 
ATOM     29 BR   UNL     1       6.408  -8.343   3.533  0.00  0.00    -0.050 Br
ENDBRANCH   3  23
TORSDOF 2
