REMARK  Name = ZINC09446164
REMARK  9 active torsions:
REMARK  status: ('A' for Active; 'I' for Inactive)
REMARK    1  A    between atoms: C_1  and  C_2
REMARK    2  A    between atoms: C_2  and  C_4
REMARK    3  A    between atoms: C_2  and  N_9
REMARK    4  A    between atoms: C_10  and  C_12
REMARK    5  A    between atoms: C_12  and  S_13
REMARK    6  A    between atoms: S_13  and  C_14
REMARK    7  A    between atoms: C_17  and  C_19
REMARK    8  A    between atoms: C_23  and  S_25
REMARK    9  A    between atoms: S_25  and  N_28
REMARK                            x       y       z     vdW  Elec       q    Type
REMARK                         _______ _______ _______ _____ _____    ______ ____
ROOT
ATOM      1  C   UNL     1       6.351   1.165   1.430  0.00  0.00    +0.278 A 
ATOM      2  N   UNL     1       6.568   2.274   0.762  0.00  0.00    -0.101 NA
ATOM      3  N   UNL     1       7.813   2.588   0.846  0.00  0.00    -0.106 NA
ATOM      4  C   UNL     1       8.440   1.693   1.570  0.00  0.00    +0.249 A 
ATOM      5  O   UNL     1       7.526   0.776   1.960  0.00  0.00    -0.411 OA
ENDROOT
BRANCH   4   6
ATOM      6  C   UNL     1       9.879   1.691   1.904  0.00  0.00    +0.040 A 
ATOM      7  C   UNL     1      10.414   0.672   2.695  0.00  0.00    +0.013 A 
ATOM      8  C   UNL     1      11.759   0.673   2.999  0.00  0.00    +0.003 A 
ATOM      9  C   UNL     1      12.576   1.687   2.531  0.00  0.00    +0.028 A 
ATOM     10  C   UNL     1      12.052   2.703   1.751  0.00  0.00    +0.106 A 
ATOM     11  C   UNL     1      10.709   2.711   1.436  0.00  0.00    +0.041 A 
BRANCH  10  12
ATOM     12  S   UNL     1      13.102   3.989   1.161  0.00  0.00    +0.061 S 
ATOM     13  O   UNL     1      14.420   3.459   1.140  0.00  0.00    -0.153 OA
ATOM     14  O   UNL     1      12.477   4.523   0.002  0.00  0.00    -0.153 OA
BRANCH  12  15
ATOM     15  N   UNL     1      13.092   5.190   2.300  0.00  0.00    -0.177 NA
ATOM     16  C   UNL     1      12.105   6.277   2.234  0.00  0.00    +0.109 C 
ATOM     17  C   UNL     1      11.377   6.358   3.584  0.00  0.00    +0.017 C 
ATOM     18  C   UNL     1      12.408   6.513   4.705  0.00  0.00    +0.003 C 
ATOM     19  C   UNL     1      13.328   5.290   4.727  0.00  0.00    +0.017 C 
ATOM     20  C   UNL     1      14.075   5.194   3.393  0.00  0.00    +0.109 C 
ENDBRANCH  12  15
ENDBRANCH  10  12
ENDBRANCH   4   6
BRANCH   1  21
ATOM     21  S   UNL     1       4.804   0.339   1.606  0.00  0.00    -0.056 S 
BRANCH  21  22
ATOM     22  C   UNL     1       3.745   1.447   0.644  0.00  0.00    +0.174 C 
BRANCH  22  24
ATOM     23  N   UNL     1       1.362   1.593  -0.002  0.00  0.00    -0.308 N 
ATOM     24  C   UNL     1       2.331   0.926   0.654  0.00  0.00    +0.224 C 
ATOM     25  O   UNL     1       2.066  -0.095   1.254  0.00  0.00    -0.275 OA
ATOM     26  H   UNL     1       1.574   2.409  -0.482  0.00  0.00    +0.149 HD
BRANCH  23  28
ATOM     27  C   UNL     1      -0.729   1.579   1.267  0.00  0.00    +0.033 C 
ATOM     28  C   UNL     1      -0.013   1.086   0.008  0.00  0.00    +0.107 C 
BRANCH  28  29
ATOM     29  C   UNL     1      -0.742   1.585  -1.213  0.00  0.00    +0.010 A 
ATOM     30  C   UNL     1      -1.619   0.929  -2.011  0.00  0.00    +0.013 A 
ATOM     31  C   UNL     1      -2.172   1.595  -3.089  0.00  0.00    +0.008 A 
ATOM     32  C   UNL     1      -1.820   2.884  -3.316  0.00  0.00    +0.045 A 
ATOM     33  S   UNL     1      -0.679   3.196  -1.979  0.00  0.00    -0.100 S 
ENDBRANCH  28  29
ENDBRANCH  23  28
ENDBRANCH  22  24
ENDBRANCH  21  22
ENDBRANCH   1  21
TORSDOF 8
