REMARK  Name = ZINC63205689
REMARK  7 active torsions:
REMARK  status: ('A' for Active; 'I' for Inactive)
REMARK    1  A    between atoms: C_4  and  C_7
REMARK    2  A    between atoms: C_7  and  C_9
REMARK    3  A    between atoms: C_7  and  C_27
REMARK    4  A    between atoms: C_9  and  N_10
REMARK    5  A    between atoms: N_10  and  C_11
REMARK    6  A    between atoms: C_11  and  C_13
REMARK    7  A    between atoms: C_11  and  C_19
REMARK                            x       y       z     vdW  Elec       q    Type
REMARK                         _______ _______ _______ _____ _____    ______ ____
ROOT
ATOM      1  C   UNL     1       3.473  -1.713   1.261  0.00  0.00    +0.094 C 
ENDROOT
BRANCH   1   2
ATOM      2  N   UNL     1       3.676  -0.810   2.402  0.00  0.00    -0.301 NA
ATOM      3  H   UNL     1       4.407  -0.142   2.209  0.00  0.00    +0.123 HD
BRANCH   2   4
ATOM      4  C   UNL     1       3.965  -1.567   3.628  0.00  0.00    +0.171 C 
BRANCH   4   5
ATOM      5  C   UNL     1       4.744  -0.700   4.582  0.00  0.00    +0.237 C 
ATOM      6  O   UNL     1       4.702   0.508   4.477  0.00  0.00    -0.274 OA
ATOM      7  N   UNL     1       5.488  -1.265   5.554  0.00  0.00    -0.296 N 
ATOM      8  C   UNL     1       5.648  -2.726   5.631  0.00  0.00    +0.136 C 
ATOM      9  C   UNL     1       7.143  -3.043   5.746  0.00  0.00    +0.179 C 
ATOM     10  O   UNL     1       7.704  -2.285   6.821  0.00  0.00    -0.377 OA
ATOM     11  C   UNL     1       7.634  -0.869   6.637  0.00  0.00    +0.179 C 
ATOM     12  C   UNL     1       6.168  -0.440   6.564  0.00  0.00    +0.136 C 
ENDBRANCH   4   5
BRANCH   4  13
ATOM     13  C   UNL     1       2.671  -1.989   4.274  0.00  0.00    -0.022 A 
ATOM     14  C   UNL     1       1.644  -1.076   4.426  0.00  0.00    +0.005 A 
ATOM     15  C   UNL     1       0.457  -1.463   5.020  0.00  0.00    +0.000 A 
ATOM     16  C   UNL     1       0.296  -2.764   5.460  0.00  0.00    +0.000 A 
ATOM     17  C   UNL     1       1.323  -3.677   5.308  0.00  0.00    +0.000 A 
ATOM     18  C   UNL     1       2.508  -3.291   4.711  0.00  0.00    +0.005 A 
ENDBRANCH   4  13
ENDBRANCH   2   4
ENDBRANCH   1   2
BRANCH   1  19
ATOM     19  C   UNL     1       3.175  -0.889   0.007  0.00  0.00    +0.061 C 
BRANCH  19  20
ATOM     20  C   UNL     1       3.089  -1.806  -1.187  0.00  0.00    -0.033 C 
ATOM     21  C   UNL     1       3.863  -1.773  -2.295  0.00  0.00    -0.000 A 
ATOM     22  C   UNL     1       4.974  -0.906  -2.706  0.00  0.00    +0.010 A 
ATOM     23  C   UNL     1       5.566  -1.122  -3.903  0.00  0.00    +0.001 A 
ATOM     24  C   UNL     1       5.146  -2.150  -4.758  0.00  0.00    +0.002 A 
ATOM     25  C   UNL     1       4.132  -2.987  -4.450  0.00  0.00    +0.026 A 
ATOM     26  C   UNL     1       3.438  -2.851  -3.216  0.00  0.00    +0.043 A 
ATOM     27  N   UNL     1       2.441  -3.525  -2.697  0.00  0.00    -0.380 N 
ATOM     28  C   UNL     1       2.123  -2.953  -1.384  0.00  0.00    +0.145 C 
ATOM     29  H   UNL     1       1.990  -4.278  -3.111  0.00  0.00    +0.160 HD
ENDBRANCH  19  20
BRANCH  19  33
ATOM     30  C   UNL     1      -0.539   1.162   0.496  0.00  0.00    +0.000 A 
ATOM     31  C   UNL     1       0.623   1.879   0.284  0.00  0.00    +0.000 A 
ATOM     32  C   UNL     1       1.825   1.215   0.126  0.00  0.00    +0.004 A 
ATOM     33  C   UNL     1       1.865  -0.166   0.180  0.00  0.00    -0.039 A 
ATOM     34  C   UNL     1       0.702  -0.882   0.393  0.00  0.00    +0.004 A 
ATOM     35  C   UNL     1      -0.500  -0.219   0.550  0.00  0.00    +0.000 A 
ENDBRANCH  19  33
ENDBRANCH   1  19
TORSDOF 7
