REMARK  Name = ZINC04237155
REMARK  2 active torsions:
REMARK  status: ('A' for Active; 'I' for Inactive)
REMARK    1  A    between atoms: C_3  and  C_6
REMARK    2  A    between atoms: N_24  and  C_25
REMARK                            x       y       z     vdW  Elec       q    Type
REMARK                         _______ _______ _______ _____ _____    ______ ____
ROOT
ATOM      1  C   UNL     1      -4.639  -0.137   0.901  0.00  0.00    +0.053 A 
ATOM      2  C   UNL     1      -3.634  -0.799   1.594  0.00  0.00    +0.016 A 
ATOM      3  C   UNL     1      -2.391  -0.177   1.725  0.00  0.00    +0.022 A 
ATOM      4  C   UNL     1      -2.171   1.058   1.198  0.00  0.00    +0.027 A 
ATOM      5  N   UNL     1      -3.172   1.747   0.599  0.00  0.00    -0.311 N 
ATOM      6  C   UNL     1      -4.370   1.151   0.381  0.00  0.00    +0.260 A 
ATOM      7  O   UNL     1      -5.224   1.730  -0.269  0.00  0.00    -0.267 OA
ATOM      8  C   UNL     1      -3.041   3.141   0.175  0.00  0.00    +0.130 C 
ATOM      9  C   UNL     1      -1.593   3.562   0.006  0.00  0.00    +0.027 C 
ATOM     10  C   UNL     1      -0.778   3.119   1.222  0.00  0.00    +0.018 C 
ATOM     11  C   UNL     1      -0.755   1.589   1.259  0.00  0.00    +0.054 C 
ATOM     12  C   UNL     1      -0.014   1.085   0.009  0.00  0.00    +0.119 C 
ATOM     13  N   UNL     1      -0.745   1.583  -1.168  0.00  0.00    -0.285 N 
ATOM     14  C   UNL     1      -0.988   3.025  -1.284  0.00  0.00    +0.114 C 
ATOM     15  C   UNL     1      -1.182   0.732  -2.118  0.00  0.00    +0.302 C 
ATOM     16  O   UNL     1      -0.895  -0.448  -2.055  0.00  0.00    -0.253 OA
ATOM     17  N   UNL     1      -1.936   1.189  -3.137  0.00  0.00    -0.296 N 
ATOM     18  H   UNL     1      -2.103   2.140  -3.228  0.00  0.00    +0.151 HD
ENDROOT
BRANCH  17  19
ATOM     19  C   UNL     1      -2.503   0.249  -4.107  0.00  0.00    +0.074 C 
ATOM     20  C   UNL     1      -1.470  -0.045  -5.197  0.00  0.00    +0.022 C 
ATOM     21  C   UNL     1      -2.063  -1.026  -6.210  0.00  0.00    +0.002 C 
ATOM     22  C   UNL     1      -3.312  -0.411  -6.844  0.00  0.00    +0.000 C 
ATOM     23  C   UNL     1      -4.345  -0.117  -5.755  0.00  0.00    +0.002 C 
ATOM     24  C   UNL     1      -3.752   0.864  -4.742  0.00  0.00    +0.022 C 
ENDBRANCH  17  19
BRANCH   1  27
ATOM     25  C   UNL     1      -8.078  -1.681   1.232  0.00  0.00    +0.008 A 
ATOM     26  C   UNL     1      -6.902  -1.097   1.651  0.00  0.00    +0.016 A 
ATOM     27  C   UNL     1      -5.961  -0.764   0.712  0.00  0.00    +0.024 A 
ATOM     28  S   UNL     1      -6.755  -1.280  -0.802  0.00  0.00    -0.096 S 
ATOM     29  C   UNL     1      -8.269  -1.907  -0.093  0.00  0.00    +0.046 A 
ENDBRANCH   1  27
TORSDOF 2
