REMARK  Name = ZINC09503884
REMARK  2 active torsions:
REMARK  status: ('A' for Active; 'I' for Inactive)
REMARK    1  A    between atoms: C_2  and  C_15
REMARK    2  A    between atoms: C_7  and  C_9
REMARK                            x       y       z     vdW  Elec       q    Type
REMARK                         _______ _______ _______ _____ _____    ______ ____
ROOT
ATOM      1  C   UNL     1      -1.831   5.818  -1.074  0.00  0.00    +0.072 A 
ATOM      2  C   UNL     1      -1.510   5.123   0.044  0.00  0.00    +0.057 A 
ATOM      3  N   UNL     1      -1.221   5.795   1.141  0.00  0.00    -0.229 NA
ATOM      4  C   UNL     1      -1.231   7.114   1.156  0.00  0.00    +0.165 A 
ATOM      5  S   UNL     1      -1.690   7.495  -0.475  0.00  0.00    -0.060 S 
ATOM      6  N   UNL     1      -0.950   7.977   2.208  0.00  0.00    -0.258 N 
ATOM      7  C   UNL     1      -1.022   9.310   2.023  0.00  0.00    +0.287 C 
ATOM      8  O   UNL     1      -1.331   9.758   0.934  0.00  0.00    -0.266 OA
ATOM      9  H   UNL     1      -0.703   7.620   3.075  0.00  0.00    +0.157 HD
ENDROOT
BRANCH   2  10
ATOM     10  C   UNL     1      -1.490   3.616   0.036  0.00  0.00    +0.014 C 
ATOM     11  C   UNL     1      -0.773   3.123  -1.223  0.00  0.00    +0.016 C 
ATOM     12  C   UNL     1      -0.753   1.593  -1.232  0.00  0.00    -0.010 C 
ATOM     13  C   UNL     1      -0.013   1.086   0.008  0.00  0.00    +0.007 C 
ATOM     14  C   UNL     1      -0.729   1.579   1.267  0.00  0.00    -0.010 C 
ATOM     15  C   UNL     1      -0.750   3.109   1.275  0.00  0.00    +0.016 C 
ATOM     16  C   UNL     1      -2.164   1.050   1.278  0.00  0.00    +0.007 C 
ATOM     17  C   UNL     1      -2.904   1.556   0.038  0.00  0.00    -0.010 C 
ATOM     18  C   UNL     1      -2.188   1.063  -1.221  0.00  0.00    +0.007 C 
ATOM     19  C   UNL     1      -2.925   3.086   0.047  0.00  0.00    +0.016 C 
ENDBRANCH   2  10
BRANCH   7  20
ATOM     20  C   UNL     1      -0.726  10.219   3.131  0.00  0.00    +0.217 C 
ATOM     21  C   UNL     1      -0.387   9.709   4.323  0.00  0.00    +0.238 C 
ATOM     22  O   UNL     1      -0.111  10.501   5.381  0.00  0.00    -0.492 OA
ATOM     23  C   UNL     1       0.174  11.877   5.100  0.00  0.00    +0.269 C 
ATOM     24  C   UNL     1      -0.873  12.386   4.099  0.00  0.00    +0.270 C 
ATOM     25  O   UNL     1      -0.798  11.563   2.926  0.00  0.00    -0.481 OA
ENDBRANCH   7  20
TORSDOF 2
