REMARK  Name = ZINC34716570
REMARK  13 active torsions:
REMARK  status: ('A' for Active; 'I' for Inactive)
REMARK    1  A    between atoms: C_1  and  C_2
REMARK    2  A    between atoms: C_2  and  C_3
REMARK    3  A    between atoms: C_3  and  C_4
REMARK    4  A    between atoms: C_4  and  N_5
REMARK    5  A    between atoms: N_5  and  C_6
REMARK    6  A    between atoms: C_6  and  C_7
REMARK    7  A    between atoms: N_9  and  C_10
REMARK    8  A    between atoms: C_12  and  C_22
REMARK    9  A    between atoms: N_14  and  C_15
REMARK   10  A    between atoms: C_28  and  C_30
REMARK   11  A    between atoms: C_30  and  C_32
REMARK   12  A    between atoms: C_30  and  C_34
REMARK   13  A    between atoms: C_32  and  C_33
REMARK                            x       y       z     vdW  Elec       q    Type
REMARK                         _______ _______ _______ _____ _____    ______ ____
ROOT
ATOM      1  C   UNL     1       2.955  -3.331  -2.190  0.00  0.00    +0.236 C 
ATOM      2  O   UNL     1       2.258  -4.241  -1.795  0.00  0.00    -0.274 OA
ATOM      3  N   UNL     1       4.295  -3.473  -2.222  0.00  0.00    -0.269 N 
ATOM      4  H   UNL     1       4.853  -2.745  -2.538  0.00  0.00    +0.156 HD
ENDROOT
BRANCH   3   5
ATOM      5  C   UNL     1       4.879  -4.668  -1.802  0.00  0.00    +0.129 A 
ATOM      6  C   UNL     1       4.220  -5.804  -1.454  0.00  0.00    +0.074 A 
ATOM      7  C   UNL     1       5.182  -6.767  -1.095  0.00  0.00    +0.095 A 
ATOM      8  N   UNL     1       6.375  -6.225  -1.225  0.00  0.00    -0.165 NA
ATOM      9  N   UNL     1       6.214  -4.907  -1.673  0.00  0.00    -0.216 N 
BRANCH   9  10
ATOM     10  C   UNL     1       7.244  -3.995  -1.938  0.00  0.00    +0.086 A 
ATOM     11  C   UNL     1       7.183  -2.708  -1.422  0.00  0.00    +0.029 A 
ATOM     12  C   UNL     1       8.200  -1.811  -1.684  0.00  0.00    +0.002 A 
ATOM     13  C   UNL     1       9.279  -2.194  -2.461  0.00  0.00    +0.002 A 
ATOM     14  C   UNL     1       9.343  -3.475  -2.977  0.00  0.00    +0.022 A 
ATOM     15  C   UNL     1       8.331  -4.379  -2.713  0.00  0.00    +0.066 A 
ATOM     16 CL   UNL     1       8.416  -5.990  -3.355  0.00  0.00    -0.081 Cl
ENDBRANCH   9  10
BRANCH   7  17
ATOM     17  C   UNL     1       4.901  -8.153  -0.648  0.00  0.00    +0.002 A 
ATOM     18  C   UNL     1       3.586  -8.606  -0.559  0.00  0.00    +0.010 A 
ATOM     19  C   UNL     1       3.329  -9.896  -0.142  0.00  0.00    +0.001 A 
ATOM     20  C   UNL     1       4.375 -10.740   0.186  0.00  0.00    +0.000 A 
ATOM     21  C   UNL     1       5.682 -10.296   0.099  0.00  0.00    +0.001 A 
ATOM     22  C   UNL     1       5.950  -9.009  -0.321  0.00  0.00    +0.010 A 
ENDBRANCH   7  17
ENDBRANCH   3   5
BRANCH   1  23
ATOM     23  C   UNL     1       2.324  -2.040  -2.644  0.00  0.00    +0.203 C 
BRANCH  23  24
ATOM     24  N   UNL     1       0.868  -2.136  -2.513  0.00  0.00    -0.292 N 
ATOM     25  C   UNL     1       0.133  -2.652  -3.518  0.00  0.00    +0.223 C 
ATOM     26  O   UNL     1      -1.063  -2.800  -3.381  0.00  0.00    -0.275 OA
BRANCH  24  27
ATOM     27  C   UNL     1       0.210  -1.671  -1.289  0.00  0.00    +0.108 C 
BRANCH  27  28
ATOM     28  C   UNL     1      -0.256  -0.226  -1.478  0.00  0.00    +0.019 C 
BRANCH  28  30
ATOM     29  C   UNL     1      -1.512   1.665  -0.435  0.00  0.00    +0.004 C 
ATOM     30  C   UNL     1      -1.046   0.221  -0.246  0.00  0.00    -0.002 C 
ENDBRANCH  28  30
ENDBRANCH  27  28
ENDBRANCH  24  27
BRANCH  25  31
ATOM     31  C   UNL     1       0.797  -3.045  -4.812  0.00  0.00    +0.105 C 
BRANCH  31  32
ATOM     32  C   UNL     1      -0.198  -2.943  -5.939  0.00  0.00    -0.036 A 
ATOM     33  C   UNL     1      -1.355  -3.698  -5.910  0.00  0.00    +0.004 A 
ATOM     34  C   UNL     1      -2.268  -3.604  -6.943  0.00  0.00    +0.000 A 
ATOM     35  C   UNL     1      -2.024  -2.755  -8.006  0.00  0.00    +0.000 A 
ATOM     36  C   UNL     1      -0.867  -1.999  -8.035  0.00  0.00    +0.000 A 
ATOM     37  C   UNL     1       0.044  -2.090  -6.999  0.00  0.00    +0.004 A 
ENDBRANCH  31  32
BRANCH  31  38
ATOM     38  C   UNL     1       1.304  -4.485  -4.708  0.00  0.00    +0.014 C 
ATOM     39  C   UNL     1       2.103  -4.837  -5.965  0.00  0.00    +0.005 C 
ENDBRANCH  31  38
ENDBRANCH  25  31
ENDBRANCH  23  24
ENDBRANCH   1  23
TORSDOF 11
