REMARK  Name = ZINC35746860
REMARK  20 active torsions:
REMARK  status: ('A' for Active; 'I' for Inactive)
REMARK    1  A    between atoms: C_1  and  C_2
REMARK    2  A    between atoms: C_2  and  C_3
REMARK    3  A    between atoms: C_3  and  N_4
REMARK    4  A    between atoms: N_4  and  C_5
REMARK    5  A    between atoms: N_4  and  C_24
REMARK    6  A    between atoms: C_5  and  C_6
REMARK    7  A    between atoms: C_12  and  C_23
REMARK    8  A    between atoms: C_13  and  C_17
REMARK    9  A    between atoms: C_17  and  O_19
REMARK   10  A    between atoms: O_19  and  C_20
REMARK   11  A    between atoms: C_20  and  C_21
REMARK   12  A    between atoms: C_20  and  C_22
REMARK   13  A    between atoms: C_24  and  C_25
REMARK   14  A    between atoms: C_25  and  C_27
REMARK   15  A    between atoms: C_25  and  O_33
REMARK   16  A    between atoms: C_27  and  O_28
REMARK   17  A    between atoms: O_28  and  C_29
REMARK   18  A    between atoms: C_29  and  C_30
REMARK   19  A    between atoms: C_29  and  C_31
REMARK   20  A    between atoms: C_29  and  C_32
REMARK                            x       y       z     vdW  Elec       q    Type
REMARK                         _______ _______ _______ _____ _____    ______ ____
ROOT
ATOM      1  C   UNL     1       0.695  -2.341  -1.324  0.00  0.00    +0.094 A 
ATOM      2  N   UNL     1       1.239  -2.852  -2.456  0.00  0.00    -0.312 N 
ATOM      3  H   UNL     1       2.021  -3.422  -2.391  0.00  0.00    +0.170 HD
ATOM      4  C   UNL     1       0.715  -2.585  -3.668  0.00  0.00    +0.260 A 
ATOM      5  O   UNL     1       1.210  -3.050  -4.679  0.00  0.00    -0.267 OA
ATOM      6  C   UNL     1      -0.480  -1.713  -3.739  0.00  0.00    +0.076 A 
ATOM      7  C   UNL     1      -1.200  -1.294  -4.859  0.00  0.00    -0.015 A 
ATOM      8  C   UNL     1      -2.285  -0.480  -4.703  0.00  0.00    +0.102 A 
ATOM      9  S   UNL     1      -2.357  -0.253  -2.934  0.00  0.00    -0.062 S 
ATOM     10  C   UNL     1      -0.952  -1.243  -2.492  0.00  0.00    +0.116 A 
ATOM     11  N   UNL     1      -0.360  -1.573  -1.351  0.00  0.00    -0.229 NA
ATOM     12  C   UNL     1      -0.781  -1.737  -6.237  0.00  0.00    +0.046 C 
ENDROOT
BRANCH   8  13
ATOM     13  C   UNL     1      -3.171   0.070  -5.731  0.00  0.00    +0.346 C 
ATOM     14  O   UNL     1      -2.976  -0.189  -6.904  0.00  0.00    -0.244 OA
BRANCH  13  15
ATOM     15  O   UNL     1      -4.203   0.864  -5.379  0.00  0.00    -0.458 OA
BRANCH  15  16
ATOM     16  C   UNL     1      -5.026   1.365  -6.434  0.00  0.00    +0.171 C 
ATOM     17  C   UNL     1      -6.452   1.567  -5.917  0.00  0.00    +0.052 C 
ATOM     18  C   UNL     1      -4.468   2.702  -6.925  0.00  0.00    +0.052 C 
ENDBRANCH  15  16
ENDBRANCH  13  15
ENDBRANCH   8  13
BRANCH   1  19
ATOM     19  C   UNL     1       1.324  -2.674   0.005  0.00  0.00    -0.003 C 
BRANCH  19  20
ATOM     20  N   UNL     1       0.663  -1.902   1.066  0.00  0.00    +0.386 N 
ATOM     21  H   UNL     1      -0.333  -2.056   1.023  0.00  0.00    -0.081 HD
BRANCH  20  22
ATOM     22  C   UNL     1       0.947  -0.473   0.881  0.00  0.00    -0.078 C 
BRANCH  22  24
ATOM     23  C   UNL     1       2.760   1.241   0.755  0.00  0.00    +0.002 C 
ATOM     24  C   UNL     1       2.442  -0.219   1.085  0.00  0.00    -0.022 C 
ENDBRANCH  22  24
ENDBRANCH  20  22
BRANCH  20  25
ATOM     25  C   UNL     1       1.170  -2.337   2.375  0.00  0.00    -0.044 C 
BRANCH  25  26
ATOM     26  C   UNL     1       0.358  -1.665   3.484  0.00  0.00    +0.124 C 
BRANCH  26  27
ATOM     27  O   UNL     1       0.601  -0.257   3.468  0.00  0.00    -0.391 OA
ATOM     28  H   UNL     1       1.528  -0.017   3.607  0.00  0.00    +0.210 HD
ENDBRANCH  26  27
BRANCH  26  29
ATOM     29  C   UNL     1       0.774  -2.239   4.840  0.00  0.00    +0.189 C 
BRANCH  29  30
ATOM     30  O   UNL     1      -0.063  -1.699   5.864  0.00  0.00    -0.372 OA
BRANCH  30  31
ATOM     31  C   UNL     1       0.244  -2.173   7.176  0.00  0.00    +0.061 C 
ATOM     32  C   UNL     1       1.686  -1.801   7.529  0.00  0.00    +0.041 C 
ATOM     33  C   UNL     1      -0.710  -1.532   8.187  0.00  0.00    +0.041 C 
ATOM     34  C   UNL     1       0.085  -3.694   7.219  0.00  0.00    +0.041 C 
ENDBRANCH  30  31
ENDBRANCH  29  30
ENDBRANCH  26  29
ENDBRANCH  25  26
ENDBRANCH  20  25
ENDBRANCH  19  20
ENDBRANCH   1  19
TORSDOF 13
