REMARK  Name = ZINC31047127
REMARK  8 active torsions:
REMARK  status: ('A' for Active; 'I' for Inactive)
REMARK    1  A    between atoms: C_1  and  C_2
REMARK    2  A    between atoms: C_2  and  C_4
REMARK    3  A    between atoms: C_2  and  N_16
REMARK    4  A    between atoms: C_7  and  N_10
REMARK    5  A    between atoms: C_17  and  C_19
REMARK    6  A    between atoms: N_24  and  C_26
REMARK    7  A    between atoms: C_26  and  C_27
REMARK    8  A    between atoms: C_29  and  C_32
REMARK                            x       y       z     vdW  Elec       q    Type
REMARK                         _______ _______ _______ _____ _____    ______ ____
ROOT
ATOM      1  C   UNL     1       6.618   0.009  -2.423  0.00  0.00    +0.058 C 
ATOM      2  C   UNL     1       5.851   0.599  -3.609  0.00  0.00    +0.009 C 
ATOM      3  C   UNL     1       6.842   1.265  -4.568  0.00  0.00    -0.018 C 
ATOM      4  C   UNL     1       7.877   0.233  -5.022  0.00  0.00    -0.078 C 
ATOM      5  N   UNL     1       8.584  -0.301  -3.851  0.00  0.00    +0.386 N 
ATOM      6  C   UNL     1       7.659  -0.987  -2.939  0.00  0.00    -0.065 C 
ATOM      7  H   UNL     1       9.022   0.549  -3.307  0.00  0.00    -0.081 HD
ENDROOT
BRANCH   1   9
ATOM      8  N   UNL     1       4.645  -0.018  -0.931  0.00  0.00    -0.309 N 
ATOM      9  C   UNL     1       5.656  -0.700  -1.504  0.00  0.00    +0.215 C 
ATOM     10  O   UNL     1       5.792  -1.884  -1.281  0.00  0.00    -0.276 OA
ATOM     11  H   UNL     1       4.522   1.057  -1.133  0.00  0.00    +0.149 HD
BRANCH   8  13
ATOM     12  C   UNL     1       4.292  -0.746   1.377  0.00  0.00    +0.033 C 
ATOM     13  C   UNL     1       3.710  -0.706  -0.038  0.00  0.00    +0.100 C 
BRANCH  13  14
ATOM     14  C   UNL     1       2.396   0.031  -0.021  0.00  0.00    -0.027 A 
ATOM     15  C   UNL     1       1.208  -0.677  -0.013  0.00  0.00    +0.007 A 
ATOM     16  C   UNL     1       0.002  -0.004   0.002  0.00  0.00    +0.023 A 
ATOM     17  C   UNL     1      -0.017   1.385   0.010  0.00  0.00    +0.030 A 
ATOM     18  C   UNL     1       1.179   2.093   0.002  0.00  0.00    +0.023 A 
ATOM     19  C   UNL     1       2.381   1.414  -0.013  0.00  0.00    +0.007 A 
BRANCH  17  20
ATOM     20  N   UNL     1      -1.235   2.068   0.019  0.00  0.00    -0.330 N 
ATOM     21  C   UNL     1      -2.076   1.660  -1.113  0.00  0.00    +0.105 C 
ATOM     22  C   UNL     1      -3.453   2.317  -0.990  0.00  0.00    +0.019 C 
ATOM     23  C   UNL     1      -3.288   3.839  -0.976  0.00  0.00    +0.003 C 
ATOM     24  C   UNL     1      -2.368   4.234   0.183  0.00  0.00    +0.019 C 
ATOM     25  C   UNL     1      -1.023   3.521   0.026  0.00  0.00    +0.105 C 
ENDBRANCH  17  20
ENDBRANCH  13  14
ENDBRANCH   8  13
ENDBRANCH   1   9
BRANCH   5  26
ATOM     26  C   UNL     1       9.679  -1.192  -4.258  0.00  0.00    +0.022 C 
BRANCH  26  27
ATOM     27  C   UNL     1      10.733  -0.394  -4.981  0.00  0.00    +0.211 A 
ATOM     28  N   UNL     1      11.764   0.204  -4.438  0.00  0.00    -0.193 NA
ATOM     29  C   UNL     1      12.427   0.786  -5.462  0.00  0.00    +0.202 A 
ATOM     30  N   UNL     1      11.763   0.516  -6.555  0.00  0.00    -0.056 NA
ATOM     31  O   UNL     1      10.790  -0.160  -6.295  0.00  0.00    -0.340 OA
BRANCH  29  32
ATOM     32  C   UNL     1      13.673   1.587  -5.364  0.00  0.00    +0.023 A 
ATOM     33  C   UNL     1      14.272   1.798  -4.123  0.00  0.00    +0.013 A 
ATOM     34  C   UNL     1      15.434   2.537  -4.038  0.00  0.00    +0.021 A 
ATOM     35  C   UNL     1      15.998   3.079  -5.180  0.00  0.00    +0.041 A 
ATOM     36  C   UNL     1      15.404   2.876  -6.414  0.00  0.00    +0.021 A 
ATOM     37  C   UNL     1      14.245   2.133  -6.511  0.00  0.00    +0.013 A 
ATOM     38 CL   UNL     1      17.456   4.014  -5.065  0.00  0.00    -0.084 Cl
ENDBRANCH  29  32
ENDBRANCH  26  27
ENDBRANCH   5  26
TORSDOF 7
