REMARK  Name = ZINC63506228
REMARK  7 active torsions:
REMARK  status: ('A' for Active; 'I' for Inactive)
REMARK    1  A    between atoms: C_1  and  O_2
REMARK    2  A    between atoms: O_2  and  C_3
REMARK    3  A    between atoms: C_9  and  C_12
REMARK    4  A    between atoms: C_12  and  C_13
REMARK    5  A    between atoms: C_13  and  N_14
REMARK    6  A    between atoms: C_15  and  C_17
REMARK    7  A    between atoms: C_17  and  N_18
REMARK                            x       y       z     vdW  Elec       q    Type
REMARK                         _______ _______ _______ _____ _____    ______ ____
ROOT
ATOM      1  N   UNL     1       1.793  -6.755  -0.031  0.00  0.00    -0.314 N 
ATOM      2  C   UNL     1       2.636  -7.328  -0.912  0.00  0.00    +0.231 C 
ATOM      3  O   UNL     1       3.756  -6.886  -1.055  0.00  0.00    -0.274 OA
ATOM      4  H   UNL     1       0.897  -7.108   0.083  0.00  0.00    +0.149 HD
ENDROOT
BRANCH   1   5
ATOM      5  C   UNL     1       2.230  -5.598   0.754  0.00  0.00    +0.108 C 
BRANCH   5   6
ATOM      6  C   UNL     1       1.092  -5.144   1.671  0.00  0.00    +0.052 C 
BRANCH   6  13
ATOM      7  C   UNL     1       0.626  -0.619   1.042  0.00  0.00    +0.121 A 
ATOM      8  C   UNL     1       1.202   0.173   2.051  0.00  0.00    +0.047 A 
ATOM      9  C   UNL     1       1.839  -0.358   3.116  0.00  0.00    +0.029 A 
ATOM     10  C   UNL     1       1.947  -1.815   3.248  0.00  0.00    +0.043 A 
ATOM     11  N   UNL     1       2.500  -2.573   4.161  0.00  0.00    -0.380 N 
ATOM     12  C   UNL     1       2.308  -3.978   3.782  0.00  0.00    +0.144 C 
ATOM     13  C   UNL     1       1.541  -3.954   2.479  0.00  0.00    -0.040 C 
ATOM     14  C   UNL     1       1.340  -2.650   2.185  0.00  0.00    +0.002 A 
ATOM     15  C   UNL     1       0.667  -1.972   1.072  0.00  0.00    +0.055 A 
ATOM     16  H   UNL     1       2.961  -2.259   4.955  0.00  0.00    +0.160 HD
BRANCH   7  18
ATOM     17  C   UNL     1      -0.017   1.425   0.010  0.00  0.00    +0.277 C 
ATOM     18  O   UNL     1       0.002  -0.004   0.002  0.00  0.00    -0.495 OA
ENDBRANCH   7  18
ENDBRANCH   6  13
ENDBRANCH   5   6
ENDBRANCH   1   5
BRANCH   2  19
ATOM     19  C   UNL     1       2.187  -8.518  -1.720  0.00  0.00    +0.209 C 
BRANCH  19  20
ATOM     20  N   UNL     1       3.276  -8.953  -2.598  0.00  0.00    -0.258 N 
ATOM     21  C   UNL     1       3.293  -8.350  -3.847  0.00  0.00    +0.051 A 
ATOM     22  C   UNL     1       2.093  -8.236  -4.548  0.00  0.00    +0.024 A 
ATOM     23  C   UNL     1       2.063  -7.641  -5.793  0.00  0.00    +0.002 A 
ATOM     24  C   UNL     1       3.225  -7.150  -6.359  0.00  0.00    +0.001 A 
ATOM     25  C   UNL     1       4.421  -7.257  -5.675  0.00  0.00    +0.017 A 
ATOM     26  C   UNL     1       4.458  -7.856  -4.423  0.00  0.00    +0.036 A 
ATOM     27  S   UNL     1       5.996  -7.984  -3.572  0.00  0.00    -0.067 S 
ATOM     28  C   UNL     1       6.216  -9.721  -3.372  0.00  0.00    +0.114 A 
ATOM     29  C   UNL     1       5.263 -10.465  -2.661  0.00  0.00    +0.069 A 
ATOM     30  C   UNL     1       5.466 -11.845  -2.515  0.00  0.00    +0.017 A 
ATOM     31  C   UNL     1       6.596 -12.411  -3.078  0.00  0.00    +0.020 A 
ATOM     32  C   UNL     1       7.489 -11.610  -3.766  0.00  0.00    +0.112 A 
ATOM     33  N   UNL     1       7.282 -10.313  -3.892  0.00  0.00    -0.248 NA
ATOM     34  C   UNL     1       4.079  -9.842  -2.075  0.00  0.00    +0.254 C 
ATOM     35  O   UNL     1       3.799 -10.204  -0.949  0.00  0.00    -0.270 OA
ENDBRANCH  19  20
ENDBRANCH   2  19
TORSDOF 6
