REMARK  Name = ZINC14462732
REMARK  6 active torsions:
REMARK  status: ('A' for Active; 'I' for Inactive)
REMARK    1  A    between atoms: C_1  and  C_2
REMARK    2  A    between atoms: C_2  and  C_3
REMARK    3  A    between atoms: C_2  and  C_4
REMARK    4  A    between atoms: C_7  and  C_10
REMARK    5  A    between atoms: C_21  and  N_27
REMARK    6  A    between atoms: C_23  and  O_26
REMARK                            x       y       z     vdW  Elec       q    Type
REMARK                         _______ _______ _______ _____ _____    ______ ____
ROOT
ATOM      1  C   UNL     1      -1.997   0.680  -1.446  0.00  0.00    +0.105 C 
ATOM      2  C   UNL     1      -0.821   1.629  -1.204  0.00  0.00    +0.029 C 
ATOM      3  C   UNL     1      -0.013   1.086   0.008  0.00  0.00    +0.033 C 
ATOM      4  C   UNL     1      -0.778   1.602   1.210  0.00  0.00    -0.030 C 
ATOM      5  C   UNL     1      -1.520   2.631   0.873  0.00  0.00    -0.023 C 
ATOM      6  C   UNL     1      -1.356   2.943  -0.597  0.00  0.00    +0.049 C 
ATOM      7  C   UNL     1      -2.662   3.345  -1.215  0.00  0.00    -0.014 A 
ATOM      8  C   UNL     1      -3.185   4.590  -0.883  0.00  0.00    +0.039 A 
ATOM      9  C   UNL     1      -4.383   5.016  -1.416  0.00  0.00    +0.130 A 
ATOM     10  C   UNL     1      -5.081   4.203  -2.292  0.00  0.00    +0.080 A 
ATOM     11  C   UNL     1      -4.570   2.964  -2.630  0.00  0.00    +0.140 A 
ATOM     12  C   UNL     1      -3.354   2.531  -2.091  0.00  0.00    +0.074 A 
ATOM     13  N   UNL     1      -2.880   1.273  -2.471  0.00  0.00    -0.334 N 
ATOM     14  H   UNL     1      -2.422   1.315  -3.369  0.00  0.00    +0.147 HD
ENDROOT
BRANCH   1  18
ATOM     15  C   UNL     1      -0.530  -3.081  -2.841  0.00  0.00    -0.045 A 
ATOM     16  C   UNL     1      -0.883  -2.927  -1.514  0.00  0.00    +0.004 A 
ATOM     17  C   UNL     1      -1.357  -1.709  -1.062  0.00  0.00    +0.006 A 
ATOM     18  C   UNL     1      -1.480  -0.647  -1.938  0.00  0.00    -0.027 A 
ATOM     19  C   UNL     1      -1.132  -0.803  -3.267  0.00  0.00    +0.006 A 
ATOM     20  C   UNL     1      -0.653  -2.019  -3.717  0.00  0.00    +0.004 A 
BRANCH  15  22
ATOM     21  C   UNL     1      -0.935  -4.940  -4.433  0.00  0.00    +0.012 C 
ATOM     22  C   UNL     1      -0.012  -4.408  -3.334  0.00  0.00    +0.013 C 
ATOM     23  C   UNL     1       1.399  -4.228  -3.896  0.00  0.00    +0.012 C 
ENDBRANCH  15  22
ENDBRANCH   1  18
BRANCH   9  24
ATOM     24  N   UNL     1      -4.924   6.344  -1.050  0.00  0.00    +0.057 N 
ATOM     25  O   UNL     1      -4.311   7.060  -0.279  0.00  0.00    -0.126 OA
ATOM     26  O   UNL     1      -5.982   6.722  -1.520  0.00  0.00    -0.126 OA
ENDBRANCH   9  24
BRANCH  11  27
ATOM     27  O   UNL     1      -5.253   2.163  -3.491  0.00  0.00    -0.505 OA
ATOM     28  H   UNL     1      -5.020   2.294  -4.420  0.00  0.00    +0.292 HD
ENDBRANCH  11  27
TORSDOF 4
