REMARK  Name = ZINC12461615
REMARK  8 active torsions:
REMARK  status: ('A' for Active; 'I' for Inactive)
REMARK    1  A    between atoms: C_1  and  C_2
REMARK    2  A    between atoms: C_5  and  C_33
REMARK    3  A    between atoms: C_6  and  N_8
REMARK    4  A    between atoms: C_17  and  S_18
REMARK    5  A    between atoms: S_18  and  C_19
REMARK    6  A    between atoms: C_19  and  C_20
REMARK    7  A    between atoms: N_25  and  C_26
REMARK    8  A    between atoms: C_28  and  C_32
REMARK                            x       y       z     vdW  Elec       q    Type
REMARK                         _______ _______ _______ _____ _____    ______ ____
ROOT
ATOM      1  N   UNL     1      -1.201  -0.723   0.010  0.00  0.00    -0.255 N 
ATOM      2  C   UNL     1      -1.756  -1.067   1.187  0.00  0.00    +0.268 A 
ATOM      3  O   UNL     1      -1.220  -0.759   2.237  0.00  0.00    -0.267 OA
ATOM      4  C   UNL     1      -2.985  -1.800   1.188  0.00  0.00    +0.076 A 
ATOM      5  C   UNL     1      -3.757  -2.275   2.338  0.00  0.00    -0.023 A 
ATOM      6  C   UNL     1      -4.894  -2.949   2.075  0.00  0.00    -0.004 A 
ATOM      7  S   UNL     1      -5.005  -2.993   0.306  0.00  0.00    -0.073 S 
ATOM      8  C   UNL     1      -3.518  -2.103  -0.076  0.00  0.00    +0.117 A 
ATOM      9  N   UNL     1      -2.920  -1.734  -1.203  0.00  0.00    -0.215 NA
ATOM     10  C   UNL     1      -1.791  -1.055  -1.177  0.00  0.00    +0.178 A 
ATOM     11  C   UNL     1      -5.854  -3.534   3.067  0.00  0.00    +0.046 C 
ATOM     12  C   UNL     1      -5.163  -3.582   4.437  0.00  0.00    -0.009 C 
ATOM     13  C   UNL     1      -4.511  -2.222   4.705  0.00  0.00    +0.008 C 
ATOM     14  C   UNL     1      -3.311  -2.029   3.776  0.00  0.00    +0.037 C 
ATOM     15  C   UNL     1      -6.196  -3.878   5.526  0.00  0.00    +0.008 C 
ENDROOT
BRANCH   1  21
ATOM     16  C   UNL     1       3.717  -0.700  -0.037  0.00  0.00    +0.044 C 
ATOM     17  C   UNL     1       2.399   0.032  -0.021  0.00  0.00    -0.048 A 
ATOM     18  C   UNL     1       2.377   1.415  -0.013  0.00  0.00    +0.004 A 
ATOM     19  C   UNL     1       1.171   2.090   0.002  0.00  0.00    +0.005 A 
ATOM     20  C   UNL     1      -0.017   1.384   0.010  0.00  0.00    -0.026 A 
ATOM     21  C   UNL     1       0.002  -0.004   0.002  0.00  0.00    +0.055 A 
ATOM     22  C   UNL     1       1.216  -0.679  -0.013  0.00  0.00    +0.030 A 
ATOM     23  C   UNL     1      -1.331   2.120   0.020  0.00  0.00    +0.046 C 
ENDBRANCH   1  21
BRANCH  10  24
ATOM     24  S   UNL     1      -1.030  -0.575  -2.692  0.00  0.00    -0.078 S 
BRANCH  24  25
ATOM     25  C   UNL     1      -2.216  -1.264  -3.872  0.00  0.00    +0.173 C 
BRANCH  25  26
ATOM     26  C   UNL     1      -1.758  -0.967  -5.277  0.00  0.00    +0.231 C 
ATOM     27  O   UNL     1      -0.730  -0.351  -5.461  0.00  0.00    -0.274 OA
ATOM     28  N   UNL     1      -2.490  -1.386  -6.327  0.00  0.00    -0.240 N 
ATOM     29  C   UNL     1      -2.080  -1.121  -7.583  0.00  0.00    +0.306 C 
ATOM     30  O   UNL     1      -1.050  -0.503  -7.769  0.00  0.00    -0.252 OA
ATOM     31  N   UNL     1      -2.812  -1.540  -8.634  0.00  0.00    -0.302 N 
ATOM     32  C   UNL     1      -2.366  -1.251 -10.000  0.00  0.00    +0.129 C 
ATOM     33  H   UNL     1      -3.312  -1.879  -6.180  0.00  0.00    +0.159 HD
ATOM     34  H   UNL     1      -3.634  -2.033  -8.487  0.00  0.00    +0.150 HD
ENDBRANCH  25  26
ENDBRANCH  24  25
ENDBRANCH  10  24
TORSDOF 4
