REMARK  Name = ZINC14668723
REMARK  13 active torsions:
REMARK  status: ('A' for Active; 'I' for Inactive)
REMARK    1  A    between atoms: C_1  and  C_2
REMARK    2  A    between atoms: C_6  and  O_9
REMARK    3  A    between atoms: C_7  and  C_8
REMARK    4  A    between atoms: O_9  and  C_10
REMARK    5  A    between atoms: C_10  and  C_11
REMARK    6  A    between atoms: N_13  and  N_14
REMARK    7  A    between atoms: N_14  and  C_15
REMARK    8  A    between atoms: C_15  and  N_17
REMARK    9  A    between atoms: C_18  and  C_20
REMARK   10  A    between atoms: C_25  and  O_26
REMARK   11  A    between atoms: O_26  and  C_27
REMARK   12  A    between atoms: C_27  and  C_28
REMARK   13  A    between atoms: C_27  and  C_29
REMARK                            x       y       z     vdW  Elec       q    Type
REMARK                         _______ _______ _______ _____ _____    ______ ____
ROOT
ATOM      1  C   UNL     1      -3.510   1.876   0.234  0.00  0.00    +0.153 C 
ATOM      2  S   UNL     1      -4.955   0.999   0.505  0.00  0.00    -0.017 S 
ENDROOT
BRANCH   1   3
ATOM      3  N   UNL     1      -3.558   3.208   0.036  0.00  0.00    -0.263 N 
ATOM      4  C   UNL     1      -4.743   3.850   0.051  0.00  0.00    +0.253 C 
ATOM      5  O   UNL     1      -5.769   3.227   0.244  0.00  0.00    -0.270 OA
ATOM      6  H   UNL     1      -2.739   3.705  -0.118  0.00  0.00    +0.157 HD
BRANCH   4   7
ATOM      7  C   UNL     1      -4.795   5.308  -0.165  0.00  0.00    +0.080 A 
ATOM      8  C   UNL     1      -3.618   6.028  -0.387  0.00  0.00    +0.032 A 
ATOM      9  C   UNL     1      -3.674   7.390  -0.589  0.00  0.00    +0.019 A 
ATOM     10  C   UNL     1      -4.893   8.050  -0.573  0.00  0.00    +0.019 A 
ATOM     11  C   UNL     1      -6.063   7.350  -0.355  0.00  0.00    +0.047 A 
ATOM     12  C   UNL     1      -6.026   5.978  -0.155  0.00  0.00    +0.133 A 
ATOM     13 BR   UNL     1      -2.081   8.364  -0.889  0.00  0.00    -0.050 Br
BRANCH  12  14
ATOM     14  O   UNL     1      -7.176   5.288   0.053  0.00  0.00    -0.489 OA
BRANCH  14  15
ATOM     15  C   UNL     1      -8.377   6.052   0.174  0.00  0.00    +0.167 C 
ATOM     16  C   UNL     1      -8.940   6.340  -1.220  0.00  0.00    +0.051 C 
ATOM     17  C   UNL     1      -9.405   5.262   0.986  0.00  0.00    +0.051 C 
ENDBRANCH  14  15
ENDBRANCH  12  14
ENDBRANCH   4   7
ENDBRANCH   1   3
BRANCH   1  18
ATOM     18  N   UNL     1      -2.325   1.234   0.218  0.00  0.00    -0.245 N 
ATOM     19  H   UNL     1      -2.291   0.276   0.361  0.00  0.00    +0.172 HD
BRANCH  18  22
ATOM     20  C   UNL     1       0.043   1.311  -0.019  0.00  0.00    +0.267 C 
ATOM     21  O   UNL     1       0.086   0.112   0.159  0.00  0.00    -0.271 OA
ATOM     22  N   UNL     1      -1.143   1.952  -0.004  0.00  0.00    -0.232 N 
ATOM     23  H   UNL     1      -1.177   2.911  -0.146  0.00  0.00    +0.173 HD
BRANCH  20  24
ATOM     24  C   UNL     1       1.314   2.082  -0.264  0.00  0.00    +0.326 C 
BRANCH  24  25
ATOM     25  O   UNL     1       2.427   1.186  -0.239  0.00  0.00    -0.482 OA
BRANCH  25  31
ATOM     26  C   UNL     1       7.254   0.582  -0.631  0.00  0.00    +0.044 C 
ATOM     27  C   UNL     1       6.032   1.463  -0.642  0.00  0.00    -0.044 A 
ATOM     28  C   UNL     1       6.162   2.822  -0.863  0.00  0.00    +0.004 A 
ATOM     29  C   UNL     1       5.043   3.634  -0.874  0.00  0.00    +0.004 A 
ATOM     30  C   UNL     1       3.791   3.088  -0.665  0.00  0.00    +0.046 A 
ATOM     31  C   UNL     1       3.658   1.725  -0.445  0.00  0.00    +0.124 A 
ATOM     32  C   UNL     1       4.783   0.914  -0.428  0.00  0.00    -0.006 A 
ATOM     33  C   UNL     1       4.642  -0.566  -0.182  0.00  0.00    +0.048 C 
ENDBRANCH  25  31
ENDBRANCH  24  25
ENDBRANCH  20  24
ENDBRANCH  18  22
ENDBRANCH   1  18
TORSDOF 9
