REMARK  Name = ZINC67385806
REMARK  7 active torsions:
REMARK  status: ('A' for Active; 'I' for Inactive)
REMARK    1  A    between atoms: C_1  and  C_2
REMARK    2  A    between atoms: C_2  and  C_3
REMARK    3  A    between atoms: N_4  and  O_5
REMARK    4  A    between atoms: O_5  and  C_6
REMARK    5  A    between atoms: C_6  and  C_7
REMARK    6  A    between atoms: N_9  and  C_10
REMARK    7  A    between atoms: C_10  and  C_11
REMARK                            x       y       z     vdW  Elec       q    Type
REMARK                         _______ _______ _______ _____ _____    ______ ____
ROOT
ATOM      1  C   UNL     1      -6.099   0.202   0.061  0.00  0.00    +0.253 C 
ATOM      2  O   UNL     1      -6.209  -1.006   0.056  0.00  0.00    -0.272 OA
ATOM      3  N   UNL     1      -7.200   0.979   0.076  0.00  0.00    -0.312 N 
ATOM      4  H   UNL     1      -7.111   1.945   0.080  0.00  0.00    +0.149 HD
ENDROOT
BRANCH   1   5
ATOM      5  C   UNL     1      -4.730   0.834   0.052  0.00  0.00    +0.358 C 
BRANCH   5   6
ATOM      6  O   UNL     1      -3.733  -0.190   0.037  0.00  0.00    -0.383 OA
BRANCH   6   8
ATOM      7  C   UNL     1      -1.412  -0.526   0.013  0.00  0.00    +0.132 C 
ATOM      8  N   UNL     1      -2.405   0.300   0.027  0.00  0.00    -0.074 NA
ATOM      9  N   UNL     1      -1.645  -1.883   0.008  0.00  0.00    -0.344 N 
ATOM     10  H   UNL     1      -0.899  -2.503  -0.003  0.00  0.00    +0.144 HD
ATOM     11  H   UNL     1      -2.555  -2.219   0.015  0.00  0.00    +0.144 HD
BRANCH   7  13
ATOM     12  C   UNL     1      -0.019   1.526   0.010  0.00  0.00    +0.012 C 
ATOM     13  C   UNL     1       0.002  -0.004   0.002  0.00  0.00    +0.071 C 
ENDBRANCH   7  13
ENDBRANCH   6   8
ENDBRANCH   5   6
ENDBRANCH   1   5
BRANCH   3  14
ATOM     14  C   UNL     1      -8.530   0.365   0.086  0.00  0.00    +0.107 C 
BRANCH  14  15
ATOM     15  C   UNL     1      -9.597   1.461   0.102  0.00  0.00    +0.006 C 
ATOM     16  C   UNL     1      -9.504   2.245   1.412  0.00  0.00    +0.005 C 
ATOM     17  C   UNL     1     -10.571   3.341   1.428  0.00  0.00    +0.000 C 
ATOM     18  C   UNL     1     -11.958   2.704   1.312  0.00  0.00    +0.000 C 
ATOM     19  C   UNL     1     -12.051   1.920   0.002  0.00  0.00    +0.000 C 
ATOM     20  C   UNL     1     -10.983   0.825  -0.014  0.00  0.00    +0.005 C 
ENDBRANCH  14  15
ENDBRANCH   3  14
TORSDOF 6
