REMARK  Name = ZINC34786937
REMARK  10 active torsions:
REMARK  status: ('A' for Active; 'I' for Inactive)
REMARK    1  A    between atoms: C_1  and  C_2
REMARK    2  A    between atoms: C_4  and  C_38
REMARK    3  A    between atoms: N_19  and  N_20
REMARK    4  A    between atoms: N_19  and  N_29
REMARK    5  A    between atoms: N_20  and  C_21
REMARK    6  A    between atoms: C_24  and  O_27
REMARK    7  A    between atoms: O_27  and  C_28
REMARK    8  A    between atoms: N_29  and  C_30
REMARK    9  A    between atoms: C_33  and  O_36
REMARK   10  A    between atoms: O_36  and  C_37
REMARK                            x       y       z     vdW  Elec       q    Type
REMARK                         _______ _______ _______ _____ _____    ______ ____
ROOT
ATOM      1  C   UNL     1       3.003   1.552   1.042  0.00  0.00    +0.067 C 
ATOM      2  C   UNL     1       2.365   0.211   0.784  0.00  0.00    +0.061 A 
ATOM      3  C   UNL     1       2.155  -0.368  -0.473  0.00  0.00    +0.048 A 
ATOM      4  C   UNL     1       1.560  -1.568  -0.285  0.00  0.00    +0.045 A 
ATOM      5  N   UNL     1       1.398  -1.742   1.053  0.00  0.00    -0.202 N 
ATOM      6  N   UNL     1       1.918  -0.612   1.697  0.00  0.00    -0.169 NA
ATOM      7  C   UNL     1       0.822  -2.850   1.674  0.00  0.00    +0.254 A 
ATOM      8  N   UNL     1       0.727  -2.877   2.997  0.00  0.00    -0.192 NA
ATOM      9  C   UNL     1       0.191  -3.899   3.643  0.00  0.00    +0.170 A 
ATOM     10  C   UNL     1      -0.300  -5.007   2.898  0.00  0.00    +0.054 A 
ATOM     11  C   UNL     1      -0.929  -6.240   3.401  0.00  0.00    -0.025 A 
ATOM     12  C   UNL     1      -1.310  -7.144   2.484  0.00  0.00    -0.004 A 
ATOM     13  S   UNL     1      -0.869  -6.429   0.917  0.00  0.00    -0.073 S 
ATOM     14  C   UNL     1      -0.167  -4.910   1.501  0.00  0.00    +0.116 A 
ATOM     15  N   UNL     1       0.376  -3.851   0.931  0.00  0.00    -0.203 NA
ATOM     16  C   UNL     1      -1.933  -8.362   3.112  0.00  0.00    +0.043 C 
ATOM     17  C   UNL     1      -1.506  -8.296   4.595  0.00  0.00    +0.010 C 
ATOM     18  C   UNL     1      -1.282  -6.783   4.788  0.00  0.00    +0.037 C 
ATOM     19  N   UNL     1       0.110  -3.892   5.024  0.00  0.00    -0.151 N 
ATOM     20  C   UNL     1       1.149  -2.536  -1.364  0.00  0.00    +0.066 C 
ENDROOT
BRANCH  19  21
ATOM     21  N   UNL     1      -0.516  -2.825   5.683  0.00  0.00    -0.246 N 
ATOM     22  H   UNL     1       0.015  -2.180   6.175  0.00  0.00    +0.172 HD
BRANCH  21  23
ATOM     23  C   UNL     1      -1.908  -2.691   5.631  0.00  0.00    +0.046 A 
ATOM     24  C   UNL     1      -2.657  -3.531   4.818  0.00  0.00    +0.028 A 
ATOM     25  C   UNL     1      -4.031  -3.398   4.767  0.00  0.00    +0.047 A 
ATOM     26  C   UNL     1      -4.662  -2.426   5.528  0.00  0.00    +0.120 A 
ATOM     27  C   UNL     1      -3.915  -1.586   6.340  0.00  0.00    +0.047 A 
ATOM     28  C   UNL     1      -2.541  -1.721   6.396  0.00  0.00    +0.028 A 
BRANCH  26  29
ATOM     29  O   UNL     1      -6.015  -2.295   5.478  0.00  0.00    -0.495 OA
ATOM     30  C   UNL     1      -6.599  -1.273   6.287  0.00  0.00    +0.277 C 
ENDBRANCH  26  29
ENDBRANCH  21  23
ENDBRANCH  19  21
BRANCH  19  31
ATOM     31  N   UNL     1       0.654  -4.950   5.763  0.00  0.00    -0.246 N 
ATOM     32  H   UNL     1       0.081  -5.491   6.329  0.00  0.00    +0.172 HD
BRANCH  31  33
ATOM     33  C   UNL     1       2.024  -5.226   5.686  0.00  0.00    +0.046 A 
ATOM     34  C   UNL     1       2.864  -4.378   4.977  0.00  0.00    +0.028 A 
ATOM     35  C   UNL     1       4.216  -4.652   4.902  0.00  0.00    +0.047 A 
ATOM     36  C   UNL     1       4.734  -5.772   5.535  0.00  0.00    +0.120 A 
ATOM     37  C   UNL     1       3.895  -6.620   6.243  0.00  0.00    +0.047 A 
ATOM     38  C   UNL     1       2.544  -6.345   6.324  0.00  0.00    +0.028 A 
BRANCH  36  39
ATOM     39  O   UNL     1       6.065  -6.040   5.460  0.00  0.00    -0.495 OA
ATOM     40  C   UNL     1       6.530  -7.211   6.135  0.00  0.00    +0.277 C 
ENDBRANCH  36  39
ENDBRANCH  31  33
ENDBRANCH  19  31
TORSDOF 6
