REMARK  Name = ZINC31862965
REMARK  7 active torsions:
REMARK  status: ('A' for Active; 'I' for Inactive)
REMARK    1  A    between atoms: C_1  and  C_2
REMARK    2  A    between atoms: C_4  and  N_22
REMARK    3  A    between atoms: C_8  and  C_11
REMARK    4  A    between atoms: C_12  and  C_13
REMARK    5  A    between atoms: C_16  and  C_19
REMARK    6  A    between atoms: C_19  and  C_20
REMARK    7  A    between atoms: C_19  and  C_21
REMARK                            x       y       z     vdW  Elec       q    Type
REMARK                         _______ _______ _______ _____ _____    ______ ____
ROOT
ATOM      1  C   UNL     1       5.921   4.603  -0.029  0.00  0.00    +0.045 C 
ATOM      2  C   UNL     1       5.446   3.172  -0.032  0.00  0.00    -0.032 A 
ATOM      3  C   UNL     1       6.381   2.127  -0.046  0.00  0.00    +0.031 A 
ATOM      4  C   UNL     1       5.947   0.829  -0.049  0.00  0.00    +0.070 A 
ATOM      5  C   UNL     1       4.559   0.569  -0.038  0.00  0.00    +0.182 A 
ATOM      6  N   UNL     1       3.844  -0.547  -0.037  0.00  0.00    -0.127 NA
ATOM      7  N   UNL     1       2.589  -0.261  -0.018  0.00  0.00    -0.129 NA
ATOM      8  C   UNL     1       2.423   1.051  -0.015  0.00  0.00    +0.161 A 
ATOM      9  N   UNL     1       3.673   1.617  -0.024  0.00  0.00    -0.281 N 
ATOM     10  C   UNL     1       4.122   2.904  -0.022  0.00  0.00    +0.098 A 
ENDROOT
BRANCH   4  11
ATOM     11  N   UNL     1       6.863  -0.223  -0.063  0.00  0.00    -0.355 N 
ATOM     12  H   UNL     1       6.506  -1.264  -0.065  0.00  0.00    +0.142 HD
ATOM     13  H   UNL     1       7.942  -0.013  -0.071  0.00  0.00    +0.142 HD
ENDBRANCH   4  11
BRANCH   8  14
ATOM     14  C   UNL     1       1.146   1.766   0.001  0.00  0.00    +0.049 C 
ATOM     15  C   UNL     1      -0.013   1.076   0.008  0.00  0.00    +0.011 C 
BRANCH  15  16
ATOM     16  C   UNL     1      -1.297   1.794   0.018  0.00  0.00    -0.025 A 
ATOM     17  C   UNL     1      -1.320   3.193   0.032  0.00  0.00    +0.008 A 
ATOM     18  C   UNL     1      -2.528   3.858   0.037  0.00  0.00    +0.004 A 
ATOM     19  C   UNL     1      -3.715   3.147   0.038  0.00  0.00    -0.045 A 
ATOM     20  C   UNL     1      -3.700   1.763   0.030  0.00  0.00    +0.004 A 
ATOM     21  C   UNL     1      -2.501   1.082   0.020  0.00  0.00    +0.008 A 
BRANCH  19  22
ATOM     22  C   UNL     1      -5.030   3.882   0.049  0.00  0.00    +0.013 C 
ATOM     23  C   UNL     1      -5.116   4.753   1.304  0.00  0.00    +0.012 C 
ATOM     24  C   UNL     1      -5.129   4.768  -1.194  0.00  0.00    +0.012 C 
ENDBRANCH  19  22
ENDBRANCH  15  16
ENDBRANCH   8  14
TORSDOF 4
