REMARK  Name = ZINC00410810
REMARK  6 active torsions:
REMARK  status: ('A' for Active; 'I' for Inactive)
REMARK    1  A    between atoms: C_1  and  C_2
REMARK    2  A    between atoms: C_7  and  C_15
REMARK    3  A    between atoms: C_13  and  C_14
REMARK    4  A    between atoms: C_15  and  N_47
REMARK    5  A    between atoms: C_16  and  N_47
REMARK    6  A    between atoms: C_22  and  C_24
REMARK                            x       y       z     vdW  Elec       q    Type
REMARK                         _______ _______ _______ _____ _____    ______ ____
ROOT
ATOM      1  C   UNL     1      -0.013   1.086   0.008  0.00  0.00    +0.044 C 
ATOM      2  C   UNL     1      -0.718   1.572   1.248  0.00  0.00    -0.046 A 
ATOM      3  C   UNL     1      -2.089   1.788   1.218  0.00  0.00    +0.004 A 
ATOM      4  C   UNL     1      -2.749   2.222   2.333  0.00  0.00    +0.010 A 
ATOM      5  C   UNL     1      -2.035   2.463   3.511  0.00  0.00    -0.001 A 
ATOM      6  C   UNL     1      -2.709   2.936   4.722  0.00  0.00    +0.017 A 
ATOM      7  C   UNL     1      -1.965   3.152   5.835  0.00  0.00    +0.001 A 
ATOM      8  C   UNL     1      -0.573   2.924   5.814  0.00  0.00    +0.251 A 
ATOM      9  O   UNL     1       0.077   3.124   6.826  0.00  0.00    -0.268 OA
ATOM     10  N   UNL     1       0.055   2.490   4.708  0.00  0.00    -0.322 N 
ATOM     11  H   UNL     1       1.043   2.338   4.729  0.00  0.00    +0.169 HD
ATOM     12  C   UNL     1      -0.644   2.251   3.543  0.00  0.00    +0.052 A 
ATOM     13  C   UNL     1       0.005   1.803   2.398  0.00  0.00    -0.024 A 
ATOM     14  C   UNL     1       1.494   1.570   2.414  0.00  0.00    +0.046 C 
ENDROOT
BRANCH   7  15
ATOM     15  C   UNL     1      -2.628   3.639   7.098  0.00  0.00    -0.041 C 
BRANCH  15  16
ATOM     16  N   UNL     1      -2.943   2.481   7.955  0.00  0.00    +0.384 N 
ATOM     17  H   UNL     1      -2.075   1.984   8.186  0.00  0.00    -0.085 HD
ATOM     18  H   UNL     1      -3.576   1.848   7.451  0.00  0.00    -0.085 HD
BRANCH  16  19
ATOM     19  C   UNL     1      -3.594   2.928   9.201  0.00  0.00    -0.069 C 
ATOM     20  C   UNL     1      -2.526   3.316  10.225  0.00  0.00    -0.015 C 
ATOM     21  C   UNL     1      -3.201   3.771  11.520  0.00  0.00    -0.002 C 
ATOM     22  C   UNL     1      -4.053   2.630  12.079  0.00  0.00    +0.000 C 
ATOM     23  C   UNL     1      -5.122   2.242  11.055  0.00  0.00    +0.002 C 
ATOM     24  C   UNL     1      -4.446   1.787   9.760  0.00  0.00    -0.028 C 
ATOM     25  C   UNL     1      -3.554   0.578  10.049  0.00  0.00    +0.006 C 
ENDBRANCH  16  19
ENDBRANCH  15  16
ENDBRANCH   7  15
TORSDOF 3
