REMARK  Name = ZINC09603974
REMARK  8 active torsions:
REMARK  status: ('A' for Active; 'I' for Inactive)
REMARK    1  A    between atoms: C_1  and  N_2
REMARK    2  A    between atoms: N_2  and  C_25
REMARK    3  A    between atoms: C_3  and  C_5
REMARK    4  A    between atoms: C_5  and  S_6
REMARK    5  A    between atoms: S_6  and  C_7
REMARK    6  A    between atoms: C_10  and  C_15
REMARK    7  A    between atoms: N_11  and  C_12
REMARK    8  A    between atoms: C_25  and  C_31
REMARK                            x       y       z     vdW  Elec       q    Type
REMARK                         _______ _______ _______ _____ _____    ______ ____
ROOT
ATOM      1  C   UNL     1      -0.013  -0.009  -5.258  0.00  0.00    +0.193 A 
ATOM      2  N   UNL     1      -0.009   1.293  -5.093  0.00  0.00    -0.122 NA
ATOM      3  N   UNL     1      -0.080   1.883  -6.232  0.00  0.00    -0.128 NA
ATOM      4  C   UNL     1      -0.135   0.994  -7.196  0.00  0.00    +0.167 A 
ATOM      5  N   UNL     1      -0.088  -0.247  -6.603  0.00  0.00    -0.299 N 
ENDROOT
BRANCH   4   6
ATOM      6  C   UNL     1      -0.224   1.272  -8.644  0.00  0.00    +0.044 A 
ATOM      7  C   UNL     1      -0.152   0.364  -9.651  0.00  0.00    +0.095 A 
ATOM      8  N   UNL     1      -0.276   0.998 -10.853  0.00  0.00    -0.360 N 
ATOM      9  H   UNL     1      -0.256   0.558 -11.717  0.00  0.00    +0.165 HD
ATOM     10  C   UNL     1      -0.433   2.354 -10.662  0.00  0.00    +0.047 A 
ATOM     11  C   UNL     1      -0.414   2.588  -9.277  0.00  0.00    +0.010 A 
ATOM     12  C   UNL     1      -0.547   3.886  -8.787  0.00  0.00    +0.011 A 
ATOM     13  C   UNL     1      -0.709   4.934  -9.666  0.00  0.00    +0.001 A 
ATOM     14  C   UNL     1      -0.733   4.703 -11.034  0.00  0.00    +0.002 A 
ATOM     15  C   UNL     1      -0.597   3.426 -11.533  0.00  0.00    +0.026 A 
ENDBRANCH   4   6
BRANCH   5  16
ATOM     16  C   UNL     1      -0.116  -1.550  -7.272  0.00  0.00    +0.091 C 
ATOM     17  C   UNL     1      -0.424  -2.778  -6.414  0.00  0.00    +0.027 C 
ATOM     18  C   UNL     1       0.997  -2.543  -6.932  0.00  0.00    +0.027 C 
ENDBRANCH   5  16
BRANCH   1  19
ATOM     19  S   UNL     1       0.069  -1.225  -3.985  0.00  0.00    -0.077 S 
BRANCH  19  20
ATOM     20  C   UNL     1       0.152  -0.151  -2.530  0.00  0.00    +0.173 C 
BRANCH  20  23
ATOM     21  C   UNL     1       0.301   1.052   0.031  0.00  0.00    +0.133 C 
ATOM     22  N   UNL     1       0.301  -0.409  -0.075  0.00  0.00    -0.285 N 
ATOM     23  C   UNL     1       0.231  -0.997  -1.286  0.00  0.00    +0.227 C 
ATOM     24  O   UNL     1       0.231  -2.207  -1.373  0.00  0.00    -0.275 OA
BRANCH  22  25
ATOM     25  C   UNL     1       0.378  -1.231   1.135  0.00  0.00    +0.123 C 
ATOM     26  C   UNL     1      -0.864  -2.120   1.228  0.00  0.00    +0.041 C 
ATOM     27  C   UNL     1      -0.784  -2.979   2.491  0.00  0.00    +0.003 C 
ATOM     28  C   UNL     1      -0.714  -2.071   3.721  0.00  0.00    +0.000 C 
ATOM     29  C   UNL     1       0.528  -1.183   3.629  0.00  0.00    +0.003 C 
ATOM     30  C   UNL     1       0.448  -0.324   2.365  0.00  0.00    +0.041 C 
BRANCH  25  31
ATOM     31  C   UNL     1       1.582  -2.076   1.079  0.00  0.00    +0.089 C 
ATOM     32  N   UNL     1       2.512  -2.728   1.036  0.00  0.00    -0.194 NA
ENDBRANCH  25  31
ENDBRANCH  22  25
ENDBRANCH  20  23
ENDBRANCH  19  20
ENDBRANCH   1  19
TORSDOF 7
