REMARK  Name = ZINC14462734
REMARK  6 active torsions:
REMARK  status: ('A' for Active; 'I' for Inactive)
REMARK    1  A    between atoms: C_1  and  C_2
REMARK    2  A    between atoms: C_2  and  C_3
REMARK    3  A    between atoms: C_2  and  C_4
REMARK    4  A    between atoms: C_7  and  C_10
REMARK    5  A    between atoms: C_21  and  N_27
REMARK    6  A    between atoms: C_23  and  O_26
REMARK                            x       y       z     vdW  Elec       q    Type
REMARK                         _______ _______ _______ _____ _____    ______ ____
ROOT
ATOM      1  C   UNL     1      -0.076   5.774   0.034  0.00  0.00    +0.105 C 
ATOM      2  C   UNL     1      -0.317   6.279   1.442  0.00  0.00    +0.029 C 
ATOM      3  C   UNL     1       0.747   5.982   2.504  0.00  0.00    +0.033 C 
ATOM      4  C   UNL     1       0.584   7.181   3.442  0.00  0.00    -0.030 C 
ATOM      5  C   UNL     1       0.088   8.216   2.771  0.00  0.00    -0.023 C 
ATOM      6  C   UNL     1      -0.084   7.819   1.352  0.00  0.00    +0.049 C 
ATOM      7  C   UNL     1      -1.162   8.364   0.498  0.00  0.00    -0.014 A 
ATOM      8  C   UNL     1      -1.690   9.622   0.709  0.00  0.00    +0.039 A 
ATOM      9  C   UNL     1      -2.687  10.113  -0.112  0.00  0.00    +0.130 A 
ATOM     10  C   UNL     1      -3.159   9.337  -1.155  0.00  0.00    +0.080 A 
ATOM     11  C   UNL     1      -2.641   8.075  -1.371  0.00  0.00    +0.140 A 
ATOM     12  C   UNL     1      -1.636   7.562  -0.542  0.00  0.00    +0.074 A 
ATOM     13  N   UNL     1      -1.187   6.266  -0.798  0.00  0.00    -0.334 N 
ATOM     14  H   UNL     1      -0.988   6.139  -1.778  0.00  0.00    +0.147 HD
ENDROOT
BRANCH   1  18
ATOM     15  C   UNL     1      -0.018   1.503   0.010  0.00  0.00    -0.045 A 
ATOM     16  C   UNL     1      -1.225   2.178   0.020  0.00  0.00    +0.004 A 
ATOM     17  C   UNL     1      -1.244   3.560   0.033  0.00  0.00    +0.006 A 
ATOM     18  C   UNL     1      -0.056   4.267   0.025  0.00  0.00    -0.027 A 
ATOM     19  C   UNL     1       1.151   3.592   0.010  0.00  0.00    +0.006 A 
ATOM     20  C   UNL     1       1.169   2.210   0.003  0.00  0.00    +0.004 A 
BRANCH  15  22
ATOM     21  C   UNL     1      -0.700  -0.530   1.255  0.00  0.00    +0.012 C 
ATOM     22  C   UNL     1       0.002  -0.004   0.002  0.00  0.00    +0.013 C 
ATOM     23  C   UNL     1      -0.724  -0.517  -1.243  0.00  0.00    +0.012 C 
ENDBRANCH  15  22
ENDBRANCH   1  18
BRANCH   9  24
ATOM     24  N   UNL     1      -3.247  11.462   0.124  0.00  0.00    +0.057 N 
ATOM     25  O   UNL     1      -2.829  12.143   1.044  0.00  0.00    -0.126 OA
ATOM     26  O   UNL     1      -4.126  11.892  -0.601  0.00  0.00    -0.126 OA
ENDBRANCH   9  24
BRANCH  11  27
ATOM     27  O   UNL     1      -3.113   7.322  -2.401  0.00  0.00    -0.505 OA
ATOM     28  H   UNL     1      -2.634   7.448  -3.232  0.00  0.00    +0.292 HD
ENDBRANCH  11  27
TORSDOF 4
