REMARK  Name = ZINC67156419
REMARK  7 active torsions:
REMARK  status: ('A' for Active; 'I' for Inactive)
REMARK    1  A    between atoms: C_1  and  C_2
REMARK    2  A    between atoms: C_2  and  C_4
REMARK    3  A    between atoms: C_2  and  N_16
REMARK    4  A    between atoms: C_4  and  C_5
REMARK    5  A    between atoms: N_7  and  C_8
REMARK    6  A    between atoms: C_13  and  O_14
REMARK    7  A    between atoms: C_17  and  C_19
REMARK                            x       y       z     vdW  Elec       q    Type
REMARK                         _______ _______ _______ _____ _____    ______ ____
ROOT
ATOM      1  C   UNL     1      -1.432  -0.536   0.032  0.00  0.00    +0.118 C 
ENDROOT
BRANCH   1   2
ATOM      2  C   UNL     1      -1.415  -2.036  -0.112  0.00  0.00    +0.219 C 
ATOM      3  O   UNL     1      -0.359  -2.624  -0.209  0.00  0.00    -0.275 OA
ATOM      4  N   UNL     1      -2.574  -2.724  -0.133  0.00  0.00    -0.283 N 
ATOM      5  H   UNL     1      -3.415  -2.261   0.009  0.00  0.00    +0.155 HD
BRANCH   4   6
ATOM      6  C   UNL     1      -2.565  -4.106  -0.361  0.00  0.00    +0.077 A 
ATOM      7  C   UNL     1      -1.522  -4.883   0.123  0.00  0.00    +0.047 A 
ATOM      8  C   UNL     1      -1.516  -6.247  -0.103  0.00  0.00    +0.043 A 
ATOM      9  C   UNL     1      -2.546  -6.840  -0.811  0.00  0.00    +0.023 A 
ATOM     10  C   UNL     1      -3.588  -6.071  -1.296  0.00  0.00    +0.049 A 
ATOM     11  C   UNL     1      -3.605  -4.704  -1.069  0.00  0.00    +0.138 A 
ATOM     12 CL   UNL     1      -0.210  -7.219   0.503  0.00  0.00    -0.083 Cl
BRANCH  11  13
ATOM     13  O   UNL     1      -4.632  -3.948  -1.540  0.00  0.00    -0.505 OA
ATOM     14  H   UNL     1      -4.488  -3.602  -2.431  0.00  0.00    +0.292 HD
ENDBRANCH  11  13
ENDBRANCH   4   6
ENDBRANCH   1   2
BRANCH   1  16
ATOM     15  C   UNL     1      -0.015   1.522   0.049  0.00  0.00    +0.028 C 
ATOM     16  C   UNL     1       0.004  -0.008   0.028  0.00  0.00    +0.079 C 
BRANCH  16  17
ATOM     17  N   UNL     1       0.711  -0.503   1.212  0.00  0.00    -0.312 N 
ATOM     18  C   UNL     1       2.054  -0.615   1.197  0.00  0.00    +0.216 C 
ATOM     19  O   UNL     1       2.678  -0.305   0.204  0.00  0.00    -0.276 OA
ATOM     20  H   UNL     1       0.212  -0.751   2.006  0.00  0.00    +0.149 HD
BRANCH  18  21
ATOM     21  C   UNL     1       2.781  -1.125   2.415  0.00  0.00    +0.075 C 
ATOM     22  C   UNL     1       2.499  -0.200   3.601  0.00  0.00    +0.013 C 
ATOM     23  C   UNL     1       3.237  -0.718   4.838  0.00  0.00    +0.001 C 
ATOM     24  C   UNL     1       4.741  -0.746   4.559  0.00  0.00    +0.000 C 
ATOM     25  C   UNL     1       5.023  -1.671   3.373  0.00  0.00    +0.001 C 
ATOM     26  C   UNL     1       4.285  -1.153   2.136  0.00  0.00    +0.013 C 
ENDBRANCH  18  21
ENDBRANCH  16  17
ENDBRANCH   1  16
TORSDOF 6
