REMARK  Name = ZINC53146138
REMARK  4 active torsions:
REMARK  status: ('A' for Active; 'I' for Inactive)
REMARK    1  A    between atoms: C_3  and  O_17
REMARK    2  A    between atoms: C_6  and  C_7
REMARK    3  A    between atoms: C_13  and  N_16
REMARK    4  A    between atoms: O_17  and  C_18
REMARK                            x       y       z     vdW  Elec       q    Type
REMARK                         _______ _______ _______ _____ _____    ______ ____
ROOT
ATOM      1  C   UNL     1      -1.266  -0.762   0.011  0.00  0.00    +0.169 A 
ATOM      2  N   UNL     1      -2.446  -0.307   0.382  0.00  0.00    -0.128 NA
ATOM      3  N   UNL     1      -3.334  -1.231   0.265  0.00  0.00    -0.129 NA
ATOM      4  C   UNL     1      -2.768  -2.339  -0.193  0.00  0.00    +0.161 A 
ATOM      5  N   UNL     1      -1.435  -2.065  -0.372  0.00  0.00    -0.281 N 
ATOM      6  C   UNL     1      -0.587  -3.024  -0.845  0.00  0.00    +0.117 A 
ATOM      7  C   UNL     1      -1.051  -4.262  -1.148  0.00  0.00    +0.041 A 
ATOM      8  C   UNL     1      -2.416  -4.569  -0.977  0.00  0.00    +0.028 A 
ATOM      9  C   UNL     1      -3.265  -3.620  -0.499  0.00  0.00    +0.050 A 
ENDROOT
BRANCH   1  15
ATOM     10  C   UNL     1       1.071  -0.437  -0.785  0.00  0.00    +0.015 A 
ATOM     11  C   UNL     1       2.252   0.274  -0.791  0.00  0.00    +0.046 A 
ATOM     12  C   UNL     1       2.380   1.418  -0.014  0.00  0.00    +0.127 A 
ATOM     13  C   UNL     1       1.320   1.852   0.770  0.00  0.00    +0.046 A 
ATOM     14  C   UNL     1       0.135   1.147   0.781  0.00  0.00    +0.015 A 
ATOM     15  C   UNL     1       0.002  -0.004   0.002  0.00  0.00    +0.020 A 
BRANCH  12  16
ATOM     16  O   UNL     1       3.547   2.115  -0.022  0.00  0.00    -0.434 OA
BRANCH  16  17
ATOM     17  C   UNL     1       3.610   3.283   0.800  0.00  0.00    +0.541 C 
ATOM     18  F   UNL     1       2.627   4.191   0.396  0.00  0.00    -0.166 F 
ATOM     19  F   UNL     1       3.394   2.925   2.135  0.00  0.00    -0.166 F 
ENDBRANCH  16  17
ENDBRANCH  12  16
ENDBRANCH   1  15
BRANCH   7  20
ATOM     20  N   UNL     1      -0.171  -5.239  -1.633  0.00  0.00    -0.357 N 
ATOM     21  H   UNL     1       0.768  -5.029  -1.751  0.00  0.00    +0.142 HD
ATOM     22  H   UNL     1      -0.502  -6.124  -1.850  0.00  0.00    +0.142 HD
ENDBRANCH   7  20
TORSDOF 4
