REMARK  Name = ZINC06457854
REMARK  16 active torsions:
REMARK  status: ('A' for Active; 'I' for Inactive)
REMARK    1  A    between atoms: C_1  and  C_2
REMARK    2  A    between atoms: C_2  and  N_67
REMARK    3  A    between atoms: C_3  and  C_4
REMARK    4  A    between atoms: C_3  and  N_67
REMARK    5  A    between atoms: C_5  and  C_6
REMARK    6  A    between atoms: C_5  and  N_67
REMARK    7  A    between atoms: C_6  and  N_7
REMARK    8  A    between atoms: C_8  and  C_29
REMARK    9  A    between atoms: C_10  and  C_16
REMARK   10  A    between atoms: C_12  and  O_13
REMARK   11  A    between atoms: C_16  and  C_18
REMARK   12  A    between atoms: C_21  and  O_25
REMARK   13  A    between atoms: C_22  and  C_24
REMARK   14  A    between atoms: O_25  and  C_26
REMARK   15  A    between atoms: C_26  and  C_27
REMARK   16  A    between atoms: C_33  and  N_35
REMARK                            x       y       z     vdW  Elec       q    Type
REMARK                         _______ _______ _______ _____ _____    ______ ____
ROOT
ATOM      1  N   UNL     1      -1.126   0.507  -1.069  0.00  0.00    -0.285 N 
ATOM      2  C   UNL     1      -2.163  -0.460  -1.430  0.00  0.00    +0.144 C 
ATOM      3  C   UNL     1      -2.806   0.046  -2.732  0.00  0.00    +0.071 C 
ATOM      4  C   UNL     1      -2.054   1.321  -3.050  0.00  0.00    +0.188 C 
ATOM      5  C   UNL     1      -1.051   1.501  -1.962  0.00  0.00    +0.282 C 
ATOM      6  O   UNL     1      -0.270   2.427  -1.895  0.00  0.00    -0.267 OA
ENDROOT
BRANCH   2   7
ATOM      7  C   UNL     1      -1.549  -1.818  -1.649  0.00  0.00    -0.020 A 
ATOM      8  C   UNL     1      -0.323  -1.929  -2.279  0.00  0.00    +0.006 A 
ATOM      9  C   UNL     1       0.242  -3.175  -2.476  0.00  0.00    +0.003 A 
ATOM     10  C   UNL     1      -0.421  -4.310  -2.050  0.00  0.00    +0.033 A 
ATOM     11  C   UNL     1      -1.649  -4.200  -1.425  0.00  0.00    +0.127 A 
ATOM     12  C   UNL     1      -2.213  -2.954  -1.224  0.00  0.00    +0.038 A 
BRANCH  11  13
ATOM     13  N   UNL     1      -2.360  -5.416  -0.970  0.00  0.00    +0.056 N 
ATOM     14  O   UNL     1      -3.442  -5.318  -0.418  0.00  0.00    -0.126 OA
ATOM     15  O   UNL     1      -1.863  -6.514  -1.147  0.00  0.00    -0.126 OA
ENDBRANCH  11  13
ENDBRANCH   2   7
BRANCH   4  17
ATOM     16  H   UNL     1      -2.969   1.683  -4.565  0.00  0.00    +0.292 HD
ATOM     17  O   UNL     1      -2.232   2.049  -3.997  0.00  0.00    -0.502 OA
ENDBRANCH   4  17
BRANCH   3  18
ATOM     18  C   UNL     1      -3.856  -0.222  -3.780  0.00  0.00    +0.195 C 
ATOM     19  O   UNL     1      -4.969   0.243  -3.655  0.00  0.00    -0.287 OA
BRANCH  18  20
ATOM     20  C   UNL     1      -3.531  -1.046  -4.951  0.00  0.00    +0.023 A 
ATOM     21  C   UNL     1      -2.246  -1.585  -5.096  0.00  0.00    +0.015 A 
ATOM     22  C   UNL     1      -1.946  -2.351  -6.186  0.00  0.00    +0.046 A 
ATOM     23  C   UNL     1      -2.913  -2.599  -7.155  0.00  0.00    +0.124 A 
ATOM     24  C   UNL     1      -4.191  -2.069  -7.021  0.00  0.00    -0.008 A 
ATOM     25  C   UNL     1      -4.506  -1.301  -5.923  0.00  0.00    +0.018 A 
ATOM     26  C   UNL     1      -5.234  -2.342  -8.074  0.00  0.00    +0.047 C 
BRANCH  23  27
ATOM     27  O   UNL     1      -2.607  -3.361  -8.235  0.00  0.00    -0.488 OA
BRANCH  27  28
ATOM     28  C   UNL     1      -1.275  -3.874  -8.311  0.00  0.00    +0.256 C 
BRANCH  28  29
ATOM     29  C   UNL     1      -1.122  -4.690  -9.569  0.00  0.00    +0.006 C 
ATOM     30  C   UNL     1      -0.061  -4.539 -10.323  0.00  0.00    +0.007 C 
ENDBRANCH  28  29
ENDBRANCH  27  28
ENDBRANCH  23  27
ENDBRANCH  18  20
ENDBRANCH   3  18
BRANCH   1  31
ATOM     31  C   UNL     1      -0.273   0.397   0.117  0.00  0.00    +0.090 C 
BRANCH  31  32
ATOM     32  C   UNL     1      -0.939   1.116   1.292  0.00  0.00    -0.060 C 
BRANCH  32  33
ATOM     33  N   UNL     1      -0.077   0.978   2.485  0.00  0.00    +0.380 N 
ATOM     34  H   UNL     1       0.151  -0.014   2.619  0.00  0.00    -0.082 HD
BRANCH  33  36
ATOM     35  C   UNL     1       0.877   3.220   2.066  0.00  0.00    -0.017 C 
ATOM     36  C   UNL     1       1.177   1.737   2.293  0.00  0.00    -0.082 C 
ENDBRANCH  33  36
BRANCH  33  37
ATOM     37  C   UNL     1      -0.789   1.473   3.683  0.00  0.00    -0.082 C 
ATOM     38  C   UNL     1      -0.045   0.993   4.930  0.00  0.00    -0.017 C 
ENDBRANCH  33  37
ENDBRANCH  32  33
ENDBRANCH  31  32
ENDBRANCH   1  31
TORSDOF 13
