REMARK  Name = ZINC07335054
REMARK  6 active torsions:
REMARK  status: ('A' for Active; 'I' for Inactive)
REMARK    1  A    between atoms: C_1  and  C_2
REMARK    2  A    between atoms: C_5  and  C_8
REMARK    3  A    between atoms: C_10  and  C_13
REMARK    4  A    between atoms: C_13  and  N_14
REMARK    5  A    between atoms: C_17  and  C_21
REMARK    6  A    between atoms: C_17  and  C_22
REMARK                            x       y       z     vdW  Elec       q    Type
REMARK                         _______ _______ _______ _____ _____    ______ ____
ROOT
ATOM      1  N   UNL     1      -3.929   0.929   1.811  0.00  0.00    -0.218 N 
ATOM      2  C   UNL     1      -3.583   1.729   0.783  0.00  0.00    +0.251 C 
ATOM      3  O   UNL     1      -4.035   2.823   0.523  0.00  0.00    -0.272 OA
ATOM      4  C   UNL     1      -2.513   0.975   0.019  0.00  0.00    +0.135 C 
ATOM      5  N   UNL     1      -2.365  -0.282   0.773  0.00  0.00    -0.281 N 
ATOM      6  C   UNL     1      -3.233  -0.213   1.803  0.00  0.00    +0.310 C 
ATOM      7  O   UNL     1      -3.369  -1.093   2.631  0.00  0.00    -0.252 OA
ATOM      8  C   UNL     1      -2.971   0.692  -1.413  0.00  0.00    +0.047 C 
ATOM      9  H   UNL     1      -1.761  -1.013   0.569  0.00  0.00    +0.152 HD
ENDROOT
BRANCH   4  10
ATOM     10  C   UNL     1      -1.219   1.748   0.017  0.00  0.00    -0.015 A 
ATOM     11  C   UNL     1      -1.239   3.130   0.030  0.00  0.00    +0.006 A 
ATOM     12  C   UNL     1      -0.052   3.836   0.022  0.00  0.00    +0.004 A 
ATOM     13  C   UNL     1       1.159   3.164   0.008  0.00  0.00    -0.044 A 
ATOM     14  C   UNL     1       1.179   1.782   0.000  0.00  0.00    -0.044 A 
ATOM     15  C   UNL     1      -0.013   1.076   0.008  0.00  0.00    +0.010 A 
ATOM     16  C   UNL     1       2.610   1.291  -0.016  0.00  0.00    +0.036 C 
ATOM     17  C   UNL     1       3.450   2.509  -0.459  0.00  0.00    +0.009 C 
ATOM     18  C   UNL     1       2.576   3.696  -0.004  0.00  0.00    +0.036 C 
ENDBRANCH   4  10
BRANCH   1  19
ATOM     19  C   UNL     1      -4.942   1.268   2.813  0.00  0.00    +0.174 C 
BRANCH  19  22
ATOM     20  C   UNL     1      -8.207   1.115   1.125  0.00  0.00    +0.109 A 
ATOM     21  N   UNL     1      -7.020   1.523   1.552  0.00  0.00    -0.242 NA
ATOM     22  C   UNL     1      -6.290   0.780   2.350  0.00  0.00    +0.067 A 
ATOM     23  C   UNL     1      -6.755  -0.429   2.763  0.00  0.00    +0.072 A 
ATOM     24  S   UNL     1      -8.337  -0.477   1.929  0.00  0.00    -0.075 S 
BRANCH  20  29
ATOM     25  C   UNL     1     -11.942   3.760  -2.363  0.00  0.00    +0.044 C 
ATOM     26  C   UNL     1     -10.964   3.068  -1.449  0.00  0.00    -0.050 A 
ATOM     27  C   UNL     1     -11.270   1.823  -0.930  0.00  0.00    +0.004 A 
ATOM     28  C   UNL     1     -10.379   1.183  -0.093  0.00  0.00    +0.011 A 
ATOM     29  C   UNL     1      -9.167   1.795   0.229  0.00  0.00    +0.007 A 
ATOM     30  C   UNL     1      -8.867   3.053  -0.294  0.00  0.00    +0.011 A 
ATOM     31  C   UNL     1      -9.764   3.680  -1.134  0.00  0.00    +0.004 A 
ENDBRANCH  20  29
ENDBRANCH  19  22
ENDBRANCH   1  19
TORSDOF 4
