REMARK  Name = ZINC34899722
REMARK  7 active torsions:
REMARK  status: ('A' for Active; 'I' for Inactive)
REMARK    1  A    between atoms: C_1  and  C_2
REMARK    2  A    between atoms: C_7  and  C_8
REMARK    3  A    between atoms: N_10  and  C_11
REMARK    4  A    between atoms: C_17  and  N_19
REMARK    5  A    between atoms: C_20  and  C_22
REMARK    6  A    between atoms: C_28  and  C_30
REMARK    7  A    between atoms: C_35  and  C_36
REMARK                            x       y       z     vdW  Elec       q    Type
REMARK                         _______ _______ _______ _____ _____    ______ ____
ROOT
ATOM      1  N   UNL     1      -1.202  -1.306   5.922  0.00  0.00    -0.310 N 
ATOM      2  C   UNL     1      -1.588  -2.476   6.468  0.00  0.00    +0.216 C 
ATOM      3  O   UNL     1      -0.799  -3.133   7.113  0.00  0.00    -0.276 OA
ATOM      4  H   UNL     1      -1.833  -0.780   5.406  0.00  0.00    +0.149 HD
ENDROOT
BRANCH   2   5
ATOM      5  C   UNL     1      -2.999  -2.967   6.276  0.00  0.00    +0.078 C 
ATOM      6  C   UNL     1      -3.279  -3.144   4.782  0.00  0.00    +0.032 C 
ATOM      7  C   UNL     1      -4.726  -3.611   4.589  0.00  0.00    +0.109 C 
ATOM      8  N   UNL     1      -4.943  -4.822   5.391  0.00  0.00    -0.297 N 
ATOM      9  C   UNL     1      -4.619  -4.788   6.824  0.00  0.00    +0.109 C 
ATOM     10  C   UNL     1      -3.174  -4.309   6.992  0.00  0.00    +0.032 C 
ATOM     11  C   UNL     1      -5.430  -5.944   4.824  0.00  0.00    +0.247 C 
ATOM     12  O   UNL     1      -5.604  -5.990   3.621  0.00  0.00    -0.270 OA
BRANCH  11  13
ATOM     13  C   UNL     1      -5.753  -7.117   5.663  0.00  0.00    +0.040 A 
ATOM     14  C   UNL     1      -6.611  -6.982   6.756  0.00  0.00    +0.013 A 
ATOM     15  C   UNL     1      -6.909  -8.081   7.535  0.00  0.00    +0.001 A 
ATOM     16  C   UNL     1      -6.358  -9.315   7.236  0.00  0.00    +0.000 A 
ATOM     17  C   UNL     1      -5.506  -9.455   6.154  0.00  0.00    +0.004 A 
ATOM     18  C   UNL     1      -5.205  -8.365   5.363  0.00  0.00    -0.038 A 
ATOM     19  C   UNL     1      -4.282  -8.521   4.182  0.00  0.00    +0.044 C 
ENDBRANCH  11  13
ENDBRANCH   2   5
BRANCH   1  25
ATOM     20  C   UNL     1       0.544   0.111   4.959  0.00  0.00    +0.093 C 
ATOM     21  C   UNL     1       1.977   0.610   5.154  0.00  0.00    +0.024 C 
ATOM     22  C   UNL     1       2.079   1.364   6.481  0.00  0.00    +0.002 C 
ATOM     23  C   UNL     1       1.705   0.425   7.630  0.00  0.00    +0.002 C 
ATOM     24  C   UNL     1       0.272  -0.074   7.436  0.00  0.00    +0.024 C 
ATOM     25  C   UNL     1       0.170  -0.828   6.108  0.00  0.00    +0.093 C 
BRANCH  20  28
ATOM     26  C   UNL     1       0.229   0.066   2.543  0.00  0.00    +0.245 C 
ATOM     27  O   UNL     1       0.113   1.276   2.566  0.00  0.00    -0.270 OA
ATOM     28  N   UNL     1       0.447  -0.611   3.688  0.00  0.00    -0.307 N 
ATOM     29  H   UNL     1       0.539  -1.576   3.670  0.00  0.00    +0.149 HD
BRANCH  26  36
ATOM     30  C   UNL     1      -0.061   1.548   0.075  0.00  0.00    +0.044 C 
ATOM     31  C   UNL     1      -0.009   0.042   0.064  0.00  0.00    -0.038 A 
ATOM     32  C   UNL     1      -0.095  -0.644  -1.131  0.00  0.00    +0.004 A 
ATOM     33  C   UNL     1      -0.047  -2.026  -1.143  0.00  0.00    +0.000 A 
ATOM     34  C   UNL     1       0.086  -2.731   0.041  0.00  0.00    +0.001 A 
ATOM     35  C   UNL     1       0.173  -2.057   1.242  0.00  0.00    +0.013 A 
ATOM     36  C   UNL     1       0.131  -0.662   1.261  0.00  0.00    +0.040 A 
ENDBRANCH  26  36
ENDBRANCH  20  28
ENDBRANCH   1  25
TORSDOF 5
