REMARK  Name = ZINC39734152
REMARK  5 active torsions:
REMARK  status: ('A' for Active; 'I' for Inactive)
REMARK    1  A    between atoms: C_4  and  C_7
REMARK    2  A    between atoms: C_7  and  N_8
REMARK    3  A    between atoms: C_17  and  C_19
REMARK    4  A    between atoms: N_24  and  S_25
REMARK    5  A    between atoms: S_25  and  C_28
REMARK                            x       y       z     vdW  Elec       q    Type
REMARK                         _______ _______ _______ _____ _____    ______ ____
ROOT
ATOM      1  N   UNL     1       4.153  -0.953   1.342  0.00  0.00    +0.386 N 
ATOM      2  C   UNL     1       5.490  -1.560   1.326  0.00  0.00    -0.072 C 
ATOM      3  C   UNL     1       6.102  -1.541   2.731  0.00  0.00    +0.038 C 
ATOM      4  C   UNL     1       5.097  -2.169   3.687  0.00  0.00    +0.050 A 
ATOM      5  C   UNL     1       3.798  -2.293   3.304  0.00  0.00    -0.002 A 
ATOM      6  S   UNL     1       3.053  -3.059   4.714  0.00  0.00    -0.059 S 
ATOM      7  C   UNL     1       4.440  -3.157   5.668  0.00  0.00    +0.165 A 
ATOM      8  N   UNL     1       5.369  -2.626   4.903  0.00  0.00    -0.229 NA
ATOM      9  N   UNL     1       4.570  -3.674   6.952  0.00  0.00    -0.263 N 
ATOM     10  C   UNL     1       5.771  -3.667   7.563  0.00  0.00    +0.238 C 
ATOM     11  O   UNL     1       6.739  -3.210   6.992  0.00  0.00    -0.274 OA
ATOM     12  C   UNL     1       3.203  -1.867   2.007  0.00  0.00    -0.033 C 
ATOM     13  H   UNL     1       3.796  -4.039   7.409  0.00  0.00    +0.157 HD
ATOM     14  H   UNL     1       4.187  -0.079   1.845  0.00  0.00    -0.081 HD
ENDROOT
BRANCH  10  15
ATOM     15  C   UNL     1       5.912  -4.227   8.955  0.00  0.00    +0.166 C 
ATOM     16  C   UNL     1       5.035  -3.421   9.936  0.00  0.00    +0.031 C 
ATOM     17  C   UNL     1       5.916  -3.349  11.211  0.00  0.00    +0.019 C 
ATOM     18  C   UNL     1       7.335  -3.234  10.601  0.00  0.00    +0.110 C 
ATOM     19  N   UNL     1       7.305  -4.101   9.406  0.00  0.00    -0.164 NA
BRANCH  19  20
ATOM     20  S   UNL     1       8.619  -4.814   8.692  0.00  0.00    +0.068 S 
ATOM     21  O   UNL     1       9.621  -4.915   9.695  0.00  0.00    -0.152 OA
ATOM     22  O   UNL     1       8.132  -5.946   7.984  0.00  0.00    -0.152 OA
BRANCH  20  23
ATOM     23  C   UNL     1       9.229  -3.687   7.482  0.00  0.00    +0.144 A 
ATOM     24  C   UNL     1      10.158  -2.710   7.618  0.00  0.00    +0.038 A 
ATOM     25  C   UNL     1      10.485  -1.938   6.519  0.00  0.00    +0.030 A 
ATOM     26  C   UNL     1       9.866  -2.183   5.337  0.00  0.00    +0.080 A 
ATOM     27  S   UNL     1       8.790  -3.543   5.758  0.00  0.00    -0.057 S 
ATOM     28 CL   UNL     1      10.072  -1.384   3.809  0.00  0.00    -0.076 Cl
ENDBRANCH  20  23
ENDBRANCH  19  20
ENDBRANCH  10  15
BRANCH   1  29
ATOM     29  C   UNL     1       3.711  -0.707  -0.038  0.00  0.00    -0.043 C 
BRANCH  29  33
ATOM     30  C   UNL     1      -0.017   1.378   0.010  0.00  0.00    +0.000 A 
ATOM     31  C   UNL     1       1.171   2.086   0.002  0.00  0.00    +0.000 A 
ATOM     32  C   UNL     1       2.377   1.411  -0.013  0.00  0.00    +0.002 A 
ATOM     33  C   UNL     1       2.396   0.029  -0.020  0.00  0.00    -0.064 A 
ATOM     34  C   UNL     1       1.208  -0.679  -0.012  0.00  0.00    +0.002 A 
ATOM     35  C   UNL     1       0.002  -0.004   0.002  0.00  0.00    +0.000 A 
ENDBRANCH  29  33
ENDBRANCH   1  29
TORSDOF 5
