REMARK  Name = ZINC16647667
REMARK  10 active torsions:
REMARK  status: ('A' for Active; 'I' for Inactive)
REMARK    1  A    between atoms: C_1  and  C_2
REMARK    2  A    between atoms: C_2  and  C_3
REMARK    3  A    between atoms: C_3  and  C_5
REMARK    4  A    between atoms: C_3  and  C_6
REMARK    5  A    between atoms: C_6  and  N_7
REMARK    6  A    between atoms: C_8  and  C_10
REMARK    7  A    between atoms: C_10  and  N_11
REMARK    8  A    between atoms: N_13  and  C_34
REMARK    9  A    between atoms: C_22  and  C_24
REMARK   10  A    between atoms: C_27  and  C_30
REMARK                            x       y       z     vdW  Elec       q    Type
REMARK                         _______ _______ _______ _____ _____    ______ ____
ROOT
ATOM      1  N   UNL     1      -2.231   1.031  -0.528  0.00  0.00    -0.275 N 
ATOM      2  C   UNL     1      -1.180   0.101  -0.097  0.00  0.00    +0.217 C 
ATOM      3  N   UNL     1      -0.178   0.917   0.627  0.00  0.00    -0.300 N 
ATOM      4  C   UNL     1      -0.342   2.258   0.028  0.00  0.00    +0.115 C 
ATOM      5  C   UNL     1      -1.765   2.297  -0.473  0.00  0.00    +0.241 C 
ATOM      6  O   UNL     1      -2.382   3.294  -0.780  0.00  0.00    -0.273 OA
ATOM      7  C   UNL     1      -0.122   3.334   1.086  0.00  0.00    +0.054 C 
ATOM      8  C   UNL     1      -0.346   4.716   0.461  0.00  0.00    +0.110 C 
ATOM      9  N   UNL     1       0.506   4.838  -0.730  0.00  0.00    -0.297 N 
ATOM     10  C   UNL     1       0.416   3.809  -1.774  0.00  0.00    +0.110 C 
ATOM     11  C   UNL     1       0.635   2.435  -1.131  0.00  0.00    +0.054 C 
ATOM     12  C   UNL     1       1.355   5.877  -0.862  0.00  0.00    +0.247 C 
ATOM     13  O   UNL     1       1.976   6.027  -1.896  0.00  0.00    -0.270 OA
ENDROOT
BRANCH  12  14
ATOM     14  C   UNL     1       1.531   6.834   0.252  0.00  0.00    +0.037 A 
ATOM     15  C   UNL     1       1.445   6.394   1.574  0.00  0.00    +0.013 A 
ATOM     16  C   UNL     1       1.614   7.292   2.608  0.00  0.00    +0.013 A 
ATOM     17  C   UNL     1       1.859   8.626   2.337  0.00  0.00    +0.055 A 
ATOM     18  C   UNL     1       1.940   9.069   1.028  0.00  0.00    +0.013 A 
ATOM     19  C   UNL     1       1.778   8.181  -0.015  0.00  0.00    +0.013 A 
BRANCH  17  20
ATOM     20  C   UNL     1       2.037   9.602   3.471  0.00  0.00    +0.417 C 
ATOM     21  F   UNL     1       0.795  10.142   3.822  0.00  0.00    -0.166 F 
ATOM     22  F   UNL     1       2.586   8.939   4.574  0.00  0.00    -0.166 F 
ATOM     23  F   UNL     1       2.897  10.631   3.071  0.00  0.00    -0.166 F 
ENDBRANCH  17  20
ENDBRANCH  12  14
BRANCH   3  24
ATOM     24  C   UNL     1       1.113   0.428   0.416  0.00  0.00    +0.032 A 
ATOM     25  C   UNL     1       1.301  -0.775  -0.253  0.00  0.00    +0.023 A 
ATOM     26  C   UNL     1       2.580  -1.253  -0.465  0.00  0.00    +0.002 A 
ATOM     27  C   UNL     1       3.671  -0.541  -0.003  0.00  0.00    +0.000 A 
ATOM     28  C   UNL     1       3.487   0.654   0.668  0.00  0.00    +0.002 A 
ATOM     29  C   UNL     1       2.212   1.141   0.879  0.00  0.00    +0.023 A 
ENDBRANCH   3  24
BRANCH   1  30
ATOM     30  C   UNL     1      -3.579   0.645  -0.952  0.00  0.00    +0.205 C 
BRANCH  30  32
ATOM     31  N   UNL     1      -4.729   0.036  -3.056  0.00  0.00    -0.314 N 
ATOM     32  C   UNL     1      -3.588   0.404  -2.440  0.00  0.00    +0.230 C 
ATOM     33  O   UNL     1      -2.569   0.541  -3.083  0.00  0.00    -0.274 OA
ATOM     34  H   UNL     1      -5.544  -0.073  -2.542  0.00  0.00    +0.149 HD
BRANCH  31  35
ATOM     35  C   UNL     1      -4.738  -0.198  -4.502  0.00  0.00    +0.107 C 
BRANCH  35  36
ATOM     36  C   UNL     1      -6.146  -0.601  -4.945  0.00  0.00    +0.003 C 
ATOM     37  C   UNL     1      -6.513  -1.946  -4.315  0.00  0.00    +0.009 C 
BRANCH  36  39
ATOM     38  C   UNL     1      -7.619  -1.005  -6.922  0.00  0.00    +0.004 C 
ATOM     39  C   UNL     1      -6.185  -0.724  -6.470  0.00  0.00    +0.001 C 
ENDBRANCH  36  39
ENDBRANCH  35  36
ENDBRANCH  31  35
ENDBRANCH  30  32
ENDBRANCH   1  30
TORSDOF 8
