REMARK  Name = ZINC15851299
REMARK  8 active torsions:
REMARK  status: ('A' for Active; 'I' for Inactive)
REMARK    1  A    between atoms: C_1  and  C_2
REMARK    2  A    between atoms: C_2  and  C_4
REMARK    3  A    between atoms: C_2  and  O_15
REMARK    4  A    between atoms: N_9  and  C_10
REMARK    5  A    between atoms: O_15  and  C_16
REMARK    6  A    between atoms: C_16  and  C_18
REMARK    7  A    between atoms: C_21  and  S_24
REMARK    8  A    between atoms: S_24  and  N_27
REMARK                            x       y       z     vdW  Elec       q    Type
REMARK                         _______ _______ _______ _____ _____    ______ ____
ROOT
ATOM      1  C   UNL     1      10.968   4.229   2.218  0.00  0.00    +0.059 A 
ATOM      2  C   UNL     1      10.659   4.280   3.579  0.00  0.00    +0.017 A 
ATOM      3  C   UNL     1      11.471   4.986   4.441  0.00  0.00    +0.029 A 
ATOM      4  C   UNL     1      12.585   5.651   3.959  0.00  0.00    +0.106 A 
ATOM      5  C   UNL     1      12.894   5.609   2.611  0.00  0.00    +0.029 A 
ATOM      6  C   UNL     1      12.093   4.903   1.738  0.00  0.00    +0.017 A 
ENDROOT
BRANCH   4   7
ATOM      7  S   UNL     1      13.613   6.557   5.067  0.00  0.00    +0.061 S 
ATOM      8  O   UNL     1      13.418   5.992   6.356  0.00  0.00    -0.153 OA
ATOM      9  O   UNL     1      14.894   6.639   4.457  0.00  0.00    -0.153 OA
BRANCH   7  10
ATOM     10  N   UNL     1      13.020   8.102   5.133  0.00  0.00    -0.172 NA
ATOM     11  C   UNL     1      13.496   9.145   4.209  0.00  0.00    +0.114 C 
ATOM     12  C   UNL     1      12.310   9.566   3.334  0.00  0.00    +0.052 C 
ATOM     13  C   UNL     1      11.088   9.823   4.177  0.00  0.00    -0.042 A 
ATOM     14  C   UNL     1      10.075  10.597   3.624  0.00  0.00    +0.004 A 
ATOM     15  C   UNL     1       8.925  10.860   4.337  0.00  0.00    +0.000 A 
ATOM     16  C   UNL     1       8.775  10.351   5.614  0.00  0.00    +0.000 A 
ATOM     17  C   UNL     1       9.781   9.586   6.167  0.00  0.00    +0.005 A 
ATOM     18  C   UNL     1      10.941   9.323   5.452  0.00  0.00    -0.028 A 
ATOM     19  C   UNL     1      12.005   8.488   6.119  0.00  0.00    +0.144 C 
ENDBRANCH   7  10
ENDBRANCH   4   7
BRANCH   1  20
ATOM     20  C   UNL     1      10.105   3.471   1.289  0.00  0.00    +0.340 C 
ATOM     21  O   UNL     1      10.373   3.433   0.105  0.00  0.00    -0.245 OA
BRANCH  20  22
ATOM     22  O   UNL     1       9.020   2.822   1.755  0.00  0.00    -0.449 OA
BRANCH  22  24
ATOM     23  C   UNL     1       8.736   0.664   0.664  0.00  0.00    +0.062 C 
ATOM     24  C   UNL     1       8.218   2.098   0.785  0.00  0.00    +0.259 C 
BRANCH  24  25
ATOM     25  C   UNL     1       6.781   2.076   1.238  0.00  0.00    +0.261 C 
ATOM     26  O   UNL     1       6.464   2.617   2.276  0.00  0.00    -0.271 OA
ATOM     27  N   UNL     1       5.848   1.455   0.490  0.00  0.00    -0.237 N 
ATOM     28  C   UNL     1       4.563   1.435   0.895  0.00  0.00    +0.306 C 
ATOM     29  O   UNL     1       4.245   1.978   1.935  0.00  0.00    -0.252 OA
ATOM     30  N   UNL     1       3.630   0.814   0.146  0.00  0.00    -0.296 N 
ATOM     31  H   UNL     1       6.101   1.022  -0.341  0.00  0.00    +0.159 HD
ATOM     32  H   UNL     1       3.883   0.381  -0.684  0.00  0.00    +0.151 HD
BRANCH  30  33
ATOM     33  C   UNL     1       2.232   0.792   0.586  0.00  0.00    +0.074 C 
ATOM     34  C   UNL     1       1.453   1.995  -0.001  0.00  0.00    +0.022 C 
ATOM     35  C   UNL     1      -0.019   1.534   0.011  0.00  0.00    +0.002 C 
ATOM     36  C   UNL     1       0.002  -0.004   0.002  0.00  0.00    +0.002 C 
ATOM     37  C   UNL     1       1.486  -0.425  -0.014  0.00  0.00    +0.022 C 
ENDBRANCH  30  33
ENDBRANCH  24  25
ENDBRANCH  22  24
ENDBRANCH  20  22
ENDBRANCH   1  20
TORSDOF 7
