REMARK  Name = ZINC48796062
REMARK  5 active torsions:
REMARK  status: ('A' for Active; 'I' for Inactive)
REMARK    1  A    between atoms: C_1  and  C_2
REMARK    2  A    between atoms: C_2  and  N_3
REMARK    3  A    between atoms: C_5  and  N_10
REMARK    4  A    between atoms: C_11  and  C_13
REMARK    5  A    between atoms: C_16  and  C_18
REMARK                            x       y       z     vdW  Elec       q    Type
REMARK                         _______ _______ _______ _____ _____    ______ ____
ROOT
ATOM      1  N   UNL     1       0.689  -0.532  -1.190  0.00  0.00    -0.314 N 
ATOM      2  C   UNL     1      -0.028  -0.750  -2.324  0.00  0.00    +0.112 A 
ATOM      3  C   UNL     1       0.592  -1.140  -3.469  0.00  0.00    +0.050 A 
ATOM      4  C   UNL     1       1.987  -1.318  -3.484  0.00  0.00    +0.030 A 
ATOM      5  C   UNL     1       2.699  -1.097  -2.342  0.00  0.00    +0.072 A 
ATOM      6  C   UNL     1       2.026  -0.690  -1.178  0.00  0.00    +0.251 A 
ATOM      7  O   UNL     1       2.654  -0.485  -0.151  0.00  0.00    -0.268 OA
ENDROOT
BRANCH   3   8
ATOM      8  N   UNL     1      -0.158  -1.363  -4.635  0.00  0.00    -0.284 N 
ATOM      9  C   UNL     1       0.125  -0.678  -5.760  0.00  0.00    +0.221 C 
ATOM     10  O   UNL     1       1.081   0.067  -5.792  0.00  0.00    -0.275 OA
ATOM     11  H   UNL     1      -0.880  -2.011  -4.630  0.00  0.00    +0.155 HD
BRANCH   9  12
ATOM     12  C   UNL     1      -0.747  -0.838  -6.979  0.00  0.00    +0.078 C 
ATOM     13  C   UNL     1      -1.602   0.360  -7.397  0.00  0.00    +0.017 C 
ATOM     14  C   UNL     1      -0.375  -0.032  -8.225  0.00  0.00    -0.002 C 
ATOM     15  C   UNL     1       0.854   0.875  -8.138  0.00  0.00    +0.008 C 
ENDBRANCH   9  12
ENDBRANCH   3   8
BRANCH   1  17
ATOM     16  C   UNL     1      -0.074   1.415   0.079  0.00  0.00    +0.027 C 
ATOM     17  C   UNL     1      -0.002  -0.113   0.033  0.00  0.00    +0.121 C 
ENDBRANCH   1  17
TORSDOF 3
