REMARK  Name = ZINC39695374
REMARK  7 active torsions:
REMARK  status: ('A' for Active; 'I' for Inactive)
REMARK    1  A    between atoms: C_1  and  C_2
REMARK    2  A    between atoms: C_2  and  C_3
REMARK    3  A    between atoms: C_3  and  C_5
REMARK    4  A    between atoms: C_3  and  N_11
REMARK    5  A    between atoms: C_12  and  C_14
REMARK    6  A    between atoms: C_25  and  C_27
REMARK    7  A    between atoms: C_30  and  C_32
REMARK                            x       y       z     vdW  Elec       q    Type
REMARK                         _______ _______ _______ _____ _____    ______ ____
ROOT
ATOM      1  C   UNL     1      -0.633   1.488  -4.304  0.00  0.00    +0.100 C 
ATOM      2  C   UNL     1      -0.439   0.398  -5.382  0.00  0.00    +0.121 C 
ATOM      3  N   UNL     1      -0.355   1.145  -6.659  0.00  0.00    -0.294 N 
ATOM      4  C   UNL     1       0.441   2.352  -6.328  0.00  0.00    +0.115 C 
ATOM      5  C   UNL     1      -0.054   2.768  -4.928  0.00  0.00    -0.004 C 
ATOM      6  C   UNL     1      -1.138   3.835  -5.048  0.00  0.00    -0.010 C 
ATOM      7  C   UNL     1      -0.525   5.117  -5.619  0.00  0.00    -0.082 C 
ATOM      8  N   UNL     1       0.551   5.582  -4.736  0.00  0.00    +0.379 N 
ATOM      9  C   UNL     1       1.633   4.590  -4.700  0.00  0.00    -0.082 C 
ATOM     10  C   UNL     1       1.111   3.285  -4.090  0.00  0.00    -0.010 C 
ATOM     11  C   UNL     1      -0.882   0.804  -7.851  0.00  0.00    +0.282 C 
ATOM     12  O   UNL     1      -0.723   1.529  -8.816  0.00  0.00    -0.267 OA
ATOM     13  H   UNL     1       0.913   6.458  -5.081  0.00  0.00    -0.086 HD
ATOM     14  H   UNL     1       0.187   5.715  -3.805  0.00  0.00    -0.086 HD
ENDROOT
BRANCH  11  15
ATOM     15  C   UNL     1      -1.645  -0.439  -7.987  0.00  0.00    +0.190 A 
ATOM     16  C   UNL     1      -2.230  -0.907  -9.143  0.00  0.00    +0.055 A 
ATOM     17  C   UNL     1      -2.850  -2.118  -8.820  0.00  0.00    +0.051 A 
ATOM     18  C   UNL     1      -2.624  -2.343  -7.492  0.00  0.00    +0.139 A 
ATOM     19  O   UNL     1      -1.893  -1.328  -7.002  0.00  0.00    -0.450 OA
BRANCH  18  20
ATOM     20  C   UNL     1      -3.100  -3.510  -6.724  0.00  0.00    +0.052 A 
ATOM     21  C   UNL     1      -4.440  -3.897  -6.793  0.00  0.00    +0.014 A 
ATOM     22  C   UNL     1      -4.878  -4.989  -6.073  0.00  0.00    +0.001 A 
ATOM     23  C   UNL     1      -3.993  -5.702  -5.282  0.00  0.00    +0.003 A 
ATOM     24  C   UNL     1      -2.664  -5.326  -5.207  0.00  0.00    +0.039 A 
ATOM     25  C   UNL     1      -2.209  -4.238  -5.928  0.00  0.00    +0.134 A 
ATOM     26  F   UNL     1      -0.910  -3.875  -5.859  0.00  0.00    -0.205 F 
ENDBRANCH  18  20
ENDBRANCH  11  15
BRANCH   1  28
ATOM     27  N   UNL     1      -0.277   1.614  -1.859  0.00  0.00    -0.308 N 
ATOM     28  C   UNL     1       0.122   1.127  -3.051  0.00  0.00    +0.219 C 
ATOM     29  O   UNL     1       1.090   0.398  -3.115  0.00  0.00    -0.275 OA
ATOM     30  H   UNL     1      -0.998   2.262  -1.817  0.00  0.00    +0.149 HD
BRANCH  27  31
ATOM     31  C   UNL     1       0.379   1.167  -0.628  0.00  0.00    +0.103 C 
BRANCH  31  32
ATOM     32  C   UNL     1      -0.665   0.869   0.417  0.00  0.00    -0.027 A 
ATOM     33  C   UNL     1      -1.769   1.690   0.545  0.00  0.00    +0.005 A 
ATOM     34  C   UNL     1      -2.727   1.417   1.504  0.00  0.00    +0.000 A 
ATOM     35  C   UNL     1      -2.580   0.322   2.334  0.00  0.00    +0.000 A 
ATOM     36  C   UNL     1      -1.477  -0.501   2.205  0.00  0.00    +0.000 A 
ATOM     37  C   UNL     1      -0.521  -0.230   1.244  0.00  0.00    +0.005 A 
ENDBRANCH  31  32
BRANCH  31  39
ATOM     38  C   UNL     1       2.457   2.467  -1.113  0.00  0.00    +0.006 C 
ATOM     39  C   UNL     1       1.312   2.267  -0.118  0.00  0.00    +0.024 C 
ENDBRANCH  31  39
ENDBRANCH  27  31
ENDBRANCH   1  28
TORSDOF 6
