REMARK  Name = ZINC23021101
REMARK  7 active torsions:
REMARK  status: ('A' for Active; 'I' for Inactive)
REMARK    1  A    between atoms: C_1  and  C_2
REMARK    2  A    between atoms: C_5  and  O_8
REMARK    3  A    between atoms: O_8  and  C_9
REMARK    4  A    between atoms: C_14  and  N_15
REMARK    5  A    between atoms: C_16  and  C_18
REMARK    6  A    between atoms: C_18  and  N_19
REMARK    7  A    between atoms: C_27  and  C_29
REMARK                            x       y       z     vdW  Elec       q    Type
REMARK                         _______ _______ _______ _____ _____    ______ ____
ROOT
ATOM      1  N   UNL     1      -0.159   0.510  -0.293  0.00  0.00    -0.281 N 
ATOM      2  C   UNL     1      -1.419   0.842   0.050  0.00  0.00    +0.235 C 
ATOM      3  O   UNL     1      -1.673   1.974   0.405  0.00  0.00    -0.274 OA
ATOM      4  H   UNL     1       0.057  -0.491  -0.694  0.00  0.00    +0.155 HD
ENDROOT
BRANCH   1  10
ATOM      5  C   UNL     1       2.176   1.005   0.114  0.00  0.00    +0.150 A 
ATOM      6  C   UNL     1       3.198   1.929   0.260  0.00  0.00    +0.049 A 
ATOM      7  C   UNL     1       2.926   3.281   0.166  0.00  0.00    +0.024 A 
ATOM      8  C   UNL     1       1.635   3.716  -0.078  0.00  0.00    +0.043 A 
ATOM      9  C   UNL     1       0.611   2.799  -0.231  0.00  0.00    +0.047 A 
ATOM     10  C   UNL     1       0.877   1.441  -0.139  0.00  0.00    +0.078 A 
ATOM     11 CL   UNL     1       1.301   5.415  -0.194  0.00  0.00    -0.083 Cl
BRANCH   5  12
ATOM     12  O   UNL     1       2.441  -0.326   0.211  0.00  0.00    -0.454 OA
BRANCH  12  17
ATOM     13  C   UNL     1       2.753  -3.315  -4.552  0.00  0.00    +0.044 C 
ATOM     14  C   UNL     1       2.669  -2.515  -3.278  0.00  0.00    -0.050 A 
ATOM     15  C   UNL     1       2.749  -3.155  -2.055  0.00  0.00    +0.007 A 
ATOM     16  C   UNL     1       2.673  -2.425  -0.885  0.00  0.00    +0.046 A 
ATOM     17  C   UNL     1       2.516  -1.047  -0.938  0.00  0.00    +0.129 A 
ATOM     18  C   UNL     1       2.430  -0.408  -2.167  0.00  0.00    +0.046 A 
ATOM     19  C   UNL     1       2.513  -1.143  -3.333  0.00  0.00    +0.007 A 
ENDBRANCH  12  17
ENDBRANCH   5  12
ENDBRANCH   1  10
BRANCH   2  20
ATOM     20  C   UNL     1      -2.513  -0.193  -0.008  0.00  0.00    +0.214 C 
BRANCH  20  21
ATOM     21  N   UNL     1      -3.780   0.412   0.409  0.00  0.00    -0.215 N 
ATOM     22  C   UNL     1      -4.226   0.437   1.683  0.00  0.00    +0.247 C 
ATOM     23  O   UNL     1      -3.675  -0.019   2.662  0.00  0.00    -0.273 OA
ATOM     24  C   UNL     1      -5.555   1.155   1.632  0.00  0.00    +0.115 C 
ATOM     25  C   UNL     1      -6.672   0.235   2.112  0.00  0.00    +0.035 C 
ATOM     26  C   UNL     1      -8.013   0.966   2.018  0.00  0.00    +0.003 C 
ATOM     27  C   UNL     1      -7.965   2.231   2.878  0.00  0.00    +0.000 C 
ATOM     28  C   UNL     1      -6.854   3.153   2.371  0.00  0.00    +0.006 C 
ATOM     29  C   UNL     1      -5.508   2.429   2.467  0.00  0.00    +0.018 C 
ATOM     30  C   UNL     1      -4.400   3.344   1.942  0.00  0.00    +0.010 C 
ATOM     31  N   UNL     1      -5.731   1.478   0.210  0.00  0.00    -0.285 N 
ATOM     32  C   UNL     1      -4.643   1.004  -0.426  0.00  0.00    +0.310 C 
ATOM     33  O   UNL     1      -4.463   1.103  -1.624  0.00  0.00    -0.252 OA
ATOM     34  H   UNL     1      -6.633   2.011  -0.125  0.00  0.00    +0.151 HD
ENDBRANCH  20  21
ENDBRANCH   2  20
TORSDOF 5
