REMARK  Name = ZINC59801169
REMARK  6 active torsions:
REMARK  status: ('A' for Active; 'I' for Inactive)
REMARK    1  A    between atoms: C_1  and  C_2
REMARK    2  A    between atoms: C_5  and  C_25
REMARK    3  A    between atoms: C_10  and  C_12
REMARK    4  A    between atoms: C_12  and  N_13
REMARK    5  A    between atoms: N_13  and  C_14
REMARK    6  A    between atoms: C_19  and  N_20
REMARK                            x       y       z     vdW  Elec       q    Type
REMARK                         _______ _______ _______ _____ _____    ______ ____
ROOT
ATOM      1  N   UNL     1       4.147  -3.139   1.474  0.00  0.00    -0.334 N 
ATOM      2  H   UNL     1       3.877  -4.056   1.637  0.00  0.00    +0.147 HD
ENDROOT
BRANCH   1   3
ATOM      3  C   UNL     1       5.488  -2.770   1.611  0.00  0.00    +0.053 A 
ATOM      4  C   UNL     1       5.860  -1.439   1.492  0.00  0.00    +0.025 A 
ATOM      5  C   UNL     1       7.186  -1.077   1.628  0.00  0.00    +0.002 A 
ATOM      6  C   UNL     1       8.147  -2.039   1.884  0.00  0.00    +0.002 A 
ATOM      7  C   UNL     1       7.786  -3.367   2.005  0.00  0.00    +0.029 A 
ATOM      8  C   UNL     1       6.456  -3.739   1.875  0.00  0.00    +0.086 A 
BRANCH   8   9
ATOM      9  N   UNL     1       6.087  -5.086   2.002  0.00  0.00    -0.238 N 
ATOM     10  C   UNL     1       6.468  -5.926   2.991  0.00  0.00    +0.114 A 
ATOM     11  C   UNL     1       5.899  -7.130   2.751  0.00  0.00    +0.041 A 
ATOM     12  C   UNL     1       5.145  -7.024   1.578  0.00  0.00    +0.135 A 
ATOM     13  N   UNL     1       5.252  -5.798   1.131  0.00  0.00    -0.175 NA
ENDBRANCH   8   9
ENDBRANCH   1   3
BRANCH   1  14
ATOM     14  C   UNL     1       3.149  -2.139   1.085  0.00  0.00    +0.197 C 
BRANCH  14  22
ATOM     15  C   UNL     1       0.233   1.155  -1.281  0.00  0.00    +0.009 C 
ATOM     16  C   UNL     1       0.226  -0.351  -1.009  0.00  0.00    +0.004 C 
ATOM     17  C   UNL     1      -1.214  -0.867  -1.029  0.00  0.00    +0.009 C 
ATOM     18  C   UNL     1      -1.219  -2.379  -0.789  0.00  0.00    +0.004 C 
ATOM     19  C   UNL     1      -0.618  -2.676   0.588  0.00  0.00    +0.111 C 
ATOM     20  N   UNL     1       0.712  -2.057   0.667  0.00  0.00    -0.300 N 
ATOM     21  C   UNL     1       0.845  -0.625   0.366  0.00  0.00    +0.111 C 
ATOM     22  C   UNL     1       1.791  -2.789   1.009  0.00  0.00    +0.233 C 
ATOM     23  O   UNL     1       1.669  -3.970   1.255  0.00  0.00    -0.274 OA
ATOM     24  C   UNL     1      -2.657  -2.900  -0.843  0.00  0.00    +0.009 C 
ENDBRANCH  14  22
ENDBRANCH   1  14
TORSDOF 4
