REMARK  Name = ZINC05433943
REMARK  5 active torsions:
REMARK  status: ('A' for Active; 'I' for Inactive)
REMARK    1  A    between atoms: C_4  and  C_7
REMARK    2  A    between atoms: C_10  and  C_13
REMARK    3  A    between atoms: N_19  and  C_20
REMARK    4  A    between atoms: C_30  and  N_32
REMARK    5  A    between atoms: C_33  and  C_35
REMARK                            x       y       z     vdW  Elec       q    Type
REMARK                         _______ _______ _______ _____ _____    ______ ____
ROOT
ATOM      1  C   UNL     1      11.905  -2.553  -2.770  0.00  0.00    +0.076 A 
ATOM      2  C   UNL     1      12.223  -1.880  -3.953  0.00  0.00    +0.048 A 
ATOM      3  C   UNL     1      11.233  -1.148  -4.582  0.00  0.00    +0.116 A 
ATOM      4  N   UNL     1      10.021  -1.106  -4.049  0.00  0.00    -0.223 NA
ATOM      5  C   UNL     1       9.747  -1.754  -2.926  0.00  0.00    +0.216 A 
ATOM      6  N   UNL     1      10.667  -2.462  -2.290  0.00  0.00    -0.214 NA
ATOM      7  N   UNL     1       8.468  -1.684  -2.403  0.00  0.00    -0.306 N 
ATOM      8  H   UNL     1       8.254  -2.153  -1.581  0.00  0.00    +0.149 HD
ENDROOT
BRANCH   7   9
ATOM      9  C   UNL     1       7.437  -0.901  -3.089  0.00  0.00    +0.130 C 
ATOM     10  C   UNL     1       6.673  -1.782  -4.101  0.00  0.00    +0.185 C 
ATOM     11  O   UNL     1       5.299  -1.313  -4.054  0.00  0.00    -0.370 OA
ATOM     12  C   UNL     1       5.034  -1.027  -2.664  0.00  0.00    +0.171 C 
ATOM     13  C   UNL     1       6.352  -0.447  -2.094  0.00  0.00    +0.171 C 
ATOM     14  O   UNL     1       6.246   0.973  -2.081  0.00  0.00    -0.370 OA
ATOM     15  C   UNL     1       4.998   1.394  -2.650  0.00  0.00    +0.185 C 
ATOM     16  C   UNL     1       4.060   0.172  -2.606  0.00  0.00    +0.130 C 
BRANCH  16  17
ATOM     17  N   UNL     1       3.291   0.155  -1.360  0.00  0.00    -0.307 N 
ATOM     18  C   UNL     1       2.108   0.797  -1.289  0.00  0.00    +0.216 C 
ATOM     19  O   UNL     1       1.680   1.388  -2.257  0.00  0.00    -0.276 OA
ATOM     20  H   UNL     1       3.633  -0.318  -0.585  0.00  0.00    +0.149 HD
BRANCH  18  21
ATOM     21  C   UNL     1       1.317   0.779  -0.006  0.00  0.00    +0.075 C 
ATOM     22  C   UNL     1      -0.019   1.526   0.010  0.00  0.00    +0.013 C 
ATOM     23  C   UNL     1       0.002  -0.004   0.002  0.00  0.00    +0.013 C 
ENDBRANCH  18  21
ENDBRANCH  16  17
ENDBRANCH   7   9
BRANCH   1  27
ATOM     24  C   UNL     1      14.851  -4.845  -0.728  0.00  0.00    -0.018 A 
ATOM     25  C   UNL     1      13.556  -4.760  -0.218  0.00  0.00    +0.009 A 
ATOM     26  C   UNL     1      12.602  -4.019  -0.879  0.00  0.00    +0.010 A 
ATOM     27  C   UNL     1      12.931  -3.351  -2.059  0.00  0.00    +0.001 A 
ATOM     28  C   UNL     1      14.226  -3.440  -2.572  0.00  0.00    +0.010 A 
ATOM     29  C   UNL     1      15.181  -4.177  -1.908  0.00  0.00    +0.009 A 
BRANCH  24  33
ATOM     30  C   UNL     1      17.795  -7.134   1.312  0.00  0.00    +0.000 A 
ATOM     31  C   UNL     1      18.125  -6.474   0.142  0.00  0.00    +0.001 A 
ATOM     32  C   UNL     1      17.173  -5.729  -0.524  0.00  0.00    +0.008 A 
ATOM     33  C   UNL     1      15.878  -5.643  -0.017  0.00  0.00    -0.018 A 
ATOM     34  C   UNL     1      15.553  -6.306   1.166  0.00  0.00    +0.008 A 
ATOM     35  C   UNL     1      16.512  -7.052   1.821  0.00  0.00    +0.001 A 
ENDBRANCH  24  33
ENDBRANCH   1  27
TORSDOF 5
