REMARK  Name = ZINC39447544
REMARK  9 active torsions:
REMARK  status: ('A' for Active; 'I' for Inactive)
REMARK    1  A    between atoms: C_1  and  N_2
REMARK    2  A    between atoms: N_2  and  C_3
REMARK    3  A    between atoms: N_2  and  C_4
REMARK    4  A    between atoms: C_4  and  C_5
REMARK    5  A    between atoms: C_10  and  C_11
REMARK    6  A    between atoms: C_11  and  N_12
REMARK    7  A    between atoms: C_13  and  C_15
REMARK    8  A    between atoms: C_15  and  C_16
REMARK    9  A    between atoms: C_16  and  C_17
REMARK                            x       y       z     vdW  Elec       q    Type
REMARK                         _______ _______ _______ _____ _____    ______ ____
ROOT
ATOM      1  N   UNL     1      -2.581  -2.052   2.574  0.00  0.00    -0.311 N 
ATOM      2  C   UNL     1      -2.708  -1.488   3.792  0.00  0.00    +0.214 C 
ATOM      3  O   UNL     1      -1.749  -1.415   4.530  0.00  0.00    -0.276 OA
ATOM      4  H   UNL     1      -3.349  -2.110   1.984  0.00  0.00    +0.149 HD
ENDROOT
BRANCH   1   5
ATOM      5  C   UNL     1      -1.283  -2.576   2.142  0.00  0.00    +0.139 C 
BRANCH   5  11
ATOM      6  C   UNL     1      -1.270  -2.100  -0.315  0.00  0.00    -0.059 A 
ATOM      7  C   UNL     1      -1.349  -2.513  -1.632  0.00  0.00    +0.002 A 
ATOM      8  C   UNL     1      -1.540  -3.850  -1.927  0.00  0.00    +0.000 A 
ATOM      9  C   UNL     1      -1.651  -4.774  -0.905  0.00  0.00    +0.000 A 
ATOM     10  C   UNL     1      -1.571  -4.362   0.411  0.00  0.00    +0.005 A 
ATOM     11  C   UNL     1      -1.376  -3.025   0.706  0.00  0.00    -0.029 A 
BRANCH   6  12
ATOM     12  C   UNL     1      -1.061  -0.643   0.006  0.00  0.00    -0.043 C 
BRANCH  12  14
ATOM     13  C   UNL     1      -2.134   1.357   0.783  0.00  0.00    -0.096 C 
ATOM     14  N   UNL     1      -2.353  -0.025   0.335  0.00  0.00    +0.379 N 
ATOM     15  C   UNL     1      -3.212  -0.023  -0.857  0.00  0.00    -0.096 C 
ATOM     16  H   UNL     1      -2.800  -0.550   1.071  0.00  0.00    -0.082 HD
ENDBRANCH  12  14
ENDBRANCH   6  12
ENDBRANCH   5  11
ENDBRANCH   1   5
BRANCH   2  17
ATOM     17  C   UNL     1      -4.043  -0.949   4.237  0.00  0.00    +0.103 C 
BRANCH  17  18
ATOM     18  C   UNL     1      -3.915  -0.368   5.646  0.00  0.00    +0.083 C 
BRANCH  18  19
ATOM     19  C   UNL     1      -5.250   0.172   6.091  0.00  0.00    +0.124 C 
ATOM     20  N   UNL     1      -6.266   0.071   5.268  0.00  0.00    -0.161 NA
ATOM     21  C   UNL     1      -7.489   0.521   5.569  0.00  0.00    +0.271 C 
ATOM     22  O   UNL     1      -8.413   0.407   4.782  0.00  0.00    -0.268 OA
ATOM     23  C   UNL     1      -7.687   1.171   6.904  0.00  0.00    +0.071 C 
ATOM     24  C   UNL     1      -8.803   1.747   7.387  0.00  0.00    -0.042 C 
ATOM     25  C   UNL     1     -10.062   1.990   6.558  0.00  0.00    +0.033 C 
ATOM     26  C   UNL     1     -10.379   3.488   6.665  0.00  0.00    +0.004 C 
ATOM     27  C   UNL     1     -10.446   3.910   8.131  0.00  0.00    +0.002 C 
ATOM     28  C   UNL     1      -9.088   3.726   8.815  0.00  0.00    +0.019 C 
ATOM     29  C   UNL     1      -8.748   2.233   8.831  0.00  0.00    +0.079 C 
ATOM     30  S   UNL     1      -6.979   1.997   9.246  0.00  0.00    -0.097 S 
ATOM     31  C   UNL     1      -6.468   1.213   7.738  0.00  0.00    +0.111 C 
ATOM     32  N   UNL     1      -5.337   0.718   7.293  0.00  0.00    -0.227 NA
ENDBRANCH  18  19
ENDBRANCH  17  18
ENDBRANCH   2  17
TORSDOF 7
