REMARK  Name = ZINC03316006
REMARK  6 active torsions:
REMARK  status: ('A' for Active; 'I' for Inactive)
REMARK    1  A    between atoms: C_6  and  S_11
REMARK    2  A    between atoms: S_11  and  N_14
REMARK    3  A    between atoms: N_14  and  C_15
REMARK    4  A    between atoms: C_15  and  C_17
REMARK    5  A    between atoms: C_15  and  C_20
REMARK    6  A    between atoms: C_17  and  C_18
REMARK                            x       y       z     vdW  Elec       q    Type
REMARK                         _______ _______ _______ _____ _____    ______ ____
ROOT
ATOM      1  N   UNL     1      -2.474   0.100   1.104  0.00  0.00    -0.182 NA
ATOM      2  H   UNL     1      -2.959   0.386   1.894  0.00  0.00    +0.149 HD
ENDROOT
BRANCH   1   3
ATOM      3  S   UNL     1      -1.590  -1.300   1.136  0.00  0.00    +0.059 S 
ATOM      4  O   UNL     1      -1.724  -1.834   2.446  0.00  0.00    -0.153 OA
ATOM      5  O   UNL     1      -1.948  -2.034  -0.026  0.00  0.00    -0.153 OA
BRANCH   3  11
ATOM      6  C   UNL     1       4.890   0.388   1.559  0.00  0.00    +0.001 A 
ATOM      7  C   UNL     1       4.365   0.217   2.838  0.00  0.00    +0.001 A 
ATOM      8  C   UNL     1       3.061  -0.129   3.020  0.00  0.00    +0.008 A 
ATOM      9  C   UNL     1       2.229  -0.318   1.903  0.00  0.00    -0.016 A 
ATOM     10  C   UNL     1       0.878  -0.676   2.051  0.00  0.00    +0.037 A 
ATOM     11  C   UNL     1       0.103  -0.850   0.946  0.00  0.00    +0.106 A 
ATOM     12  C   UNL     1       0.630  -0.684  -0.334  0.00  0.00    +0.029 A 
ATOM     13  C   UNL     1       1.932  -0.332  -0.515  0.00  0.00    +0.010 A 
ATOM     14  C   UNL     1       2.764  -0.144   0.602  0.00  0.00    -0.018 A 
ATOM     15  C   UNL     1       4.115   0.213   0.454  0.00  0.00    +0.008 A 
ENDBRANCH   3  11
ENDBRANCH   1   3
BRANCH   1  16
ATOM     16  C   UNL     1      -2.525   0.906  -0.119  0.00  0.00    +0.118 C 
BRANCH  16  17
ATOM     17  C   UNL     1      -3.736   0.517  -0.927  0.00  0.00    -0.010 A 
ATOM     18  C   UNL     1      -4.834  -0.044  -0.301  0.00  0.00    +0.006 A 
ATOM     19  C   UNL     1      -5.945  -0.401  -1.042  0.00  0.00    +0.000 A 
ATOM     20  C   UNL     1      -5.959  -0.197  -2.410  0.00  0.00    +0.001 A 
ATOM     21  C   UNL     1      -4.862   0.364  -3.036  0.00  0.00    +0.020 A 
ATOM     22  C   UNL     1      -3.752   0.727  -2.294  0.00  0.00    +0.046 A 
ATOM     23 CL   UNL     1      -2.377   1.438  -3.079  0.00  0.00    -0.083 Cl
ENDBRANCH  16  17
BRANCH  16  24
ATOM     24  C   UNL     1      -2.613   2.388   0.251  0.00  0.00    +0.150 C 
BRANCH  24  25
ATOM     25  C   UNL     1      -1.363   2.797   0.986  0.00  0.00    +0.358 C 
ATOM     26  O   UNL     1      -0.526   1.971   1.261  0.00  0.00    -0.246 OA
ATOM     27  O   UNL     1      -1.176   4.082   1.329  0.00  0.00    -0.246 OA
ENDBRANCH  24  25
ENDBRANCH  16  24
ENDBRANCH   1  16
TORSDOF 6
