REMARK  Name = ZINC21079416
REMARK  11 active torsions:
REMARK  status: ('A' for Active; 'I' for Inactive)
REMARK    1  A    between atoms: C_1  and  C_2
REMARK    2  A    between atoms: C_2  and  C_25
REMARK    3  A    between atoms: N_3  and  N_4
REMARK    4  A    between atoms: C_7  and  S_10
REMARK    5  A    between atoms: S_10  and  C_11
REMARK    6  A    between atoms: C_11  and  C_12
REMARK    7  A    between atoms: C_18  and  S_20
REMARK    8  A    between atoms: S_20  and  C_21
REMARK    9  A    between atoms: C_21  and  C_22
REMARK   10  A    between atoms: C_22  and  O_23
REMARK   11  A    between atoms: O_23  and  C_24
REMARK                            x       y       z     vdW  Elec       q    Type
REMARK                         _______ _______ _______ _____ _____    ______ ____
ROOT
ATOM      1  N   UNL     1      -1.300 -10.461  -0.040  0.00  0.00    -0.205 N 
ATOM      2  C   UNL     1      -0.786  -9.172  -0.038  0.00  0.00    +0.232 A 
ATOM      3  N   UNL     1      -1.515  -8.016  -0.025  0.00  0.00    -0.186 NA
ATOM      4  C   UNL     1      -0.641  -6.966  -0.028  0.00  0.00    +0.211 A 
ATOM      5  N   UNL     1       0.577  -7.452  -0.048  0.00  0.00    -0.144 NA
ATOM      6  N   UNL     1       0.485  -8.850  -0.048  0.00  0.00    -0.245 N 
ATOM      7  H   UNL     1      -2.389 -10.618  -0.031  0.00  0.00    +0.177 HD
ATOM      8  H   UNL     1       1.252  -9.638  -0.055  0.00  0.00    +0.192 HD
ENDROOT
BRANCH   1  11
ATOM      9  C   UNL     1      -2.406 -12.983  -0.044  0.00  0.00    +0.068 C 
ATOM     10  C   UNL     1      -0.915 -12.767  -0.056  0.00  0.00    +0.063 C 
ATOM     11  N   UNL     1      -0.433 -11.561  -0.054  0.00  0.00    -0.184 NA
BRANCH  10  12
ATOM     12  C   UNL     1      -0.003 -13.925  -0.070  0.00  0.00    +0.001 A 
ATOM     13  C   UNL     1      -0.519 -15.224  -0.073  0.00  0.00    +0.013 A 
ATOM     14  C   UNL     1       0.336 -16.305  -0.086  0.00  0.00    +0.050 A 
ATOM     15  C   UNL     1       1.710 -16.110  -0.097  0.00  0.00    +0.166 A 
ATOM     16  C   UNL     1       2.232 -14.816  -0.095  0.00  0.00    +0.167 A 
ATOM     17  C   UNL     1       1.380 -13.727  -0.088  0.00  0.00    +0.059 A 
ATOM     18  O   UNL     1       3.595 -14.896  -0.106  0.00  0.00    -0.453 OA
ATOM     19  C   UNL     1       3.897 -16.239  -0.529  0.00  0.00    +0.466 C 
ATOM     20  O   UNL     1       2.747 -16.997  -0.110  0.00  0.00    -0.453 OA
ENDBRANCH  10  12
ENDBRANCH   1  11
BRANCH   4  21
ATOM     21  S   UNL     1      -1.074  -5.258  -0.015  0.00  0.00    -0.075 S 
BRANCH  21  22
ATOM     22  C   UNL     1       0.524  -4.400  -0.026  0.00  0.00    +0.173 C 
BRANCH  22  23
ATOM     23  C   UNL     1       0.294  -2.910  -0.016  0.00  0.00    +0.229 C 
ATOM     24  O   UNL     1      -0.836  -2.471  -0.003  0.00  0.00    -0.275 OA
ATOM     25  N   UNL     1       1.345  -2.067  -0.021  0.00  0.00    -0.263 N 
ATOM     26  C   UNL     1       1.133  -0.690  -0.013  0.00  0.00    +0.189 A 
ATOM     27  N   UNL     1       0.002  -0.004   0.002  0.00  0.00    -0.125 NA
ATOM     28  N   UNL     1      -0.015   1.257   0.009  0.00  0.00    -0.133 NA
ATOM     29  C   UNL     1       1.100   1.973   0.002  0.00  0.00    +0.160 A 
ATOM     30  S   UNL     1       2.314   0.656  -0.017  0.00  0.00    -0.024 S 
ATOM     31  H   UNL     1       2.370  -2.465  -0.033  0.00  0.00    +0.157 HD
BRANCH  29  32
ATOM     32  S   UNL     1       1.324   3.720   0.009  0.00  0.00    -0.095 S 
BRANCH  32  33
ATOM     33  C   UNL     1      -0.365   4.380   0.028  0.00  0.00    +0.104 C 
BRANCH  33  34
ATOM     34  C   UNL     1      -0.316   5.909   0.035  0.00  0.00    +0.170 C 
BRANCH  34  35
ATOM     35  O   UNL     1      -1.647   6.428   0.051  0.00  0.00    -0.382 OA
ATOM     36  C   UNL     1      -1.714   7.856   0.058  0.00  0.00    +0.194 C 
ENDBRANCH  34  35
ENDBRANCH  33  34
ENDBRANCH  32  33
ENDBRANCH  29  32
ENDBRANCH  22  23
ENDBRANCH  21  22
ENDBRANCH   4  21
TORSDOF 9
