REMARK  Name = ZINC03841787
REMARK  7 active torsions:
REMARK  status: ('A' for Active; 'I' for Inactive)
REMARK    1  A    between atoms: C_4  and  O_7
REMARK    2  A    between atoms: O_7  and  C_8
REMARK    3  A    between atoms: C_8  and  C_9
REMARK    4  A    between atoms: C_22  and  N_27
REMARK    5  A    between atoms: N_27  and  C_28
REMARK    6  A    between atoms: C_28  and  C_29
REMARK    7  A    between atoms: C_32  and  C_35
REMARK                            x       y       z     vdW  Elec       q    Type
REMARK                         _______ _______ _______ _____ _____    ______ ____
ROOT
ATOM      1  C   UNL     1       0.293   2.188  -3.338  0.00  0.00    +0.253 C 
ATOM      2  O   UNL     1      -0.682   1.677  -3.848  0.00  0.00    -0.272 OA
ATOM      3  N   UNL     1       0.141   3.112  -2.369  0.00  0.00    -0.298 N 
ATOM      4  C   UNL     1      -1.197   3.513  -1.918  0.00  0.00    +0.113 C 
ATOM      5  C   UNL     1      -1.284   3.439  -0.400  0.00  0.00    +0.027 C 
ATOM      6  C   UNL     1      -0.113   4.172   0.253  0.00  0.00    +0.018 C 
ATOM      7  C   UNL     1       1.191   3.536  -0.234  0.00  0.00    +0.054 C 
ATOM      8  C   UNL     1       1.304   3.766  -1.751  0.00  0.00    +0.117 C 
ATOM      9  C   UNL     1       1.149   2.044   0.002  0.00  0.00    +0.027 A 
ATOM     10  C   UNL     1       2.336   1.401   0.158  0.00  0.00    +0.024 A 
ATOM     11  C   UNL     1       2.383   0.005   0.247  0.00  0.00    +0.030 A 
ATOM     12  C   UNL     1       1.216  -0.703   0.156  0.00  0.00    +0.093 A 
ATOM     13  C   UNL     1       0.002  -0.004   0.002  0.00  0.00    +0.272 A 
ATOM     14  O   UNL     1      -1.040  -0.623  -0.139  0.00  0.00    -0.266 OA
ATOM     15  N   UNL     1      -0.016   1.351   0.009  0.00  0.00    -0.310 N 
ATOM     16  C   UNL     1      -1.326   2.000   0.083  0.00  0.00    +0.130 C 
ENDROOT
BRANCH  12  17
ATOM     17  N   UNL     1       1.227  -2.102   0.215  0.00  0.00    -0.336 N 
ATOM     18  H   UNL     1       0.395  -2.597   0.150  0.00  0.00    +0.147 HD
BRANCH  17  19
ATOM     19  C   UNL     1       2.495  -2.818   0.375  0.00  0.00    +0.137 C 
BRANCH  19  20
ATOM     20  C   UNL     1       2.233  -4.302   0.410  0.00  0.00    -0.030 A 
ATOM     21  C   UNL     1       1.996  -4.932   1.619  0.00  0.00    +0.006 A 
ATOM     22  C   UNL     1       1.750  -6.290   1.655  0.00  0.00    +0.010 A 
ATOM     23  C   UNL     1       1.752  -7.028   0.473  0.00  0.00    +0.000 A 
ATOM     24  C   UNL     1       1.997  -6.389  -0.741  0.00  0.00    +0.010 A 
ATOM     25  C   UNL     1       2.236  -5.030  -0.766  0.00  0.00    +0.006 A 
BRANCH  23  26
ATOM     26  C   UNL     1       1.495  -8.488   0.507  0.00  0.00    +0.071 A 
ATOM     27  C   UNL     1       1.256  -9.120   1.727  0.00  0.00    +0.028 A 
ATOM     28  C   UNL     1       1.012 -10.482   1.742  0.00  0.00    +0.004 A 
ATOM     29  C   UNL     1       1.026 -11.171   0.537  0.00  0.00    +0.020 A 
ATOM     30  C   UNL     1       1.275 -10.482  -0.635  0.00  0.00    +0.111 A 
ATOM     31  N   UNL     1       1.499  -9.184  -0.622  0.00  0.00    -0.255 NA
ENDBRANCH  23  26
ENDBRANCH  19  20
ENDBRANCH  17  19
ENDBRANCH  12  17
BRANCH   1  32
ATOM     32  C   UNL     1       1.675   1.788  -3.788  0.00  0.00    +0.324 C 
BRANCH  32  33
ATOM     33  O   UNL     1       1.574   0.801  -4.816  0.00  0.00    -0.483 OA
BRANCH  33  37
ATOM     34  C   UNL     1       5.108  -0.629  -6.393  0.00  0.00    +0.000 A 
ATOM     35  C   UNL     1       3.898  -1.107  -6.864  0.00  0.00    +0.004 A 
ATOM     36  C   UNL     1       2.714  -0.630  -6.337  0.00  0.00    +0.045 A 
ATOM     37  C   UNL     1       2.738   0.330  -5.336  0.00  0.00    +0.121 A 
ATOM     38  C   UNL     1       3.952   0.812  -4.869  0.00  0.00    +0.045 A 
ATOM     39  C   UNL     1       5.134   0.327  -5.395  0.00  0.00    +0.004 A 
ENDBRANCH  33  37
ENDBRANCH  32  33
ENDBRANCH   1  32
TORSDOF 7
