REMARK  Name = ZINC35538435
REMARK  6 active torsions:
REMARK  status: ('A' for Active; 'I' for Inactive)
REMARK    1  A    between atoms: C_1  and  C_2
REMARK    2  A    between atoms: C_8  and  N_10
REMARK    3  A    between atoms: C_11  and  C_13
REMARK    4  A    between atoms: C_13  and  C_36
REMARK    5  A    between atoms: N_25  and  C_26
REMARK    6  A    between atoms: C_26  and  C_27
REMARK                            x       y       z     vdW  Elec       q    Type
REMARK                         _______ _______ _______ _____ _____    ______ ____
ROOT
ATOM      1  C   UNL     1       0.150   0.825   4.632  0.00  0.00    +0.129 C 
ATOM      2  C   UNL     1       1.296   0.571   5.611  0.00  0.00    +0.157 C 
ATOM      3  N   UNL     1       1.279  -0.838   6.016  0.00  0.00    -0.331 N 
ATOM      4  C   UNL     1       2.302  -1.652   6.399  0.00  0.00    +0.088 A 
ATOM      5  C   UNL     1       3.697  -1.761   6.617  0.00  0.00    +0.067 A 
ATOM      6  C   UNL     1       3.939  -3.016   7.032  0.00  0.00    +0.198 A 
ATOM      7  O   UNL     1       2.785  -3.700   7.089  0.00  0.00    -0.461 OA
ATOM      8  C   UNL     1       1.765  -2.901   6.707  0.00  0.00    +0.153 A 
ATOM      9  C   UNL     1       0.380  -2.832   6.494  0.00  0.00    +0.079 A 
ATOM     10  C   UNL     1       0.095  -1.569   6.066  0.00  0.00    +0.109 A 
ATOM     11  C   UNL     1      -1.183  -0.958   5.678  0.00  0.00    +0.264 C 
ATOM     12  O   UNL     1      -2.246  -1.516   5.874  0.00  0.00    -0.268 OA
ATOM     13  N   UNL     1      -1.114   0.260   5.090  0.00  0.00    -0.276 N 
ATOM     14  C   UNL     1      -0.020   2.335   4.455  0.00  0.00    +0.043 C 
ENDROOT
BRANCH   1  16
ATOM     15  N   UNL     1       0.214  -1.077   3.053  0.00  0.00    -0.310 N 
ATOM     16  C   UNL     1       0.502   0.216   3.300  0.00  0.00    +0.238 C 
ATOM     17  O   UNL     1       1.046   0.889   2.450  0.00  0.00    -0.273 OA
ATOM     18  H   UNL     1      -0.286  -1.595   3.703  0.00  0.00    +0.149 HD
BRANCH  15  25
ATOM     19  C   UNL     1      -1.658  -2.563   1.417  0.00  0.00    +0.009 C 
ATOM     20  C   UNL     1      -0.183  -2.952   1.533  0.00  0.00    +0.006 C 
ATOM     21  C   UNL     1      -0.006  -3.942   2.686  0.00  0.00    +0.005 C 
ATOM     22  C   UNL     1       1.470  -4.331   2.803  0.00  0.00    +0.000 C 
ATOM     23  C   UNL     1       2.307  -3.079   3.072  0.00  0.00    +0.002 C 
ATOM     24  C   UNL     1       2.130  -2.089   1.919  0.00  0.00    +0.022 C 
ATOM     25  C   UNL     1       0.655  -1.700   1.802  0.00  0.00    +0.076 C 
ENDBRANCH  15  25
ENDBRANCH   1  16
BRANCH  13  26
ATOM     26  C   UNL     1      -2.345   1.032   4.908  0.00  0.00    +0.144 C 
BRANCH  26  27
ATOM     27  C   UNL     1      -3.029   0.596   3.638  0.00  0.00    -0.026 A 
ATOM     28  C   UNL     1      -2.662   1.158   2.429  0.00  0.00    +0.009 A 
ATOM     29  C   UNL     1      -3.285   0.761   1.261  0.00  0.00    +0.050 A 
ATOM     30  C   UNL     1      -4.280  -0.202   1.299  0.00  0.00    +0.166 A 
ATOM     31  C   UNL     1      -4.650  -0.768   2.516  0.00  0.00    +0.167 A 
ATOM     32  C   UNL     1      -4.017  -0.370   3.682  0.00  0.00    +0.054 A 
ATOM     33  O   UNL     1      -5.641  -1.680   2.290  0.00  0.00    -0.453 OA
ATOM     34  C   UNL     1      -6.156  -1.371   0.981  0.00  0.00    +0.466 C 
ATOM     35  O   UNL     1      -5.039  -0.758   0.310  0.00  0.00    -0.453 OA
ENDBRANCH  26  27
ENDBRANCH  13  26
TORSDOF 4
