REMARK  Name = ZINC12645485
REMARK  8 active torsions:
REMARK  status: ('A' for Active; 'I' for Inactive)
REMARK    1  A    between atoms: C_1  and  C_2
REMARK    2  A    between atoms: C_2  and  C_4
REMARK    3  A    between atoms: C_2  and  S_19
REMARK    4  A    between atoms: C_16  and  C_17
REMARK    5  A    between atoms: C_16  and  C_18
REMARK    6  A    between atoms: S_19  and  C_20
REMARK    7  A    between atoms: N_29  and  C_30
REMARK    8  A    between atoms: C_30  and  C_31
REMARK                            x       y       z     vdW  Elec       q    Type
REMARK                         _______ _______ _______ _____ _____    ______ ____
ROOT
ATOM      1  C   UNL     1       0.720   0.288  -0.179  0.00  0.00    +0.029 C 
ATOM      2  C   UNL     1      -0.053   0.091   1.126  0.00  0.00    +0.137 C 
ENDROOT
BRANCH   2   3
ATOM      3  C   UNL     1      -1.442  -0.404   0.818  0.00  0.00    +0.234 C 
ATOM      4  O   UNL     1      -2.299   0.377   0.460  0.00  0.00    -0.274 OA
ATOM      5  N   UNL     1      -1.734  -1.714   0.939  0.00  0.00    -0.255 N 
ATOM      6  C   UNL     1      -0.754  -2.641   1.328  0.00  0.00    +0.059 A 
ATOM      7  C   UNL     1       0.581  -2.436   1.030  0.00  0.00    +0.025 A 
ATOM      8  C   UNL     1       1.523  -3.370   1.423  0.00  0.00    +0.002 A 
ATOM      9  C   UNL     1       1.132  -4.505   2.110  0.00  0.00    +0.002 A 
ATOM     10  C   UNL     1      -0.207  -4.714   2.422  0.00  0.00    +0.025 A 
ATOM     11  C   UNL     1      -1.155  -3.783   2.029  0.00  0.00    +0.055 A 
ATOM     12  N   UNL     1      -2.510  -3.973   2.323  0.00  0.00    -0.282 N 
ATOM     13  C   UNL     1      -3.457  -3.234   1.715  0.00  0.00    +0.241 C 
ATOM     14  O   UNL     1      -4.621  -3.387   2.017  0.00  0.00    -0.273 OA
ATOM     15  C   UNL     1      -3.087  -2.219   0.663  0.00  0.00    +0.113 C 
ATOM     16  C   UNL     1      -4.084  -1.059   0.699  0.00  0.00    +0.042 C 
ATOM     17  C   UNL     1      -3.115  -2.879  -0.717  0.00  0.00    +0.042 C 
ATOM     18  H   UNL     1      -2.770  -4.646   2.971  0.00  0.00    +0.155 HD
ENDBRANCH   2   3
BRANCH   2  19
ATOM     19  S   UNL     1      -0.156   1.667   2.010  0.00  0.00    -0.075 S 
BRANCH  19  20
ATOM     20  C   UNL     1       1.549   1.929   2.368  0.00  0.00    +0.173 A 
ATOM     21  N   UNL     1       2.415   1.035   1.972  0.00  0.00    -0.222 NA
ATOM     22  C   UNL     1       3.753   1.171   2.209  0.00  0.00    +0.086 A 
ATOM     23  C   UNL     1       4.795   0.305   1.845  0.00  0.00    +0.036 A 
ATOM     24  C   UNL     1       6.071   0.602   2.171  0.00  0.00    +0.048 A 
ATOM     25  S   UNL     1       5.905   2.156   3.034  0.00  0.00    -0.090 S 
ATOM     26  C   UNL     1       4.144   2.324   2.913  0.00  0.00    +0.102 A 
ATOM     27  C   UNL     1       3.214   3.271   3.336  0.00  0.00    +0.269 A 
ATOM     28  O   UNL     1       3.567   4.266   3.945  0.00  0.00    -0.266 OA
ATOM     29  N   UNL     1       1.907   3.056   3.053  0.00  0.00    -0.283 N 
BRANCH  29  30
ATOM     30  C   UNL     1       0.889   4.021   3.476  0.00  0.00    +0.154 C 
BRANCH  30  31
ATOM     31  C   UNL     1       0.388   3.654   4.849  0.00  0.00    -0.013 C 
ATOM     32  C   UNL     1       0.428   4.534   5.818  0.00  0.00    +0.005 C 
ENDBRANCH  30  31
ENDBRANCH  29  30
ENDBRANCH  19  20
ENDBRANCH   2  19
TORSDOF 5
