REMARK  Name = ZINC12871748
REMARK  14 active torsions:
REMARK  status: ('A' for Active; 'I' for Inactive)
REMARK    1  A    between atoms: C_1  and  C_2
REMARK    2  A    between atoms: C_5  and  C_37
REMARK    3  A    between atoms: N_8  and  C_10
REMARK    4  A    between atoms: C_10  and  C_11
REMARK    5  A    between atoms: C_17  and  C_19
REMARK    6  A    between atoms: C_19  and  C_21
REMARK    7  A    between atoms: C_19  and  N_24
REMARK    8  A    between atoms: C_21  and  C_22
REMARK    9  A    between atoms: C_21  and  C_23
REMARK   10  A    between atoms: C_25  and  C_27
REMARK   11  A    between atoms: C_29  and  O_35
REMARK   12  A    between atoms: C_31  and  O_33
REMARK   13  A    between atoms: O_33  and  C_34
REMARK   14  A    between atoms: O_35  and  C_36
REMARK                            x       y       z     vdW  Elec       q    Type
REMARK                         _______ _______ _______ _____ _____    ______ ____
ROOT
ATOM      1  C   UNL     1       2.760  -2.005   1.530  0.00  0.00    +0.034 A 
ATOM      2  C   UNL     1       3.183  -1.021   2.362  0.00  0.00    +0.070 A 
ATOM      3  S   UNL     1       4.947  -1.102   2.105  0.00  0.00    -0.060 S 
ATOM      4  C   UNL     1       4.962  -2.358   0.985  0.00  0.00    +0.165 A 
ATOM      5  N   UNL     1       3.688  -2.660   0.857  0.00  0.00    -0.231 NA
ATOM      6  N   UNL     1       6.055  -2.940   0.353  0.00  0.00    -0.263 N 
ATOM      7  C   UNL     1       7.300  -2.497   0.617  0.00  0.00    +0.239 C 
ATOM      8  O   UNL     1       7.462  -1.538   1.342  0.00  0.00    -0.273 OA
ATOM      9  H   UNL     1       5.921  -3.664  -0.279  0.00  0.00    +0.157 HD
ENDROOT
BRANCH   1  10
ATOM     10  C   UNL     1       1.298  -2.339   1.386  0.00  0.00    -0.022 C 
BRANCH  10  16
ATOM     11  C   UNL     1       0.351   2.080  -0.496  0.00  0.00    +0.005 C 
ATOM     12  C   UNL     1       0.297   0.573  -0.758  0.00  0.00    -0.031 C 
ATOM     13  C   UNL     1      -1.147   0.157  -1.052  0.00  0.00    +0.003 C 
ATOM     14  C   UNL     1      -1.203  -1.362  -1.236  0.00  0.00    -0.031 C 
ATOM     15  C   UNL     1      -0.647  -2.043   0.017  0.00  0.00    -0.075 C 
ATOM     16  N   UNL     1       0.744  -1.625   0.228  0.00  0.00    +0.384 N 
ATOM     17  C   UNL     1       0.798  -0.179   0.476  0.00  0.00    -0.075 C 
ATOM     18  C   UNL     1      -2.653  -1.798  -1.454  0.00  0.00    +0.005 C 
ATOM     19  H   UNL     1       1.289  -1.844  -0.592  0.00  0.00    -0.081 HD
ENDBRANCH  10  16
ENDBRANCH   1  10
BRANCH   7  20
ATOM     20  C   UNL     1       8.491  -3.193   0.011  0.00  0.00    +0.162 C 
BRANCH  20  21
ATOM     21  N   UNL     1       9.593  -2.238  -0.133  0.00  0.00    -0.300 N 
ATOM     22  C   UNL     1      10.545  -2.444  -1.065  0.00  0.00    +0.245 C 
ATOM     23  O   UNL     1      10.489  -3.421  -1.786  0.00  0.00    -0.270 OA
ATOM     24  H   UNL     1       9.638  -1.458   0.442  0.00  0.00    +0.150 HD
BRANCH  22  25
ATOM     25  C   UNL     1      11.658  -1.480  -1.210  0.00  0.00    +0.044 A 
ATOM     26  C   UNL     1      11.727  -0.361  -0.380  0.00  0.00    +0.059 A 
ATOM     27  C   UNL     1      12.771   0.539  -0.520  0.00  0.00    +0.124 A 
ATOM     28  C   UNL     1      13.746   0.328  -1.483  0.00  0.00    +0.091 A 
ATOM     29  C   UNL     1      13.681  -0.783  -2.311  0.00  0.00    +0.124 A 
ATOM     30  C   UNL     1      12.644  -1.691  -2.174  0.00  0.00    +0.059 A 
BRANCH  29  31
ATOM     31  O   UNL     1      14.640  -0.985  -3.253  0.00  0.00    -0.495 OA
ATOM     32  C   UNL     1      15.683  -0.012  -3.335  0.00  0.00    +0.277 C 
ENDBRANCH  29  31
BRANCH  27  33
ATOM     33  O   UNL     1      12.839   1.629   0.288  0.00  0.00    -0.495 OA
ATOM     34  C   UNL     1      13.942   2.516   0.090  0.00  0.00    +0.277 C 
ENDBRANCH  27  33
ENDBRANCH  22  25
ENDBRANCH  20  21
BRANCH  20  35
ATOM     35  C   UNL     1       8.928  -4.342   0.922  0.00  0.00    +0.012 C 
ATOM     36  C   UNL     1       7.796  -5.365   1.030  0.00  0.00    +0.009 C 
ATOM     37  C   UNL     1      10.170  -5.016   0.334  0.00  0.00    +0.009 C 
ENDBRANCH  20  35
ENDBRANCH   7  20
TORSDOF 8
