REMARK  Name = ZINC41959469
REMARK  8 active torsions:
REMARK  status: ('A' for Active; 'I' for Inactive)
REMARK    1  A    between atoms: C_1  and  C_2
REMARK    2  A    between atoms: C_5  and  N_9
REMARK    3  A    between atoms: C_7  and  C_8
REMARK    4  A    between atoms: N_9  and  C_10
REMARK    5  A    between atoms: C_10  and  N_12
REMARK    6  A    between atoms: N_12  and  N_13
REMARK    7  A    between atoms: C_14  and  C_16
REMARK    8  A    between atoms: C_17  and  C_18
REMARK                            x       y       z     vdW  Elec       q    Type
REMARK                         _______ _______ _______ _____ _____    ______ ____
ROOT
ATOM      1  N   UNL     1      -1.015  -6.962   0.123  0.00  0.00    -0.232 N 
ATOM      2  C   UNL     1      -0.952  -8.308   0.160  0.00  0.00    +0.253 C 
ATOM      3  O   UNL     1      -1.390  -8.963  -0.768  0.00  0.00    -0.269 OA
ATOM      4  H   UNL     1      -0.666  -6.440   0.863  0.00  0.00    +0.173 HD
ENDROOT
BRANCH   1   5
ATOM      5  N   UNL     1      -1.585  -6.317  -0.983  0.00  0.00    -0.245 N 
ATOM      6  H   UNL     1      -1.933  -6.839  -1.722  0.00  0.00    +0.172 HD
BRANCH   5   7
ATOM      7  C   UNL     1      -1.648  -4.971  -1.019  0.00  0.00    +0.151 C 
ATOM      8  S   UNL     1      -2.343  -4.183  -2.370  0.00  0.00    -0.017 S 
BRANCH   7   9
ATOM      9  N   UNL     1      -1.163  -4.246   0.008  0.00  0.00    -0.296 N 
ATOM     10  H   UNL     1      -0.695  -4.686   0.735  0.00  0.00    +0.154 HD
BRANCH   9  15
ATOM     11  C   UNL     1      -1.859   1.383   0.084  0.00  0.00    +0.044 C 
ATOM     12  C   UNL     1      -1.674  -0.112   0.064  0.00  0.00    -0.047 A 
ATOM     13  C   UNL     1      -2.725  -0.932  -0.306  0.00  0.00    +0.005 A 
ATOM     14  C   UNL     1      -2.558  -2.303  -0.325  0.00  0.00    +0.023 A 
ATOM     15  C   UNL     1      -1.335  -2.858   0.027  0.00  0.00    +0.033 A 
ATOM     16  C   UNL     1      -0.282  -2.031   0.397  0.00  0.00    +0.027 A 
ATOM     17  C   UNL     1      -0.453  -0.661   0.409  0.00  0.00    -0.046 A 
ATOM     18  C   UNL     1       0.690   0.237   0.806  0.00  0.00    +0.044 C 
ENDBRANCH   9  15
ENDBRANCH   7   9
ENDBRANCH   5   7
ENDBRANCH   1   5
BRANCH   2  19
ATOM     19  C   UNL     1      -0.358  -8.981   1.314  0.00  0.00    +0.069 C 
ATOM     20  C   UNL     1      -0.155 -10.315   1.286  0.00  0.00    +0.013 C 
BRANCH  20  21
ATOM     21  C   UNL     1      -0.262 -11.049   0.017  0.00  0.00    -0.021 A 
ATOM     22  C   UNL     1       0.325 -10.534  -1.144  0.00  0.00    +0.012 A 
ATOM     23  C   UNL     1       0.222 -11.224  -2.331  0.00  0.00    +0.050 A 
ATOM     24  C   UNL     1      -0.464 -12.432  -2.382  0.00  0.00    +0.162 A 
ATOM     25  C   UNL     1      -1.049 -12.953  -1.230  0.00  0.00    +0.163 A 
ATOM     26  C   UNL     1      -0.947 -12.268  -0.034  0.00  0.00    +0.057 A 
ATOM     27  O   UNL     1      -1.716 -14.139  -1.263  0.00  0.00    -0.485 OA
ATOM     28  C   UNL     1      -2.114 -14.618  -2.552  0.00  0.00    +0.270 C 
ATOM     29  C   UNL     1      -0.920 -14.477  -3.506  0.00  0.00    +0.270 C 
ATOM     30  O   UNL     1      -0.555 -13.094  -3.567  0.00  0.00    -0.485 OA
ENDBRANCH  20  21
ENDBRANCH   2  19
TORSDOF 6
