REMARK  Name = ZINC13656436
REMARK  10 active torsions:
REMARK  status: ('A' for Active; 'I' for Inactive)
REMARK    1  A    between atoms: C_1  and  C_2
REMARK    2  A    between atoms: C_5  and  C_33
REMARK    3  A    between atoms: N_8  and  C_10
REMARK    4  A    between atoms: C_10  and  C_11
REMARK    5  A    between atoms: C_12  and  O_32
REMARK    6  A    between atoms: C_19  and  C_20
REMARK    7  A    between atoms: C_22  and  O_28
REMARK    8  A    between atoms: C_25  and  O_26
REMARK    9  A    between atoms: O_26  and  C_27
REMARK   10  A    between atoms: O_28  and  C_29
REMARK                            x       y       z     vdW  Elec       q    Type
REMARK                         _______ _______ _______ _____ _____    ______ ____
ROOT
ATOM      1  C   UNL     1       2.850  -1.489   1.404  0.00  0.00    +0.020 A 
ATOM      2  C   UNL     1       3.735  -2.202   0.611  0.00  0.00    +0.122 A 
ATOM      3  C   UNL     1       5.085  -1.865   0.577  0.00  0.00    +0.046 A 
ATOM      4  C   UNL     1       5.552  -0.824   1.329  0.00  0.00    +0.019 A 
ATOM      5  C   UNL     1       4.673  -0.097   2.133  0.00  0.00    +0.068 A 
ATOM      6  C   UNL     1       3.308  -0.424   2.171  0.00  0.00    +0.144 A 
ATOM      7  O   UNL     1       2.661   0.417   3.007  0.00  0.00    -0.451 OA
ATOM      8  C   UNL     1       3.502   1.325   3.556  0.00  0.00    +0.176 C 
ATOM      9  C   UNL     1       3.163   2.303   4.435  0.00  0.00    +0.062 C 
ATOM     10  C   UNL     1       4.851   1.051   3.040  0.00  0.00    +0.231 C 
ATOM     11  O   UNL     1       5.883   1.647   3.295  0.00  0.00    -0.283 OA
ENDROOT
BRANCH   9  12
ATOM     12  C   UNL     1       1.754   2.522   4.782  0.00  0.00    +0.024 A 
ATOM     13  C   UNL     1       0.801   1.532   4.514  0.00  0.00    +0.057 A 
ATOM     14  C   UNL     1      -0.523   1.745   4.844  0.00  0.00    +0.121 A 
ATOM     15  C   UNL     1      -0.912   2.939   5.442  0.00  0.00    +0.049 A 
ATOM     16  C   UNL     1       0.021   3.922   5.710  0.00  0.00    +0.050 A 
ATOM     17  C   UNL     1       1.354   3.723   5.391  0.00  0.00    +0.128 A 
BRANCH  17  18
ATOM     18  O   UNL     1       2.271   4.688   5.660  0.00  0.00    -0.495 OA
ATOM     19  C   UNL     1       1.792   5.883   6.280  0.00  0.00    +0.277 C 
ENDBRANCH  17  18
BRANCH  14  20
ATOM     20  O   UNL     1      -1.450   0.785   4.584  0.00  0.00    -0.495 OA
ATOM     21  C   UNL     1      -2.801   1.071   4.951  0.00  0.00    +0.277 C 
ENDBRANCH  14  20
ENDBRANCH   9  12
BRANCH   2  22
ATOM     22  O   UNL     1       3.281  -3.238  -0.139  0.00  0.00    -0.506 OA
ATOM     23  H   UNL     1       2.994  -2.984  -1.027  0.00  0.00    +0.292 HD
ENDBRANCH   2  22
BRANCH   1  24
ATOM     24  C   UNL     1       1.391  -1.865   1.431  0.00  0.00    -0.036 C 
BRANCH  24  30
ATOM     25  C   UNL     1       0.092   2.591  -0.125  0.00  0.00    +0.005 C 
ATOM     26  C   UNL     1       0.046   1.095  -0.443  0.00  0.00    -0.031 C 
ATOM     27  C   UNL     1      -1.412   0.644  -0.570  0.00  0.00    +0.003 C 
ATOM     28  C   UNL     1      -1.449  -0.867  -0.810  0.00  0.00    -0.031 C 
ATOM     29  C   UNL     1      -0.720  -1.578   0.332  0.00  0.00    -0.075 C 
ATOM     30  N   UNL     1       0.675  -1.124   0.385  0.00  0.00    +0.383 N 
ATOM     31  C   UNL     1       0.721   0.312   0.685  0.00  0.00    -0.075 C 
ATOM     32  C   UNL     1      -2.903  -1.341  -0.861  0.00  0.00    +0.005 C 
ATOM     33  H   UNL     1       1.117  -1.293  -0.507  0.00  0.00    -0.081 HD
ENDBRANCH  24  30
ENDBRANCH   1  24
TORSDOF 6
