REMARK  Name = ZINC01829357
REMARK  13 active torsions:
REMARK  status: ('A' for Active; 'I' for Inactive)
REMARK    1  A    between atoms: C_1  and  C_2
REMARK    2  A    between atoms: C_2  and  C_3
REMARK    3  A    between atoms: C_3  and  C_4
REMARK    4  A    between atoms: C_4  and  C_5
REMARK    5  A    between atoms: C_5  and  O_6
REMARK    6  A    between atoms: O_6  and  C_7
REMARK    7  A    between atoms: C_10  and  C_15
REMARK    8  A    between atoms: C_12  and  O_13
REMARK    9  A    between atoms: O_13  and  C_14
REMARK   10  A    between atoms: C_21  and  C_23
REMARK   11  A    between atoms: C_26  and  O_29
REMARK   12  A    between atoms: O_29  and  C_30
REMARK   13  A    between atoms: C_30  and  C_31
REMARK                            x       y       z     vdW  Elec       q    Type
REMARK                         _______ _______ _______ _____ _____    ______ ____
ROOT
ATOM      1  C   UNL     1       4.110  -6.520   6.778  0.00  0.00    +0.294 C 
ATOM      2  N   UNL     1       4.027  -5.691   7.960  0.00  0.00    -0.175 NA
ATOM      3  C   UNL     1       4.556  -6.467   9.124  0.00  0.00    +0.138 C 
ATOM      4  C   UNL     1       4.218  -5.522  10.244  0.00  0.00    +0.023 C 
ATOM      5  C   UNL     1       3.164  -4.813   9.775  0.00  0.00    +0.047 C 
ATOM      6  N   UNL     1       2.853  -5.244   8.463  0.00  0.00    -0.273 N 
ATOM      7  C   UNL     1       6.002  -6.699   8.833  0.00  0.00    +0.018 A 
ATOM      8  C   UNL     1       6.939  -6.792   9.839  0.00  0.00    +0.024 A 
ATOM      9  C   UNL     1       8.268  -7.020   9.531  0.00  0.00    +0.018 A 
ATOM     10  C   UNL     1       8.655  -7.156   8.210  0.00  0.00    +0.019 A 
ATOM     11  C   UNL     1       7.721  -7.059   7.199  0.00  0.00    +0.047 A 
ATOM     12  C   UNL     1       6.384  -6.824   7.498  0.00  0.00    +0.128 A 
ATOM     13  O   UNL     1       5.507  -6.690   6.481  0.00  0.00    -0.468 OA
ATOM     14 BR   UNL     1       9.553  -7.147  10.913  0.00  0.00    -0.050 Br
ATOM     15  H   UNL     1       1.990  -5.224   8.022  0.00  0.00    +0.167 HD
ENDROOT
BRANCH   1  19
ATOM     16  C   UNL     1       2.146  -4.591   3.505  0.00  0.00    +0.162 A 
ATOM     17  C   UNL     1       2.722  -3.836   4.514  0.00  0.00    +0.050 A 
ATOM     18  C   UNL     1       3.356  -4.462   5.571  0.00  0.00    +0.012 A 
ATOM     19  C   UNL     1       3.417  -5.842   5.624  0.00  0.00    +0.013 A 
ATOM     20  C   UNL     1       2.845  -6.602   4.621  0.00  0.00    +0.058 A 
ATOM     21  C   UNL     1       2.203  -5.980   3.562  0.00  0.00    +0.162 A 
BRANCH  21  22
ATOM     22  O   UNL     1       1.635  -6.726   2.577  0.00  0.00    -0.491 OA
ATOM     23  C   UNL     1       1.732  -8.147   2.701  0.00  0.00    +0.277 C 
ENDBRANCH  21  22
BRANCH  16  24
ATOM     24  O   UNL     1       1.522  -3.976   2.465  0.00  0.00    -0.488 OA
BRANCH  24  25
ATOM     25  C   UNL     1       1.503  -2.548   2.473  0.00  0.00    +0.229 C 
BRANCH  25  26
ATOM     26  C   UNL     1       0.763  -2.041   1.233  0.00  0.00    +0.041 C 
BRANCH  26  27
ATOM     27  C   UNL     1       0.742  -0.511   1.242  0.00  0.00    +0.003 C 
BRANCH  27  29
ATOM     28  C   UNL     1      -0.019   1.526   0.010  0.00  0.00    +0.004 C 
ATOM     29  C   UNL     1       0.002  -0.004   0.002  0.00  0.00    -0.003 C 
ENDBRANCH  27  29
ENDBRANCH  26  27
ENDBRANCH  25  26
ENDBRANCH  24  25
ENDBRANCH  16  24
ENDBRANCH   1  19
BRANCH   5  30
ATOM     30  C   UNL     1       2.447  -3.752  10.519  0.00  0.00    -0.003 A 
ATOM     31  C   UNL     1       2.850  -3.410  11.810  0.00  0.00    +0.013 A 
ATOM     32  C   UNL     1       2.180  -2.422  12.500  0.00  0.00    +0.046 A 
ATOM     33  C   UNL     1       1.105  -1.768  11.912  0.00  0.00    +0.121 A 
ATOM     34  C   UNL     1       0.701  -2.107  10.627  0.00  0.00    +0.046 A 
ATOM     35  C   UNL     1       1.371  -3.090   9.929  0.00  0.00    +0.013 A 
BRANCH  33  36
ATOM     36  O   UNL     1       0.447  -0.796  12.595  0.00  0.00    -0.492 OA
BRANCH  36  37
ATOM     37  C   UNL     1      -0.649  -0.165  11.930  0.00  0.00    +0.225 C 
ATOM     38  C   UNL     1      -1.261   0.895  12.848  0.00  0.00    +0.048 C 
ENDBRANCH  36  37
ENDBRANCH  33  36
ENDBRANCH   5  30
TORSDOF 10
