REMARK  Name = ZINC04780270
REMARK  5 active torsions:
REMARK  status: ('A' for Active; 'I' for Inactive)
REMARK    1  A    between atoms: C_1  and  C_2
REMARK    2  A    between atoms: C_2  and  C_3
REMARK    3  A    between atoms: C_6  and  N_9
REMARK    4  A    between atoms: C_15  and  C_18
REMARK    5  A    between atoms: C_20  and  C_23
REMARK                            x       y       z     vdW  Elec       q    Type
REMARK                         _______ _______ _______ _____ _____    ______ ____
ROOT
ATOM      1  N   UNL     1       3.016   3.422  -0.872  0.00  0.00    -0.269 N 
ATOM      2  C   UNL     1       2.073   2.525  -1.220  0.00  0.00    +0.306 C 
ATOM      3  O   UNL     1       1.659   2.490  -2.363  0.00  0.00    -0.252 OA
ATOM      4  N   UNL     1       1.588   1.665  -0.302  0.00  0.00    -0.285 N 
ATOM      5  C   UNL     1       0.477   0.763  -0.633  0.00  0.00    +0.110 C 
ATOM      6  C   UNL     1       0.894  -0.674  -0.303  0.00  0.00    +0.032 C 
ATOM      7  C   UNL     1       1.348  -0.746   1.157  0.00  0.00    +0.081 C 
ATOM      8  C   UNL     1       2.559   0.167   1.362  0.00  0.00    +0.032 C 
ATOM      9  C   UNL     1       2.161   1.613   1.050  0.00  0.00    +0.110 C 
ATOM     10  H   UNL     1       3.425   3.379   0.007  0.00  0.00    +0.156 HD
ENDROOT
BRANCH   1  14
ATOM     11  C   UNL     1       4.172   6.381  -3.567  0.00  0.00    -0.048 A 
ATOM     12  C   UNL     1       5.093   5.860  -2.678  0.00  0.00    +0.005 A 
ATOM     13  C   UNL     1       4.713   4.879  -1.783  0.00  0.00    +0.023 A 
ATOM     14  C   UNL     1       3.404   4.416  -1.777  0.00  0.00    +0.035 A 
ATOM     15  C   UNL     1       2.482   4.938  -2.675  0.00  0.00    +0.023 A 
ATOM     16  C   UNL     1       2.867   5.923  -3.564  0.00  0.00    +0.005 A 
BRANCH  11  18
ATOM     17  C   UNL     1       5.085   6.799  -5.834  0.00  0.00    +0.009 C 
ATOM     18  C   UNL     1       4.590   7.452  -4.542  0.00  0.00    +0.032 C 
ENDBRANCH  11  18
ENDBRANCH   1  14
BRANCH   7  19
ATOM     19  C   UNL     1       1.726  -2.165   1.496  0.00  0.00    +0.231 A 
ATOM     20  N   UNL     1       1.181  -2.916   2.420  0.00  0.00    -0.191 NA
ATOM     21  C   UNL     1       1.836  -4.098   2.361  0.00  0.00    +0.202 A 
ATOM     22  N   UNL     1       2.731  -3.996   1.413  0.00  0.00    -0.056 NA
ATOM     23  O   UNL     1       2.676  -2.896   0.905  0.00  0.00    -0.337 OA
BRANCH  21  24
ATOM     24  C   UNL     1       1.585  -5.287   3.212  0.00  0.00    +0.023 A 
ATOM     25  C   UNL     1       0.596  -5.249   4.193  0.00  0.00    +0.013 A 
ATOM     26  C   UNL     1       0.364  -6.359   4.979  0.00  0.00    +0.021 A 
ATOM     27  C   UNL     1       1.119  -7.506   4.801  0.00  0.00    +0.041 A 
ATOM     28  C   UNL     1       2.106  -7.547   3.832  0.00  0.00    +0.021 A 
ATOM     29  C   UNL     1       2.342  -6.444   3.037  0.00  0.00    +0.013 A 
ATOM     30 CL   UNL     1       0.826  -8.898   5.797  0.00  0.00    -0.084 Cl
ENDBRANCH  21  24
ENDBRANCH   7  19
TORSDOF 4
