REMARK  Name = ZINC09783885
REMARK  13 active torsions:
REMARK  status: ('A' for Active; 'I' for Inactive)
REMARK    1  A    between atoms: C_1  and  C_2
REMARK    2  A    between atoms: C_2  and  C_3
REMARK    3  A    between atoms: C_3  and  C_5
REMARK    4  A    between atoms: C_3  and  O_6
REMARK    5  A    between atoms: O_6  and  C_7
REMARK    6  A    between atoms: C_7  and  C_9
REMARK    7  A    between atoms: C_9  and  C_10
REMARK    8  A    between atoms: N_17  and  C_18
REMARK    9  A    between atoms: C_18  and  N_20
REMARK   10  A    between atoms: C_21  and  C_23
REMARK   11  A    between atoms: C_28  and  O_29
REMARK   12  A    between atoms: O_29  and  C_30
REMARK   13  A    between atoms: C_30  and  C_31
REMARK                            x       y       z     vdW  Elec       q    Type
REMARK                         _______ _______ _______ _____ _____    ______ ____
ROOT
ATOM      1  C   UNL     1      -1.458   3.082   0.146  0.00  0.00    +0.171 C 
ATOM      2  C   UNL     1      -1.235   1.595   0.200  0.00  0.00    +0.234 C 
ATOM      3  O   UNL     1      -2.203   0.864   0.196  0.00  0.00    -0.274 OA
ATOM      4  N   UNL     1      -0.022   1.044   0.258  0.00  0.00    -0.312 N 
ATOM      5  C   UNL     1       1.228   1.786   0.174  0.00  0.00    +0.123 C 
ATOM      6  C   UNL     1       1.016   3.252   0.557  0.00  0.00    +0.126 C 
ATOM      7  N   UNL     1      -0.178   3.744  -0.150  0.00  0.00    -0.299 N 
ATOM      8  H   UNL     1       0.032   0.081   0.358  0.00  0.00    +0.149 HD
ENDROOT
BRANCH   7   9
ATOM      9  C   UNL     1      -0.102   4.759  -1.033  0.00  0.00    +0.140 C 
ATOM     10  S   UNL     1       1.375   5.599  -1.246  0.00  0.00    -0.018 S 
BRANCH   9  11
ATOM     11  N   UNL     1      -1.188   5.112  -1.749  0.00  0.00    -0.264 N 
ATOM     12  C   UNL     1      -1.086   6.056  -2.707  0.00  0.00    +0.253 C 
ATOM     13  O   UNL     1      -0.014   6.588  -2.924  0.00  0.00    -0.270 OA
ATOM     14  H   UNL     1      -2.042   4.688  -1.576  0.00  0.00    +0.157 HD
BRANCH  12  15
ATOM     15  C   UNL     1      -2.273   6.442  -3.490  0.00  0.00    +0.080 A 
ATOM     16  C   UNL     1      -3.507   5.834  -3.243  0.00  0.00    +0.032 A 
ATOM     17  C   UNL     1      -4.614   6.200  -3.979  0.00  0.00    +0.019 A 
ATOM     18  C   UNL     1      -4.509   7.171  -4.963  0.00  0.00    +0.019 A 
ATOM     19  C   UNL     1      -3.296   7.780  -5.217  0.00  0.00    +0.047 A 
ATOM     20  C   UNL     1      -2.173   7.427  -4.483  0.00  0.00    +0.133 A 
ATOM     21 BR   UNL     1      -6.282   5.375  -3.644  0.00  0.00    -0.050 Br
BRANCH  20  22
ATOM     22  O   UNL     1      -0.982   8.029  -4.727  0.00  0.00    -0.491 OA
BRANCH  22  23
ATOM     23  C   UNL     1      -0.957   9.023  -5.754  0.00  0.00    +0.226 C 
ATOM     24  C   UNL     1       0.460   9.585  -5.884  0.00  0.00    +0.048 C 
ENDBRANCH  22  23
ENDBRANCH  20  22
ENDBRANCH  12  15
ENDBRANCH   9  11
ENDBRANCH   7   9
BRANCH   1  25
ATOM     25  C   UNL     1      -1.990   3.575   1.494  0.00  0.00    +0.152 C 
BRANCH  25  26
ATOM     26  C   UNL     1      -2.346   5.035   1.389  0.00  0.00    +0.310 C 
ATOM     27  O   UNL     1      -2.110   5.644   0.372  0.00  0.00    -0.251 OA
BRANCH  26  28
ATOM     28  O   UNL     1      -2.927   5.660   2.426  0.00  0.00    -0.462 OA
BRANCH  28  29
ATOM     29  C   UNL     1      -3.243   7.067   2.254  0.00  0.00    +0.173 C 
ATOM     30  C   UNL     1      -2.054   7.916   2.709  0.00  0.00    +0.052 C 
BRANCH  29  32
ATOM     31  C   UNL     1      -5.689   6.664   2.560  0.00  0.00    +0.007 C 
ATOM     32  C   UNL     1      -4.472   7.420   3.095  0.00  0.00    +0.041 C 
ENDBRANCH  29  32
ENDBRANCH  28  29
ENDBRANCH  26  28
ENDBRANCH  25  26
ENDBRANCH   1  25
TORSDOF 10
