REMARK  Name = ZINC16564860
REMARK  6 active torsions:
REMARK  status: ('A' for Active; 'I' for Inactive)
REMARK    1  A    between atoms: C_1  and  C_2
REMARK    2  A    between atoms: C_15  and  C_17
REMARK    3  A    between atoms: C_17  and  C_19
REMARK    4  A    between atoms: C_17  and  N_59
REMARK    5  A    between atoms: N_22  and  C_25
REMARK    6  A    between atoms: C_30  and  N_31
REMARK                            x       y       z     vdW  Elec       q    Type
REMARK                         _______ _______ _______ _____ _____    ______ ____
ROOT
ATOM      1  C   UNL     1      -1.281  -0.739  -0.025  0.00  0.00    -0.004 C 
ATOM      2  C   UNL     1      -1.494  -1.762  -1.142  0.00  0.00    -0.005 C 
ENDROOT
BRANCH   1  16
ATOM      3  C   UNL     1       6.694   5.071  -1.600  0.00  0.00    +0.008 C 
ATOM      4  C   UNL     1       5.559   4.049  -1.678  0.00  0.00    -0.009 C 
ATOM      5  C   UNL     1       5.930   2.805  -0.865  0.00  0.00    +0.008 C 
ATOM      6  C   UNL     1       4.923   1.687  -1.135  0.00  0.00    +0.037 C 
ATOM      7  C   UNL     1       3.514   2.227  -0.907  0.00  0.00    -0.023 A 
ATOM      8  C   UNL     1       3.279   3.556  -0.895  0.00  0.00    -0.004 A 
ATOM      9  S   UNL     1       1.538   3.712  -0.600  0.00  0.00    -0.073 S 
ATOM     10  C   UNL     1       1.131   1.988  -0.494  0.00  0.00    +0.116 A 
ATOM     11  C   UNL     1       2.365   1.349  -0.691  0.00  0.00    +0.075 A 
ATOM     12  C   UNL     1       2.334  -0.084  -0.654  0.00  0.00    +0.260 A 
ATOM     13  O   UNL     1       3.355  -0.730  -0.813  0.00  0.00    -0.267 OA
ATOM     14  N   UNL     1       1.158  -0.704  -0.440  0.00  0.00    -0.312 N 
ATOM     15  H   UNL     1       1.130  -1.673  -0.413  0.00  0.00    +0.170 HD
ATOM     16  C   UNL     1       0.011  -0.000  -0.260  0.00  0.00    +0.097 A 
ATOM     17  N   UNL     1       0.008   1.306  -0.288  0.00  0.00    -0.228 NA
ATOM     18  C   UNL     1       4.277   4.657  -1.090  0.00  0.00    +0.046 C 
ENDBRANCH   1  16
BRANCH   1  24
ATOM     19  C   UNL     1      -3.615  -0.401   0.527  0.00  0.00    -0.059 C 
ATOM     20  C   UNL     1      -4.729   0.647   0.592  0.00  0.00    +0.086 C 
ATOM     21  N   UNL     1      -4.970   1.186  -0.753  0.00  0.00    -0.332 N 
ATOM     22  C   UNL     1      -3.752   1.803  -1.296  0.00  0.00    +0.086 C 
ATOM     23  C   UNL     1      -2.639   0.756  -1.362  0.00  0.00    -0.059 C 
ATOM     24  N   UNL     1      -2.390   0.238  -0.000  0.00  0.00    +0.388 N 
ATOM     25  H   UNL     1      -2.132   1.021   0.613  0.00  0.00    -0.081 HD
BRANCH  21  26
ATOM     26  C   UNL     1      -6.031   2.094  -0.745  0.00  0.00    +0.060 A 
ATOM     27  C   UNL     1      -5.969   3.230   0.052  0.00  0.00    +0.025 A 
ATOM     28  C   UNL     1      -7.017   4.129   0.053  0.00  0.00    +0.002 A 
ATOM     29  C   UNL     1      -8.133   3.894  -0.730  0.00  0.00    +0.002 A 
ATOM     30  C   UNL     1      -8.200   2.762  -1.520  0.00  0.00    +0.034 A 
ATOM     31  C   UNL     1      -7.153   1.861  -1.530  0.00  0.00    +0.147 A 
BRANCH  31  32
ATOM     32  N   UNL     1      -7.226   0.649  -2.376  0.00  0.00    +0.058 N 
ATOM     33  O   UNL     1      -8.248   0.394  -2.988  0.00  0.00    -0.126 OA
ATOM     34  O   UNL     1      -6.265  -0.093  -2.461  0.00  0.00    -0.126 OA
ENDBRANCH  31  32
ENDBRANCH  21  26
ENDBRANCH   1  24
TORSDOF 4
