REMARK  Name = ZINC23039909
REMARK  4 active torsions:
REMARK  status: ('A' for Active; 'I' for Inactive)
REMARK    1  A    between atoms: C_4  and  C_7
REMARK    2  A    between atoms: N_16  and  C_17
REMARK    3  A    between atoms: C_17  and  C_18
REMARK    4  A    between atoms: C_24  and  C_29
REMARK                            x       y       z     vdW  Elec       q    Type
REMARK                         _______ _______ _______ _____ _____    ______ ____
ROOT
ATOM      1  C   UNL     1      -2.937   1.466  -2.304  0.00  0.00    -0.002 C 
ENDROOT
BRANCH   1   2
ATOM      2  C   UNL     1      -2.319   0.536  -3.316  0.00  0.00    +0.094 A 
ATOM      3  N   UNL     1      -2.775   0.544  -4.595  0.00  0.00    -0.312 N 
ATOM      4  H   UNL     1      -3.591   1.223  -4.884  0.00  0.00    +0.170 HD
ATOM      5  C   UNL     1      -2.247  -0.267  -5.531  0.00  0.00    +0.260 A 
ATOM      6  O   UNL     1      -2.664  -0.244  -6.676  0.00  0.00    -0.267 OA
ATOM      7  C   UNL     1      -1.193  -1.160  -5.159  0.00  0.00    +0.083 A 
ATOM      8  C   UNL     1      -0.471  -2.128  -5.979  0.00  0.00    +0.039 A 
ATOM      9  C   UNL     1       0.503  -2.874  -5.399  0.00  0.00    +0.059 A 
ATOM     10  S   UNL     1       0.501  -2.313  -3.707  0.00  0.00    -0.076 S 
ATOM     11  C   UNL     1      -0.791  -1.102  -3.815  0.00  0.00    +0.116 A 
ATOM     12  N   UNL     1      -1.359  -0.268  -2.947  0.00  0.00    -0.229 NA
BRANCH   8  13
ATOM     13  C   UNL     1      -0.793  -2.291  -7.411  0.00  0.00    +0.136 A 
ATOM     14  C   UNL     1       0.102  -2.287  -8.436  0.00  0.00    +0.050 A 
ATOM     15  C   UNL     1      -0.638  -2.474  -9.621  0.00  0.00    +0.042 A 
ATOM     16  C   UNL     1      -1.933  -2.580  -9.266  0.00  0.00    +0.196 A 
ATOM     17  O   UNL     1      -2.022  -2.474  -7.929  0.00  0.00    -0.463 OA
ENDBRANCH   8  13
ENDBRANCH   1   2
BRANCH   1  26
ATOM     18  C   UNL     1      -2.929   2.039   0.048  0.00  0.00    -0.005 C 
ATOM     19  C   UNL     1      -2.107   1.927   1.329  0.00  0.00    -0.047 A 
ATOM     20  C   UNL     1      -2.632   2.107   2.606  0.00  0.00    +0.010 A 
ATOM     21  C   UNL     1      -1.830   1.986   3.690  0.00  0.00    +0.045 A 
ATOM     22  S   UNL     1      -0.253   1.604   2.942  0.00  0.00    -0.101 S 
ATOM     23  C   UNL     1      -0.777   1.635   1.252  0.00  0.00    -0.010 A 
ATOM     24  C   UNL     1       0.013   1.400   0.006  0.00  0.00    +0.024 C 
ATOM     25  C   UNL     1      -0.832   1.887  -1.183  0.00  0.00    -0.072 C 
ATOM     26  N   UNL     1      -2.200   1.371  -1.037  0.00  0.00    +0.392 N 
ATOM     27  H   UNL     1      -2.118   0.308  -0.765  0.00  0.00    -0.080 HD
BRANCH  18  31
ATOM     28  C   UNL     1      -6.719   0.148   0.605  0.00  0.00    +0.000 A 
ATOM     29  C   UNL     1      -6.615   1.525   0.683  0.00  0.00    +0.000 A 
ATOM     30  C   UNL     1      -5.388   2.136   0.502  0.00  0.00    +0.002 A 
ATOM     31  C   UNL     1      -4.266   1.372   0.245  0.00  0.00    -0.057 A 
ATOM     32  C   UNL     1      -4.371  -0.004   0.162  0.00  0.00    +0.002 A 
ATOM     33  C   UNL     1      -5.596  -0.616   0.347  0.00  0.00    +0.000 A 
ENDBRANCH  18  31
ENDBRANCH   1  26
TORSDOF 4
