REMARK  Name = ZINC14093000
REMARK  2 active torsions:
REMARK  status: ('A' for Active; 'I' for Inactive)
REMARK    1  A    between atoms: C_3  and  N_11
REMARK    2  A    between atoms: C_6  and  C_7
REMARK                            x       y       z     vdW  Elec       q    Type
REMARK                         _______ _______ _______ _____ _____    ______ ____
ROOT
ATOM      1  N   UNL     1       3.586   2.125  -0.021  0.00  0.00    -0.210 N 
ATOM      2  C   UNL     1       3.641   3.471  -0.009  0.00  0.00    +0.230 C 
ATOM      3  O   UNL     1       2.720   4.227   0.210  0.00  0.00    -0.274 OA
ATOM      4  C   UNL     1       5.093   3.870  -0.326  0.00  0.00    +0.092 C 
ATOM      5  C   UNL     1       5.152   3.953  -1.853  0.00  0.00    +0.040 C 
ATOM      6  C   UNL     1       6.460   3.519  -2.418  0.00  0.00    -0.030 C 
ATOM      7  C   UNL     1       7.340   2.817  -1.786  0.00  0.00    -0.030 C 
ATOM      8  C   UNL     1       7.178   2.383  -0.364  0.00  0.00    +0.040 C 
ATOM      9  C   UNL     1       5.807   2.614   0.201  0.00  0.00    +0.092 C 
ATOM     10  C   UNL     1       4.799   1.528  -0.036  0.00  0.00    +0.230 C 
ATOM     11  O   UNL     1       5.027   0.350  -0.209  0.00  0.00    -0.274 OA
ENDROOT
BRANCH   1  14
ATOM     12  C   UNL     1      -0.017   1.379   0.010  0.00  0.00    +0.014 A 
ATOM     13  C   UNL     1       1.169   2.087   0.002  0.00  0.00    +0.024 A 
ATOM     14  C   UNL     1       2.381   1.409  -0.013  0.00  0.00    +0.044 A 
ATOM     15  C   UNL     1       2.396   0.021  -0.021  0.00  0.00    +0.024 A 
ATOM     16  C   UNL     1       1.207  -0.682  -0.013  0.00  0.00    +0.014 A 
ATOM     17  C   UNL     1       0.002  -0.004   0.002  0.00  0.00    +0.055 A 
BRANCH  17  18
ATOM     18  C   UNL     1      -1.294  -0.774   0.011  0.00  0.00    +0.417 C 
ATOM     19  F   UNL     1      -1.708  -1.005  -1.305  0.00  0.00    -0.166 F 
ATOM     20  F   UNL     1      -1.105  -1.998   0.662  0.00  0.00    -0.166 F 
ATOM     21  F   UNL     1      -2.271  -0.034   0.684  0.00  0.00    -0.166 F 
ENDBRANCH  17  18
ENDBRANCH   1  14
TORSDOF 2
