REMARK  Name = ZINC11658483
REMARK  9 active torsions:
REMARK  status: ('A' for Active; 'I' for Inactive)
REMARK    1  A    between atoms: C_1  and  O_2
REMARK    2  A    between atoms: O_2  and  C_3
REMARK    3  A    between atoms: C_6  and  C_9
REMARK    4  A    between atoms: C_9  and  C_11
REMARK    5  A    between atoms: C_9  and  N_69
REMARK    6  A    between atoms: C_11  and  N_12
REMARK    7  A    between atoms: C_13  and  C_15
REMARK    8  A    between atoms: C_15  and  C_16
REMARK    9  A    between atoms: C_16  and  C_17
REMARK                            x       y       z     vdW  Elec       q    Type
REMARK                         _______ _______ _______ _____ _____    ______ ____
ROOT
ATOM      1  N   UNL     1       3.721   8.088   0.749  0.00  0.00    -0.317 N 
ATOM      2  C   UNL     1       4.133   6.935   1.314  0.00  0.00    +0.213 C 
ATOM      3  O   UNL     1       5.248   6.856   1.785  0.00  0.00    -0.276 OA
ATOM      4  H   UNL     1       2.830   8.152   0.372  0.00  0.00    +0.149 HD
ENDROOT
BRANCH   1   5
ATOM      5  C   UNL     1       4.620   9.243   0.704  0.00  0.00    +0.093 C 
BRANCH   5   6
ATOM      6  C   UNL     1       3.913  10.413   0.015  0.00  0.00    -0.020 C 
BRANCH   6  12
ATOM      7  C   UNL     1       4.562   9.592  -2.168  0.00  0.00    -0.078 C 
ATOM      8  C   UNL     1       4.025   9.020  -3.482  0.00  0.00    -0.019 C 
ATOM      9  C   UNL     1       3.169  10.079  -4.182  0.00  0.00    -0.004 C 
ATOM     10  C   UNL     1       2.035  10.508  -3.247  0.00  0.00    -0.019 C 
ATOM     11  C   UNL     1       2.631  11.038  -1.940  0.00  0.00    -0.078 C 
ATOM     12  N   UNL     1       3.422   9.963  -1.304  0.00  0.00    +0.385 N 
ATOM     13  H   UNL     1       2.822   9.140  -1.173  0.00  0.00    -0.081 HD
ENDBRANCH   6  12
BRANCH   6  17
ATOM     14  C   UNL     1       6.647  13.667  -0.429  0.00  0.00    +0.120 A 
ATOM     15  C   UNL     1       5.396  13.882   0.131  0.00  0.00    +0.046 A 
ATOM     16  C   UNL     1       4.514  12.828   0.274  0.00  0.00    +0.005 A 
ATOM     17  C   UNL     1       4.877  11.560  -0.142  0.00  0.00    -0.059 A 
ATOM     18  C   UNL     1       6.126  11.343  -0.695  0.00  0.00    +0.005 A 
ATOM     19  C   UNL     1       7.009  12.394  -0.845  0.00  0.00    +0.046 A 
BRANCH  14  21
ATOM     20  C   UNL     1       8.787  14.407  -1.155  0.00  0.00    +0.277 C 
ATOM     21  O   UNL     1       7.517  14.702  -0.570  0.00  0.00    -0.495 OA
ENDBRANCH  14  21
ENDBRANCH   6  17
ENDBRANCH   5   6
ENDBRANCH   1   5
BRANCH   2  22
ATOM     22  C   UNL     1       3.208   5.747   1.361  0.00  0.00    +0.103 C 
BRANCH  22  23
ATOM     23  C   UNL     1       3.915   4.577   2.049  0.00  0.00    +0.083 C 
BRANCH  23  24
ATOM     24  C   UNL     1       2.990   3.388   2.096  0.00  0.00    +0.111 A 
ATOM     25  N   UNL     1       3.435   2.245   2.671  0.00  0.00    -0.310 N 
ATOM     26  H   UNL     1       4.335   2.230   3.034  0.00  0.00    +0.170 HD
ATOM     27  C   UNL     1       2.683   1.123   2.763  0.00  0.00    +0.260 A 
ATOM     28  O   UNL     1       3.101   0.103   3.285  0.00  0.00    -0.267 OA
ATOM     29  C   UNL     1       1.363   1.211   2.208  0.00  0.00    +0.075 A 
ATOM     30  C   UNL     1       0.361   0.161   2.174  0.00  0.00    -0.023 A 
ATOM     31  C   UNL     1      -0.823   0.469   1.595  0.00  0.00    -0.004 A 
ATOM     32  S   UNL     1      -0.659   2.158   1.073  0.00  0.00    -0.073 S 
ATOM     33  C   UNL     1       0.991   2.445   1.630  0.00  0.00    +0.116 A 
ATOM     34  N   UNL     1       1.788   3.508   1.577  0.00  0.00    -0.227 NA
ATOM     35  C   UNL     1      -2.013  -0.425   1.431  0.00  0.00    +0.043 C 
ATOM     36  C   UNL     1      -1.573  -1.873   1.687  0.00  0.00    +0.005 C 
ATOM     37  C   UNL     1      -0.750  -1.913   2.978  0.00  0.00    +0.005 C 
ATOM     38  C   UNL     1       0.600  -1.231   2.755  0.00  0.00    +0.037 C 
ENDBRANCH  23  24
ENDBRANCH  22  23
ENDBRANCH   2  22
TORSDOF 8
