REMARK  Name = ZINC64655610
REMARK  10 active torsions:
REMARK  status: ('A' for Active; 'I' for Inactive)
REMARK    1  A    between atoms: C_2  and  C_3
REMARK    2  A    between atoms: C_3  and  N_4
REMARK    3  A    between atoms: C_5  and  S_9
REMARK    4  A    between atoms: S_9  and  C_10
REMARK    5  A    between atoms: C_10  and  C_11
REMARK    6  A    between atoms: C_16  and  C_17
REMARK    7  A    between atoms: C_17  and  S_18
REMARK    8  A    between atoms: S_18  and  C_19
REMARK    9  A    between atoms: N_23  and  C_24
REMARK   10  A    between atoms: C_24  and  C_25
REMARK                            x       y       z     vdW  Elec       q    Type
REMARK                         _______ _______ _______ _____ _____    ______ ____
ROOT
ATOM      1  C   UNL     1      -3.513   0.934  -5.310  0.00  0.00    -0.033 A 
ATOM      2  C   UNL     1      -4.882   1.120  -5.259  0.00  0.00    +0.005 A 
ATOM      3  C   UNL     1      -5.448   2.244  -5.830  0.00  0.00    +0.000 A 
ATOM      4  C   UNL     1      -4.645   3.182  -6.452  0.00  0.00    +0.000 A 
ATOM      5  C   UNL     1      -3.276   2.996  -6.503  0.00  0.00    +0.005 A 
ATOM      6  C   UNL     1      -2.710   1.874  -5.927  0.00  0.00    -0.033 A 
ENDROOT
BRANCH   1   7
ATOM      7  C   UNL     1      -2.896  -0.292  -4.687  0.00  0.00    +0.112 C 
BRANCH   7   8
ATOM      8  S   UNL     1      -2.486   0.052  -2.953  0.00  0.00    -0.080 S 
BRANCH   8  10
ATOM      9  N   UNL     1      -1.318  -1.700  -1.126  0.00  0.00    -0.216 N 
ATOM     10  C   UNL     1      -1.784  -1.456  -2.374  0.00  0.00    +0.210 A 
ATOM     11  N   UNL     1      -1.613  -2.558  -3.072  0.00  0.00    -0.101 NA
ATOM     12  N   UNL     1      -1.074  -3.471  -2.347  0.00  0.00    -0.022 NA
ATOM     13  N   UNL     1      -0.857  -3.028  -1.156  0.00  0.00    -0.043 NA
BRANCH   9  14
ATOM     14  C   UNL     1      -1.293  -0.775   0.010  0.00  0.00    +0.175 C 
BRANCH  14  16
ATOM     15  C   UNL     1      -0.016   1.306   0.009  0.00  0.00    +0.006 C 
ATOM     16  C   UNL     1       0.002  -0.004   0.002  0.00  0.00    -0.011 C 
ENDBRANCH  14  16
ENDBRANCH   9  14
ENDBRANCH   8  10
ENDBRANCH   7   8
ENDBRANCH   1   7
BRANCH   6  17
ATOM     17  C   UNL     1      -1.217   1.674  -5.977  0.00  0.00    +0.112 C 
BRANCH  17  18
ATOM     18  S   UNL     1      -0.780   0.758  -7.481  0.00  0.00    -0.080 S 
BRANCH  18  19
ATOM     19  C   UNL     1       0.974   0.607  -7.393  0.00  0.00    +0.210 A 
ATOM     20  N   UNL     1       1.751   1.063  -6.435  0.00  0.00    -0.101 NA
ATOM     21  N   UNL     1       2.980   0.783  -6.680  0.00  0.00    -0.022 NA
ATOM     22  N   UNL     1       3.079   0.139  -7.792  0.00  0.00    -0.043 NA
ATOM     23  N   UNL     1       1.774  -0.006  -8.297  0.00  0.00    -0.216 N 
BRANCH  23  24
ATOM     24  C   UNL     1       1.369  -0.673  -9.536  0.00  0.00    +0.175 C 
BRANCH  24  25
ATOM     25  C   UNL     1       1.371   0.323 -10.667  0.00  0.00    -0.011 C 
ATOM     26  C   UNL     1       2.068   0.084 -11.750  0.00  0.00    +0.006 C 
ENDBRANCH  24  25
ENDBRANCH  23  24
ENDBRANCH  18  19
ENDBRANCH  17  18
ENDBRANCH   6  17
TORSDOF 10
