REMARK  Name = ZINC13134710
REMARK  10 active torsions:
REMARK  status: ('A' for Active; 'I' for Inactive)
REMARK    1  A    between atoms: C_1  and  C_2
REMARK    2  A    between atoms: C_2  and  C_4
REMARK    3  A    between atoms: C_2  and  O_16
REMARK    4  A    between atoms: N_6  and  C_7
REMARK    5  A    between atoms: C_11  and  N_13
REMARK    6  A    between atoms: O_16  and  C_17
REMARK    7  A    between atoms: C_17  and  C_19
REMARK    8  A    between atoms: C_24  and  N_25
REMARK    9  A    between atoms: N_25  and  S_26
REMARK   10  A    between atoms: S_26  and  C_29
REMARK                            x       y       z     vdW  Elec       q    Type
REMARK                         _______ _______ _______ _____ _____    ______ ____
ROOT
ATOM      1  C   UNL     1       2.581   9.257  -0.139  0.00  0.00    +0.342 C 
ATOM      2  O   UNL     1       1.624   9.882  -0.552  0.00  0.00    -0.245 OA
ENDROOT
BRANCH   1   3
ATOM      3  C   UNL     1       3.940   9.807  -0.288  0.00  0.00    +0.081 A 
ATOM      4  C   UNL     1       5.044   9.091   0.185  0.00  0.00    +0.017 A 
ATOM      5  C   UNL     1       6.311   9.611   0.043  0.00  0.00    +0.001 A 
ATOM      6  C   UNL     1       6.500  10.841  -0.568  0.00  0.00    +0.002 A 
ATOM      7  C   UNL     1       5.421  11.560  -1.040  0.00  0.00    +0.025 A 
ATOM      8  C   UNL     1       4.135  11.050  -0.911  0.00  0.00    +0.062 A 
BRANCH   8   9
ATOM      9  N   UNL     1       3.048  11.768  -1.391  0.00  0.00    -0.215 N 
ATOM     10  H   UNL     1       2.204  11.747  -0.913  0.00  0.00    +0.174 HD
BRANCH   9  11
ATOM     11  S   UNL     1       3.192  12.661  -2.777  0.00  0.00    +0.079 S 
ATOM     12  O   UNL     1       1.896  13.159  -3.077  0.00  0.00    -0.149 OA
ATOM     13  O   UNL     1       4.313  13.516  -2.595  0.00  0.00    -0.149 OA
BRANCH  11  14
ATOM     14  C   UNL     1       3.616  11.546  -4.074  0.00  0.00    +0.147 A 
ATOM     15  C   UNL     1       2.799  10.854  -4.905  0.00  0.00    +0.038 A 
ATOM     16  C   UNL     1       3.359  10.027  -5.861  0.00  0.00    +0.030 A 
ATOM     17  C   UNL     1       4.710   9.932  -5.937  0.00  0.00    +0.080 A 
ATOM     18  S   UNL     1       5.232  11.039  -4.637  0.00  0.00    -0.057 S 
ATOM     19 CL   UNL     1       5.681   8.986  -7.022  0.00  0.00    -0.076 Cl
ENDBRANCH  11  14
ENDBRANCH   9  11
ENDBRANCH   8   9
ENDBRANCH   1   3
BRANCH   1  20
ATOM     20  O   UNL     1       2.400   8.060   0.454  0.00  0.00    -0.449 OA
BRANCH  20  22
ATOM     21  C   UNL     1       0.429   8.066   1.885  0.00  0.00    +0.062 C 
ATOM     22  C   UNL     1       1.034   7.581   0.566  0.00  0.00    +0.259 C 
BRANCH  22  23
ATOM     23  C   UNL     1       1.027   6.074   0.535  0.00  0.00    +0.258 C 
ATOM     24  O   UNL     1       2.074   5.463   0.520  0.00  0.00    -0.271 OA
ATOM     25  N   UNL     1      -0.144   5.406   0.523  0.00  0.00    -0.282 N 
ATOM     26  H   UNL     1      -0.980   5.894   0.457  0.00  0.00    +0.155 HD
BRANCH  25  27
ATOM     27  C   UNL     1      -0.153   4.009   0.606  0.00  0.00    +0.036 A 
ATOM     28  C   UNL     1       0.818   3.350   1.348  0.00  0.00    +0.023 A 
ATOM     29  C   UNL     1       0.806   1.971   1.427  0.00  0.00    +0.004 A 
ATOM     30  C   UNL     1      -0.170   1.247   0.768  0.00  0.00    +0.033 A 
ATOM     31  C   UNL     1      -1.135   1.901   0.023  0.00  0.00    +0.128 A 
ATOM     32  C   UNL     1      -1.132   3.280  -0.055  0.00  0.00    +0.056 A 
BRANCH  31  33
ATOM     33  N   UNL     1      -2.175   1.122  -0.686  0.00  0.00    +0.056 N 
ATOM     34  O   UNL     1      -2.180  -0.094  -0.614  0.00  0.00    -0.126 OA
ATOM     35  O   UNL     1      -3.025   1.696  -1.342  0.00  0.00    -0.126 OA
ENDBRANCH  31  33
ENDBRANCH  25  27
ENDBRANCH  22  23
ENDBRANCH  20  22
ENDBRANCH   1  20
TORSDOF 9
