REMARK  Name = ZINC09783497
REMARK  6 active torsions:
REMARK  status: ('A' for Active; 'I' for Inactive)
REMARK    1  A    between atoms: C_6  and  C_7
REMARK    2  A    between atoms: C_7  and  C_8
REMARK    3  A    between atoms: C_7  and  N_61
REMARK    4  A    between atoms: C_20  and  C_22
REMARK    5  A    between atoms: C_22  and  N_23
REMARK    6  A    between atoms: C_24  and  C_26
REMARK                            x       y       z     vdW  Elec       q    Type
REMARK                         _______ _______ _______ _____ _____    ______ ____
ROOT
ATOM      1  C   UNL     1       8.867  -4.842   6.487  0.00  0.00    -0.058 C 
ATOM      2  C   UNL     1       8.217  -4.759   5.102  0.00  0.00    +0.089 C 
ATOM      3  N   UNL     1       7.845  -3.360   4.843  0.00  0.00    -0.304 N 
ATOM      4  C   UNL     1       8.870  -2.322   5.027  0.00  0.00    +0.089 C 
ATOM      5  C   UNL     1       9.493  -2.500   6.421  0.00  0.00    -0.058 C 
ATOM      6  C   UNL     1       6.598  -3.038   4.444  0.00  0.00    +0.233 C 
ATOM      7  O   UNL     1       5.767  -3.908   4.293  0.00  0.00    -0.274 OA
ATOM      8  N   UNL     1       9.994  -3.886   6.541  0.00  0.00    +0.389 N 
ATOM      9  H   UNL     1      10.631  -4.078   5.759  0.00  0.00    -0.080 HD
ENDROOT
BRANCH   8  10
ATOM     10  C   UNL     1      10.732  -4.047   7.811  0.00  0.00    -0.007 C 
BRANCH  10  16
ATOM     11  C   UNL     1      11.967  -5.925   6.710  0.00  0.00    +0.005 A 
ATOM     12  C   UNL     1      12.542  -7.181   6.738  0.00  0.00    +0.038 A 
ATOM     13  C   UNL     1      12.494  -7.938   7.897  0.00  0.00    +0.123 A 
ATOM     14  C   UNL     1      11.875  -7.433   9.028  0.00  0.00    +0.038 A 
ATOM     15  C   UNL     1      11.306  -6.174   8.999  0.00  0.00    +0.005 A 
ATOM     16  C   UNL     1      11.354  -5.419   7.841  0.00  0.00    -0.057 A 
ATOM     17  F   UNL     1      13.052  -9.168   7.924  0.00  0.00    -0.205 F 
ENDBRANCH  10  16
BRANCH  10  18
ATOM     18  C   UNL     1      11.816  -3.002   7.884  0.00  0.00    -0.057 A 
ATOM     19  C   UNL     1      12.606  -2.749   6.778  0.00  0.00    +0.005 A 
ATOM     20  C   UNL     1      13.597  -1.788   6.843  0.00  0.00    +0.038 A 
ATOM     21  C   UNL     1      13.806  -1.087   8.018  0.00  0.00    +0.123 A 
ATOM     22  C   UNL     1      13.017  -1.345   9.127  0.00  0.00    +0.038 A 
ATOM     23  C   UNL     1      12.023  -2.303   9.058  0.00  0.00    +0.005 A 
ATOM     24  F   UNL     1      14.777  -0.150   8.084  0.00  0.00    -0.205 F 
ENDBRANCH  10  18
ENDBRANCH   8  10
BRANCH   6  25
ATOM     25  C   UNL     1       6.239  -1.598   4.184  0.00  0.00    +0.200 C 
BRANCH  25  26
ATOM     26  N   UNL     1       4.838  -1.513   3.764  0.00  0.00    -0.303 N 
ATOM     27  C   UNL     1       4.292  -0.315   3.476  0.00  0.00    +0.245 C 
ATOM     28  O   UNL     1       4.963   0.696   3.565  0.00  0.00    -0.270 OA
ATOM     29  H   UNL     1       4.303  -2.319   3.694  0.00  0.00    +0.150 HD
BRANCH  27  30
ATOM     30  C   UNL     1       2.880  -0.229   3.053  0.00  0.00    +0.040 A 
ATOM     31  C   UNL     1       2.108  -1.389   2.951  0.00  0.00    +0.017 A 
ATOM     32  C   UNL     1       0.791  -1.307   2.556  0.00  0.00    +0.050 A 
ATOM     33  C   UNL     1       0.226  -0.073   2.260  0.00  0.00    +0.166 A 
ATOM     34  C   UNL     1       0.992   1.089   2.360  0.00  0.00    +0.167 A 
ATOM     35  C   UNL     1       2.313   1.013   2.755  0.00  0.00    +0.062 A 
ATOM     36  O   UNL     1       0.211   2.155   2.018  0.00  0.00    -0.453 OA
ATOM     37  C   UNL     1      -1.146   1.681   2.104  0.00  0.00    +0.466 C 
ATOM     38  O   UNL     1      -1.031   0.268   1.855  0.00  0.00    -0.453 OA
ENDBRANCH  27  30
ENDBRANCH  25  26
ENDBRANCH   6  25
TORSDOF 6
