REMARK  Name = ZINC67382381
REMARK  9 active torsions:
REMARK  status: ('A' for Active; 'I' for Inactive)
REMARK    1  A    between atoms: C_1  and  C_2
REMARK    2  A    between atoms: C_2  and  C_4
REMARK    3  A    between atoms: C_2  and  N_14
REMARK    4  A    between atoms: N_17  and  C_18
REMARK    5  A    between atoms: C_18  and  C_19
REMARK    6  A    between atoms: C_23  and  C_25
REMARK    7  A    between atoms: N_27  and  C_28
REMARK    8  A    between atoms: C_28  and  C_29
REMARK    9  A    between atoms: C_28  and  C_30
REMARK                            x       y       z     vdW  Elec       q    Type
REMARK                         _______ _______ _______ _____ _____    ______ ____
ROOT
ATOM      1  N   UNL     1       0.688  -0.476  -1.203  0.00  0.00    -0.293 N 
ATOM      2  C   UNL     1       0.006  -0.608  -2.358  0.00  0.00    +0.300 C 
ATOM      3  O   UNL     1      -1.178  -0.335  -2.400  0.00  0.00    -0.253 OA
ATOM      4  N   UNL     1       0.637  -1.043  -3.467  0.00  0.00    -0.295 N 
ATOM      5  H   UNL     1       1.632  -0.695  -1.170  0.00  0.00    +0.151 HD
ATOM      6  H   UNL     1       1.582  -1.261  -3.434  0.00  0.00    +0.151 HD
ENDROOT
BRANCH   1   8
ATOM      7  C   UNL     1      -0.019   1.526   0.010  0.00  0.00    +0.033 C 
ATOM      8  C   UNL     1       0.002  -0.004   0.002  0.00  0.00    +0.102 C 
BRANCH   8   9
ATOM      9  C   UNL     1       0.731  -0.503   1.223  0.00  0.00    -0.027 A 
ATOM     10  C   UNL     1       2.125  -0.509   1.236  0.00  0.00    +0.006 A 
ATOM     11  C   UNL     1       2.813  -0.954   2.322  0.00  0.00    +0.009 A 
ATOM     12  C   UNL     1       2.112  -1.414   3.450  0.00  0.00    -0.018 A 
ATOM     13  C   UNL     1       2.789  -1.880   4.590  0.00  0.00    +0.008 A 
ATOM     14  C   UNL     1       2.076  -2.318   5.663  0.00  0.00    +0.001 A 
ATOM     15  C   UNL     1       0.682  -2.312   5.651  0.00  0.00    +0.001 A 
ATOM     16  C   UNL     1      -0.006  -1.867   4.564  0.00  0.00    +0.008 A 
ATOM     17  C   UNL     1       0.695  -1.408   3.437  0.00  0.00    -0.018 A 
ATOM     18  C   UNL     1       0.018  -0.936   2.299  0.00  0.00    +0.014 A 
ENDBRANCH   8   9
ENDBRANCH   1   8
BRANCH   4  19
ATOM     19  C   UNL     1      -0.104  -1.186  -4.723  0.00  0.00    +0.141 C 
BRANCH  19  20
ATOM     20  C   UNL     1       0.825  -1.684  -5.800  0.00  0.00    -0.030 A 
ATOM     21  C   UNL     1       1.526  -0.780  -6.579  0.00  0.00    +0.005 A 
ATOM     22  C   UNL     1       2.381  -1.229  -7.570  0.00  0.00    +0.001 A 
ATOM     23  C   UNL     1       2.539  -2.583  -7.788  0.00  0.00    +0.013 A 
ATOM     24  C   UNL     1       1.835  -3.499  -7.006  0.00  0.00    +0.037 A 
ATOM     25  C   UNL     1       0.978  -3.039  -6.004  0.00  0.00    +0.018 A 
BRANCH  24  26
ATOM     26  C   UNL     1       1.999  -4.950  -7.234  0.00  0.00    +0.244 C 
ATOM     27  O   UNL     1       1.385  -5.747  -6.551  0.00  0.00    -0.270 OA
ATOM     28  N   UNL     1       2.831  -5.391  -8.199  0.00  0.00    -0.309 N 
ATOM     29  H   UNL     1       3.321  -4.756  -8.744  0.00  0.00    +0.149 HD
BRANCH  28  30
ATOM     30  C   UNL     1       2.994  -6.829  -8.425  0.00  0.00    +0.067 C 
ATOM     31  C   UNL     1       1.886  -7.328  -9.356  0.00  0.00    +0.027 C 
ATOM     32  C   UNL     1       4.357  -7.093  -9.067  0.00  0.00    +0.027 C 
ENDBRANCH  28  30
ENDBRANCH  24  26
ENDBRANCH  19  20
ENDBRANCH   4  19
TORSDOF 6
