REMARK  Name = ZINC09910219
REMARK  8 active torsions:
REMARK  status: ('A' for Active; 'I' for Inactive)
REMARK    1  A    between atoms: C_1  and  C_2
REMARK    2  A    between atoms: C_7  and  C_8
REMARK    3  A    between atoms: C_7  and  N_61
REMARK    4  A    between atoms: N_20  and  C_21
REMARK    5  A    between atoms: C_21  and  C_22
REMARK    6  A    between atoms: C_25  and  S_27
REMARK    7  A    between atoms: S_27  and  N_30
REMARK    8  A    between atoms: N_30  and  C_31
REMARK                            x       y       z     vdW  Elec       q    Type
REMARK                         _______ _______ _______ _____ _____    ______ ____
ROOT
ATOM      1  C   UNL     1       0.002  -0.004   0.002  0.00  0.00    +0.116 A 
ATOM      2  N   UNL     1       1.137  -0.679  -0.013  0.00  0.00    -0.219 NA
ATOM      3  C   UNL     1       2.316  -0.076  -0.021  0.00  0.00    +0.131 A 
ATOM      4  C   UNL     1       2.363   1.345  -0.014  0.00  0.00    +0.051 A 
ATOM      5  C   UNL     1       3.545   2.221  -0.019  0.00  0.00    -0.025 A 
ATOM      6  C   UNL     1       3.319   3.545  -0.011  0.00  0.00    -0.004 A 
ATOM      7  S   UNL     1       1.549   3.712   0.008  0.00  0.00    -0.073 S 
ATOM      8  C   UNL     1       1.115   1.994   0.002  0.00  0.00    +0.114 A 
ATOM      9  N   UNL     1      -0.016   1.315   0.009  0.00  0.00    -0.227 NA
ATOM     10  C   UNL     1       4.597   4.340  -0.022  0.00  0.00    +0.043 C 
ATOM     11  C   UNL     1       5.677   3.332  -0.474  0.00  0.00    +0.010 C 
ATOM     12  C   UNL     1       5.059   1.992  -0.029  0.00  0.00    +0.037 C 
ATOM     13  N   UNL     1       3.484  -0.817  -0.038  0.00  0.00    -0.324 N 
ATOM     14  H   UNL     1       4.343  -0.368  -0.044  0.00  0.00    +0.148 HD
ENDROOT
BRANCH   1  15
ATOM     15  C   UNL     1      -1.303  -0.758   0.010  0.00  0.00    -0.001 C 
BRANCH  15  22
ATOM     16  C   UNL     1      -2.765  -2.591  -5.202  0.00  0.00    +0.007 C 
ATOM     17  C   UNL     1      -2.269  -2.537  -3.756  0.00  0.00    -0.018 C 
ATOM     18  C   UNL     1      -3.395  -2.037  -2.847  0.00  0.00    -0.016 C 
ATOM     19  C   UNL     1      -2.875  -1.926  -1.412  0.00  0.00    -0.078 C 
ATOM     20  C   UNL     1      -0.628  -1.479  -2.200  0.00  0.00    -0.078 C 
ATOM     21  C   UNL     1      -1.081  -1.576  -3.658  0.00  0.00    -0.016 C 
ATOM     22  N   UNL     1      -1.749  -0.969  -1.382  0.00  0.00    +0.384 N 
ATOM     23  H   UNL     1      -2.063  -0.072  -1.771  0.00  0.00    -0.081 HD
ENDBRANCH  15  22
ENDBRANCH   1  15
BRANCH  13  24
ATOM     24  C   UNL     1       3.423  -2.281  -0.046  0.00  0.00    +0.145 C 
BRANCH  24  25
ATOM     25  C   UNL     1       4.821  -2.842  -0.064  0.00  0.00    +0.009 A 
ATOM     26  C   UNL     1       5.624  -3.167   0.979  0.00  0.00    +0.015 A 
ATOM     27  C   UNL     1       6.884  -3.673   0.723  0.00  0.00    +0.037 A 
ATOM     28  C   UNL     1       7.280  -3.830  -0.564  0.00  0.00    +0.143 A 
ATOM     29  S   UNL     1       5.847  -3.260  -1.464  0.00  0.00    -0.072 S 
BRANCH  28  30
ATOM     30  S   UNL     1       8.810  -4.444  -1.187  0.00  0.00    +0.064 S 
ATOM     31  O   UNL     1       8.960  -3.908  -2.495  0.00  0.00    -0.153 OA
ATOM     32  O   UNL     1       9.776  -4.240  -0.166  0.00  0.00    -0.153 OA
BRANCH  30  33
ATOM     33  N   UNL     1       8.645  -6.082  -1.363  0.00  0.00    -0.193 NA
ATOM     34  C   UNL     1       7.691  -6.622  -2.335  0.00  0.00    +0.127 C 
ATOM     35  H   UNL     1       9.180  -6.684  -0.822  0.00  0.00    +0.148 HD
ENDBRANCH  30  33
ENDBRANCH  28  30
ENDBRANCH  24  25
ENDBRANCH  13  24
TORSDOF 6
