REMARK  Name = ZINC24137421
REMARK  11 active torsions:
REMARK  status: ('A' for Active; 'I' for Inactive)
REMARK    1  A    between atoms: C_1  and  C_2
REMARK    2  A    between atoms: C_2  and  C_3
REMARK    3  A    between atoms: C_2  and  C_4
REMARK    4  A    between atoms: C_4  and  C_6
REMARK    5  A    between atoms: C_4  and  N_16
REMARK    6  A    between atoms: C_17  and  C_19
REMARK    7  A    between atoms: C_19  and  N_20
REMARK    8  A    between atoms: C_23  and  C_27
REMARK    9  A    between atoms: C_23  and  C_28
REMARK   10  A    between atoms: C_31  and  O_34
REMARK   11  A    between atoms: O_34  and  C_35
REMARK                            x       y       z     vdW  Elec       q    Type
REMARK                         _______ _______ _______ _____ _____    ______ ____
ROOT
ATOM      1  N   UNL     1       3.625  -1.885   0.834  0.00  0.00    -0.307 N 
ATOM      2  C   UNL     1       4.745  -2.402   1.376  0.00  0.00    +0.231 C 
ATOM      3  O   UNL     1       5.823  -1.901   1.135  0.00  0.00    -0.274 OA
ATOM      4  H   UNL     1       2.647  -2.339   1.053  0.00  0.00    +0.149 HD
ENDROOT
BRANCH   1   5
ATOM      5  C   UNL     1       3.709  -0.717  -0.047  0.00  0.00    +0.106 C 
BRANCH   5   6
ATOM      6  C   UNL     1       2.397   0.024  -0.026  0.00  0.00    -0.023 A 
ATOM      7  C   UNL     1       1.207  -0.680  -0.016  0.00  0.00    +0.009 A 
ATOM      8  C   UNL     1       0.002  -0.004   0.002  0.00  0.00    +0.050 A 
ATOM      9  C   UNL     1      -0.017   1.383   0.010  0.00  0.00    +0.162 A 
ATOM     10  C   UNL     1       1.179   2.090   0.002  0.00  0.00    +0.162 A 
ATOM     11  C   UNL     1       2.386   1.406  -0.017  0.00  0.00    +0.055 A 
ATOM     12  O   UNL     1       1.184   3.451   0.018  0.00  0.00    -0.485 OA
ATOM     13  C   UNL     1      -0.040   4.103  -0.340  0.00  0.00    +0.270 C 
ATOM     14  C   UNL     1      -1.189   3.413   0.408  0.00  0.00    +0.270 C 
ATOM     15  O   UNL     1      -1.212   2.035   0.019  0.00  0.00    -0.485 OA
ENDBRANCH   5   6
BRANCH   5  17
ATOM     16  C   UNL     1       2.838  -2.000  -2.006  0.00  0.00    +0.009 C 
ATOM     17  C   UNL     1       4.013  -1.177  -1.475  0.00  0.00    +0.008 C 
ATOM     18  C   UNL     1       4.224   0.046  -2.370  0.00  0.00    +0.009 C 
ENDBRANCH   5  17
ENDBRANCH   1   5
BRANCH   2  19
ATOM     19  C   UNL     1       4.659  -3.603   2.282  0.00  0.00    +0.213 C 
BRANCH  19  20
ATOM     20  N   UNL     1       6.002  -3.969   2.738  0.00  0.00    -0.215 N 
ATOM     21  C   UNL     1       6.580  -3.484   3.855  0.00  0.00    +0.251 C 
ATOM     22  O   UNL     1       6.106  -2.693   4.641  0.00  0.00    -0.272 OA
ATOM     23  C   UNL     1       7.948  -4.134   3.923  0.00  0.00    +0.135 C 
ATOM     24  N   UNL     1       7.985  -4.989   2.724  0.00  0.00    -0.281 N 
ATOM     25  C   UNL     1       6.804  -4.829   2.100  0.00  0.00    +0.310 C 
ATOM     26  O   UNL     1       6.500  -5.399   1.071  0.00  0.00    -0.252 OA
ATOM     27  C   UNL     1       8.080  -4.979   5.191  0.00  0.00    +0.047 C 
ATOM     28  H   UNL     1       8.879  -5.593   2.506  0.00  0.00    +0.152 HD
BRANCH  23  29
ATOM     29  C   UNL     1       9.034  -3.091   3.864  0.00  0.00    -0.015 A 
ATOM     30  C   UNL     1       8.802  -1.823   4.364  0.00  0.00    +0.010 A 
ATOM     31  C   UNL     1       9.797  -0.867   4.316  0.00  0.00    +0.046 A 
ATOM     32  C   UNL     1      11.028  -1.176   3.755  0.00  0.00    +0.120 A 
ATOM     33  C   UNL     1      11.257  -2.448   3.248  0.00  0.00    +0.046 A 
ATOM     34  C   UNL     1      10.260  -3.402   3.304  0.00  0.00    +0.010 A 
BRANCH  32  35
ATOM     35  O   UNL     1      12.007  -0.236   3.700  0.00  0.00    -0.495 OA
ATOM     36  C   UNL     1      11.701   1.051   4.241  0.00  0.00    +0.277 C 
ENDBRANCH  32  35
ENDBRANCH  23  29
ENDBRANCH  19  20
ENDBRANCH   2  19
TORSDOF 7
