REMARK  Name = ZINC39252209
REMARK  9 active torsions:
REMARK  status: ('A' for Active; 'I' for Inactive)
REMARK    1  A    between atoms: C_1  and  C_2
REMARK    2  A    between atoms: C_2  and  C_3
REMARK    3  A    between atoms: C_3  and  C_4
REMARK    4  A    between atoms: C_3  and  C_5
REMARK    5  A    between atoms: C_3  and  C_6
REMARK    6  A    between atoms: C_13  and  C_15
REMARK    7  A    between atoms: N_20  and  C_22
REMARK    8  A    between atoms: C_22  and  C_23
REMARK    9  A    between atoms: C_23  and  C_24
REMARK                            x       y       z     vdW  Elec       q    Type
REMARK                         _______ _______ _______ _____ _____    ______ ____
ROOT
ATOM      1  C   UNL     1      -3.562  -5.764   4.863  0.00  0.00    +0.101 C 
ATOM      2  C   UNL     1      -2.638  -7.003   4.831  0.00  0.00    +0.110 C 
ATOM      3  C   UNL     1      -3.448  -8.088   5.507  0.00  0.00    +0.216 C 
ATOM      4  O   UNL     1      -2.994  -9.128   5.935  0.00  0.00    -0.276 OA
ATOM      5  N   UNL     1      -4.742  -7.731   5.564  0.00  0.00    -0.300 N 
ATOM      6  C   UNL     1      -4.961  -6.416   4.949  0.00  0.00    +0.121 C 
ENDROOT
BRANCH   1  13
ATOM      7  C   UNL     1      -1.413  -2.063   0.004  0.00  0.00    +0.159 C 
ATOM      8  N   UNL     1      -2.780  -2.622   0.113  0.00  0.00    -0.253 N 
ATOM      9  N   UNL     1      -3.015  -3.383   1.236  0.00  0.00    -0.163 NA
ATOM     10  C   UNL     1      -2.119  -3.607   2.145  0.00  0.00    +0.179 C 
ATOM     11  S   UNL     1      -0.677  -2.732   1.554  0.00  0.00    -0.064 S 
ATOM     12  N   UNL     1      -2.249  -4.356   3.311  0.00  0.00    -0.263 N 
ATOM     13  C   UNL     1      -3.422  -4.954   3.601  0.00  0.00    +0.224 C 
ATOM     14  O   UNL     1      -4.364  -4.839   2.845  0.00  0.00    -0.275 OA
ATOM     15  H   UNL     1      -3.460  -2.463  -0.560  0.00  0.00    +0.169 HD
ATOM     16  H   UNL     1      -1.496  -4.447   3.915  0.00  0.00    +0.157 HD
BRANCH   7  17
ATOM     17  C   UNL     1      -1.433  -0.534   0.013  0.00  0.00    -0.006 C 
ATOM     18  C   UNL     1      -2.149  -0.040   1.272  0.00  0.00    +0.013 C 
ATOM     19  C   UNL     1      -2.173  -0.027  -1.227  0.00  0.00    +0.013 C 
BRANCH  17  21
ATOM     20  C   UNL     1      -0.019   1.526   0.010  0.00  0.00    +0.004 C 
ATOM     21  C   UNL     1       0.002  -0.004   0.002  0.00  0.00    +0.006 C 
ENDBRANCH  17  21
ENDBRANCH   7  17
ENDBRANCH   1  13
BRANCH   5  22
ATOM     22  C   UNL     1      -5.800  -8.549   6.163  0.00  0.00    +0.112 C 
BRANCH  22  23
ATOM     23  C   UNL     1      -5.937  -8.198   7.646  0.00  0.00    +0.056 C 
BRANCH  23  24
ATOM     24  C   UNL     1      -7.025  -9.040   8.262  0.00  0.00    -0.021 A 
ATOM     25  C   UNL     1      -6.880 -10.396   8.796  0.00  0.00    +0.004 A 
ATOM     26  C   UNL     1      -5.809 -11.284   8.910  0.00  0.00    +0.030 A 
ATOM     27  C   UNL     1      -6.009 -12.523   9.479  0.00  0.00    +0.042 A 
ATOM     28  C   UNL     1      -7.268 -12.890   9.937  0.00  0.00    +0.022 A 
ATOM     29  C   UNL     1      -8.334 -12.024   9.832  0.00  0.00    +0.027 A 
ATOM     30  C   UNL     1      -8.155 -10.769   9.261  0.00  0.00    +0.047 A 
ATOM     31  N   UNL     1      -9.001  -9.708   9.021  0.00  0.00    -0.360 N 
ATOM     32  C   UNL     1      -8.309  -8.686   8.431  0.00  0.00    +0.087 A 
ATOM     33 CL   UNL     1      -4.681 -13.631   9.622  0.00  0.00    -0.084 Cl
ATOM     34  H   UNL     1      -9.945  -9.688   9.241  0.00  0.00    +0.165 HD
ENDBRANCH  23  24
ENDBRANCH  22  23
ENDBRANCH   5  22
TORSDOF 6
