REMARK  Name = ZINC05213591
REMARK  8 active torsions:
REMARK  status: ('A' for Active; 'I' for Inactive)
REMARK    1  A    between atoms: C_1  and  C_2
REMARK    2  A    between atoms: C_2  and  N_3
REMARK    3  A    between atoms: C_13  and  S_14
REMARK    4  A    between atoms: S_14  and  C_15
REMARK    5  A    between atoms: C_15  and  C_16
REMARK    6  A    between atoms: N_21  and  C_22
REMARK    7  A    between atoms: C_25  and  C_29
REMARK    8  A    between atoms: C_27  and  C_28
REMARK                            x       y       z     vdW  Elec       q    Type
REMARK                         _______ _______ _______ _____ _____    ______ ____
ROOT
ATOM      1  C   UNL     1      -5.219  -2.005   0.025  0.00  0.00    +0.231 C 
ATOM      2  O   UNL     1      -5.434  -3.198   0.029  0.00  0.00    -0.274 OA
ATOM      3  N   UNL     1      -6.248  -1.134   0.043  0.00  0.00    -0.239 N 
ATOM      4  C   UNL     1      -7.516  -1.591   0.066  0.00  0.00    +0.310 C 
ATOM      5  O   UNL     1      -7.731  -2.787   0.070  0.00  0.00    -0.252 OA
ATOM      6  N   UNL     1      -8.545  -0.721   0.085  0.00  0.00    -0.269 N 
ATOM      7  H   UNL     1      -6.076  -0.180   0.040  0.00  0.00    +0.159 HD
ATOM      8  H   UNL     1      -8.374   0.231   0.164  0.00  0.00    +0.156 HD
ENDROOT
BRANCH   6   9
ATOM      9  C   UNL     1      -9.860  -1.190  -0.010  0.00  0.00    +0.038 A 
ATOM     10  C   UNL     1     -10.121  -2.410  -0.619  0.00  0.00    +0.024 A 
ATOM     11  C   UNL     1     -11.420  -2.871  -0.711  0.00  0.00    +0.005 A 
ATOM     12  C   UNL     1     -12.460  -2.119  -0.197  0.00  0.00    -0.050 A 
ATOM     13  C   UNL     1     -12.203  -0.903   0.411  0.00  0.00    +0.008 A 
ATOM     14  C   UNL     1     -10.906  -0.440   0.510  0.00  0.00    -0.029 A 
ATOM     15  C   UNL     1     -10.626   0.882   1.178  0.00  0.00    +0.045 C 
ATOM     16  C   UNL     1     -13.876  -2.624  -0.298  0.00  0.00    +0.044 C 
ENDBRANCH   6   9
BRANCH   1  17
ATOM     17  C   UNL     1      -3.801  -1.494  -0.001  0.00  0.00    +0.173 C 
BRANCH  17  18
ATOM     18  S   UNL     1      -2.656  -2.896  -0.022  0.00  0.00    -0.078 S 
BRANCH  18  29
ATOM     19  N   UNL     1       0.036  -2.763  -0.071  0.00  0.00    -0.288 N 
ATOM     20  C   UNL     1       1.238  -2.143  -0.092  0.00  0.00    +0.262 A 
ATOM     21  O   UNL     1       2.276  -2.779  -0.110  0.00  0.00    -0.267 OA
ATOM     22  C   UNL     1       1.244  -0.674  -0.093  0.00  0.00    +0.065 A 
ATOM     23  C   UNL     1       2.430   0.058  -0.114  0.00  0.00    +0.015 A 
ATOM     24  C   UNL     1       2.379   1.425  -0.113  0.00  0.00    +0.001 A 
ATOM     25  C   UNL     1       1.159   2.089  -0.091  0.00  0.00    +0.002 A 
ATOM     26  C   UNL     1      -0.019   1.396  -0.070  0.00  0.00    +0.028 A 
ATOM     27  C   UNL     1       0.001  -0.002  -0.071  0.00  0.00    +0.079 A 
ATOM     28  N   UNL     1      -1.137  -0.724  -0.050  0.00  0.00    -0.223 NA
ATOM     29  C   UNL     1      -1.119  -2.034  -0.050  0.00  0.00    +0.173 A 
BRANCH  19  31
ATOM     30  C   UNL     1      -0.025  -4.736   1.373  0.00  0.00    +0.027 C 
ATOM     31  C   UNL     1      -0.028  -4.227  -0.069  0.00  0.00    +0.124 C 
ENDBRANCH  19  31
ENDBRANCH  18  29
ENDBRANCH  17  18
ENDBRANCH   1  17
TORSDOF 5
