REMARK  Name = ZINC15725984
REMARK  7 active torsions:
REMARK  status: ('A' for Active; 'I' for Inactive)
REMARK    1  A    between atoms: C_1  and  C_2
REMARK    2  A    between atoms: C_5  and  N_9
REMARK    3  A    between atoms: C_6  and  C_8
REMARK    4  A    between atoms: N_9  and  S_10
REMARK    5  A    between atoms: S_10  and  C_13
REMARK    6  A    between atoms: C_19  and  C_23
REMARK    7  A    between atoms: C_19  and  C_24
REMARK                            x       y       z     vdW  Elec       q    Type
REMARK                         _______ _______ _______ _____ _____    ______ ____
ROOT
ATOM      1  S   UNL     1       2.513  -0.376  -0.741  0.00  0.00    +0.072 S 
ATOM      2  O   UNL     1       3.837  -0.841  -0.513  0.00  0.00    -0.150 OA
ATOM      3  O   UNL     1       1.367  -1.113  -0.338  0.00  0.00    -0.150 OA
ENDROOT
BRANCH   1   4
ATOM      4  C   UNL     1       2.362  -0.119  -2.478  0.00  0.00    +0.109 A 
ATOM      5  C   UNL     1       1.117  -0.154  -3.078  0.00  0.00    +0.030 A 
ATOM      6  C   UNL     1       0.991   0.051  -4.436  0.00  0.00    +0.025 A 
ATOM      7  C   UNL     1       2.122   0.285  -5.216  0.00  0.00    +0.038 A 
ATOM      8  C   UNL     1       3.368   0.313  -4.602  0.00  0.00    -0.010 A 
ATOM      9  C   UNL     1       3.490   0.113  -3.245  0.00  0.00    +0.035 A 
ATOM     10  C   UNL     1       4.375   0.584  -5.696  0.00  0.00    +0.068 C 
ATOM     11  C   UNL     1       3.534   0.696  -6.950  0.00  0.00    +0.227 C 
ATOM     12  O   UNL     1       3.940   0.912  -8.072  0.00  0.00    -0.275 OA
ATOM     13  N   UNL     1       2.254   0.512  -6.586  0.00  0.00    -0.285 N 
ATOM     14  C   UNL     1       5.117   1.895  -5.429  0.00  0.00    +0.025 C 
ATOM     15  C   UNL     1       5.363  -0.578  -5.815  0.00  0.00    +0.025 C 
ATOM     16  H   UNL     1       1.507   0.535  -7.205  0.00  0.00    +0.155 HD
ENDBRANCH   1   4
BRANCH   1  17
ATOM     17  N   UNL     1       2.401   1.108  -0.015  0.00  0.00    -0.216 N 
ATOM     18  H   UNL     1       3.139   1.445   0.517  0.00  0.00    +0.174 HD
BRANCH  17  23
ATOM     19  C   UNL     1      -2.296   4.222  -0.643  0.00  0.00    +0.044 C 
ATOM     20  C   UNL     1      -1.048   3.395  -0.476  0.00  0.00    -0.050 A 
ATOM     21  C   UNL     1      -1.140   2.017  -0.393  0.00  0.00    +0.005 A 
ATOM     22  C   UNL     1       0.002   1.256  -0.234  0.00  0.00    +0.025 A 
ATOM     23  C   UNL     1       1.244   1.875  -0.169  0.00  0.00    +0.051 A 
ATOM     24  C   UNL     1       1.333   3.259  -0.258  0.00  0.00    -0.028 A 
ATOM     25  C   UNL     1       0.186   4.014  -0.410  0.00  0.00    +0.008 A 
ATOM     26  C   UNL     1       2.678   3.934  -0.186  0.00  0.00    +0.046 C 
ENDBRANCH  17  23
ENDBRANCH   1  17
TORSDOF 3
