REMARK  Name = ZINC30956295
REMARK  13 active torsions:
REMARK  status: ('A' for Active; 'I' for Inactive)
REMARK    1  A    between atoms: C_1  and  C_2
REMARK    2  A    between atoms: C_2  and  O_3
REMARK    3  A    between atoms: O_3  and  C_4
REMARK    4  A    between atoms: C_4  and  C_6
REMARK    5  A    between atoms: C_6  and  N_7
REMARK    6  A    between atoms: C_9  and  C_16
REMARK    7  A    between atoms: N_17  and  N_18
REMARK    8  A    between atoms: C_19  and  C_21
REMARK    9  A    between atoms: C_21  and  C_23
REMARK   10  A    between atoms: C_21  and  N_26
REMARK   11  A    between atoms: C_23  and  C_24
REMARK   12  A    between atoms: C_23  and  C_25
REMARK   13  A    between atoms: C_27  and  C_29
REMARK                            x       y       z     vdW  Elec       q    Type
REMARK                         _______ _______ _______ _____ _____    ______ ____
ROOT
ATOM      1  N   UNL     1       0.003  -4.894  -0.019  0.00  0.00    -0.205 N 
ATOM      2  C   UNL     1      -0.647  -6.073  -0.083  0.00  0.00    +0.253 C 
ATOM      3  O   UNL     1      -0.081  -7.096   0.240  0.00  0.00    -0.272 OA
ATOM      4  H   UNL     1      -0.481  -3.978  -0.390  0.00  0.00    +0.177 HD
ENDROOT
BRANCH   1   6
ATOM      5  C   UNL     1       1.875  -3.686   0.691  0.00  0.00    +0.140 C 
ATOM      6  N   UNL     1       1.295  -4.835   0.519  0.00  0.00    -0.188 NA
BRANCH   5   9
ATOM      7  N   UNL     1      -0.669  -1.078   0.979  0.00  0.00    -0.335 N 
ATOM      8  C   UNL     1      -0.282  -2.384   0.939  0.00  0.00    +0.097 A 
ATOM      9  C   UNL     1       1.067  -2.459   0.781  0.00  0.00    +0.020 A 
ATOM     10  C   UNL     1       1.560  -1.072   0.719  0.00  0.00    +0.009 A 
ATOM     11  C   UNL     1       0.426  -0.252   0.843  0.00  0.00    +0.050 A 
ATOM     12  C   UNL     1       0.580   1.131   0.826  0.00  0.00    +0.026 A 
ATOM     13  C   UNL     1       1.833   1.682   0.676  0.00  0.00    +0.002 A 
ATOM     14  C   UNL     1       2.952   0.871   0.549  0.00  0.00    +0.001 A 
ATOM     15  C   UNL     1       2.822  -0.501   0.569  0.00  0.00    +0.010 A 
BRANCH   7  16
ATOM     16  C   UNL     1      -2.050  -0.618   1.139  0.00  0.00    +0.242 C 
BRANCH  16  17
ATOM     17  C   UNL     1      -2.649  -0.348  -0.217  0.00  0.00    +0.327 C 
ATOM     18  O   UNL     1      -1.990  -0.522  -1.215  0.00  0.00    -0.249 OA
BRANCH  17  19
ATOM     19  O   UNL     1      -3.916   0.086  -0.318  0.00  0.00    -0.464 OA
BRANCH  19  21
ATOM     20  C   UNL     1      -5.875   0.812  -1.569  0.00  0.00    +0.048 C 
ATOM     21  C   UNL     1      -4.427   0.326  -1.655  0.00  0.00    +0.229 C 
ENDBRANCH  19  21
ENDBRANCH  17  19
ENDBRANCH  16  17
ENDBRANCH   7  16
ENDBRANCH   5   9
ENDBRANCH   1   6
BRANCH   2  22
ATOM     22  C   UNL     1      -2.077  -6.120  -0.557  0.00  0.00    +0.163 C 
BRANCH  22  23
ATOM     23  N   UNL     1      -2.614  -7.468  -0.356  0.00  0.00    -0.300 N 
ATOM     24  C   UNL     1      -3.942  -7.651  -0.217  0.00  0.00    +0.246 C 
ATOM     25  O   UNL     1      -4.694  -6.697  -0.258  0.00  0.00    -0.270 OA
ATOM     26  H   UNL     1      -1.933  -8.332  -0.318  0.00  0.00    +0.150 HD
BRANCH  24  27
ATOM     27  C   UNL     1      -4.484  -9.011  -0.014  0.00  0.00    +0.055 A 
ATOM     28  C   UNL     1      -3.623 -10.109   0.029  0.00  0.00    +0.014 A 
ATOM     29  C   UNL     1      -4.134 -11.375   0.225  0.00  0.00    +0.001 A 
ATOM     30  C   UNL     1      -5.499 -11.560   0.367  0.00  0.00    +0.001 A 
ATOM     31  C   UNL     1      -6.358 -10.478   0.321  0.00  0.00    +0.021 A 
ATOM     32  C   UNL     1      -5.860  -9.204   0.131  0.00  0.00    +0.053 A 
ATOM     33 CL   UNL     1      -6.940  -7.846   0.072  0.00  0.00    -0.083 Cl
ENDBRANCH  24  27
ENDBRANCH  22  23
BRANCH  22  34
ATOM     34  C   UNL     1      -2.133  -5.766  -2.045  0.00  0.00    +0.012 C 
ATOM     35  C   UNL     1      -1.358  -6.812  -2.848  0.00  0.00    +0.009 C 
ATOM     36  C   UNL     1      -3.591  -5.744  -2.509  0.00  0.00    +0.009 C 
ENDBRANCH  22  34
ENDBRANCH   2  22
TORSDOF 10
