REMARK  Name = ZINC09158670
REMARK  12 active torsions:
REMARK  status: ('A' for Active; 'I' for Inactive)
REMARK    1  A    between atoms: C_1  and  C_2
REMARK    2  A    between atoms: C_2  and  O_3
REMARK    3  A    between atoms: O_3  and  C_4
REMARK    4  A    between atoms: C_4  and  C_6
REMARK    5  A    between atoms: C_7  and  C_32
REMARK    6  A    between atoms: C_12  and  C_14
REMARK    7  A    between atoms: C_14  and  S_15
REMARK    8  A    between atoms: S_15  and  C_16
REMARK    9  A    between atoms: C_18  and  C_23
REMARK   10  A    between atoms: C_23  and  S_24
REMARK   11  A    between atoms: S_24  and  C_25
REMARK   12  A    between atoms: C_28  and  C_31
REMARK                            x       y       z     vdW  Elec       q    Type
REMARK                         _______ _______ _______ _____ _____    ______ ____
ROOT
ATOM      1  S   UNL     1      -9.719  -0.342   0.068  0.00  0.00    -0.077 S 
ENDROOT
BRANCH   1   2
ATOM      2  C   UNL     1     -11.461  -0.607   0.081  0.00  0.00    +0.192 A 
ATOM      3  N   UNL     1     -12.275   0.439   0.082  0.00  0.00    -0.226 NA
ATOM      4  C   UNL     1     -13.589   0.278   0.092  0.00  0.00    +0.059 A 
ATOM      5  C   UNL     1     -14.113  -1.001   0.101  0.00  0.00    +0.096 A 
ATOM      6  C   UNL     1     -13.232  -2.081   0.099  0.00  0.00    +0.274 A 
ATOM      7  N   UNL     1     -11.926  -1.848   0.084  0.00  0.00    -0.183 NA
ATOM      8  O   UNL     1     -13.704  -3.352   0.108  0.00  0.00    -0.266 OA
BRANCH   4   9
ATOM      9  C   UNL     1     -14.503   1.476   0.093  0.00  0.00    +0.130 C 
BRANCH   9  10
ATOM     10  S   UNL     1     -14.882   1.951  -1.616  0.00  0.00    -0.119 S 
BRANCH  10  11
ATOM     11  C   UNL     1     -15.944   3.346  -1.446  0.00  0.00    +0.008 A 
ATOM     12  C   UNL     1     -16.282   3.814  -0.182  0.00  0.00    +0.015 A 
ATOM     13  C   UNL     1     -17.116   4.907  -0.053  0.00  0.00    +0.004 A 
ATOM     14  C   UNL     1     -17.614   5.536  -1.179  0.00  0.00    -0.050 A 
ATOM     15  C   UNL     1     -17.280   5.073  -2.439  0.00  0.00    +0.004 A 
ATOM     16  C   UNL     1     -16.442   3.984  -2.576  0.00  0.00    +0.015 A 
ATOM     17  C   UNL     1     -18.523   6.729  -1.034  0.00  0.00    +0.044 C 
ENDBRANCH  10  11
ENDBRANCH   9  10
ENDBRANCH   4   9
ENDBRANCH   1   2
BRANCH   1  18
ATOM     18  C   UNL     1      -9.020  -2.015   0.062  0.00  0.00    +0.173 C 
BRANCH  18  25
ATOM     19  C   UNL     1      -2.840  -2.416   0.016  0.00  0.00    +0.120 A 
ATOM     20  C   UNL     1      -3.233  -3.748   0.018  0.00  0.00    +0.062 A 
ATOM     21  N   UNL     1      -4.522  -3.972   0.028  0.00  0.00    -0.229 NA
ATOM     22  C   UNL     1      -5.396  -2.982   0.035  0.00  0.00    +0.165 A 
ATOM     23  S   UNL     1      -4.430  -1.604   0.036  0.00  0.00    -0.045 S 
ATOM     24  N   UNL     1      -6.777  -3.059   0.045  0.00  0.00    -0.264 N 
ATOM     25  C   UNL     1      -7.515  -1.931   0.051  0.00  0.00    +0.229 C 
ATOM     26  O   UNL     1      -6.969  -0.849   0.048  0.00  0.00    -0.275 OA
ATOM     27  C   UNL     1      -2.230  -4.872   0.010  0.00  0.00    +0.067 C 
ATOM     28  H   UNL     1      -7.215  -3.925   0.048  0.00  0.00    +0.157 HD
BRANCH  19  29
ATOM     29  C   UNL     1      -1.497  -1.839   0.006  0.00  0.00    +0.348 C 
ATOM     30  O   UNL     1      -0.522  -2.567  -0.007  0.00  0.00    -0.244 OA
BRANCH  29  31
ATOM     31  O   UNL     1      -1.339  -0.499   0.012  0.00  0.00    -0.461 OA
BRANCH  31  33
ATOM     32  C   UNL     1      -0.019   1.526   0.010  0.00  0.00    +0.048 C 
ATOM     33  C   UNL     1       0.002  -0.004   0.002  0.00  0.00    +0.229 C 
ENDBRANCH  31  33
ENDBRANCH  29  31
ENDBRANCH  19  29
ENDBRANCH  18  25
ENDBRANCH   1  18
TORSDOF 9
