REMARK  Name = ZINC41991252
REMARK  4 active torsions:
REMARK  status: ('A' for Active; 'I' for Inactive)
REMARK    1  A    between atoms: C_4  and  S_8
REMARK    2  A    between atoms: C_6  and  N_7
REMARK    3  A    between atoms: S_8  and  C_9
REMARK    4  A    between atoms: C_9  and  C_16
REMARK                            x       y       z     vdW  Elec       q    Type
REMARK                         _______ _______ _______ _____ _____    ______ ____
ROOT
ATOM      1  C   UNL     1       0.844   1.936  -0.665  0.00  0.00    +0.086 A 
ATOM      2  C   UNL     1       2.170   2.359  -0.688  0.00  0.00    +0.122 A 
ATOM      3  N   UNL     1       3.140   1.458  -0.553  0.00  0.00    -0.207 NA
ATOM      4  C   UNL     1       2.856   0.173  -0.399  0.00  0.00    +0.193 A 
ATOM      5  N   UNL     1       1.606  -0.266  -0.372  0.00  0.00    -0.207 NA
ATOM      6  C   UNL     1       0.585   0.578  -0.501  0.00  0.00    +0.122 A 
ATOM      7  N   UNL     1       2.476   3.701  -0.850  0.00  0.00    -0.343 N 
ATOM      8  H   UNL     1       1.764   4.353  -0.947  0.00  0.00    +0.144 HD
ATOM      9  H   UNL     1       3.402   3.989  -0.865  0.00  0.00    +0.144 HD
ENDROOT
BRANCH   6  10
ATOM     10  N   UNL     1      -0.720   0.111  -0.471  0.00  0.00    -0.343 N 
ATOM     11  H   UNL     1      -1.460   0.732  -0.565  0.00  0.00    +0.144 HD
ATOM     12  H   UNL     1      -0.894  -0.836  -0.357  0.00  0.00    +0.144 HD
ENDBRANCH   6  10
BRANCH   4  13
ATOM     13  S   UNL     1       4.175  -0.983  -0.225  0.00  0.00    -0.068 S 
BRANCH  13  14
ATOM     14  C   UNL     1       3.337  -2.581  -0.044  0.00  0.00    +0.125 C 
ATOM     15  C   UNL     1       2.376  -2.507   1.158  0.00  0.00    +0.029 C 
ATOM     16  C   UNL     1       1.943  -3.896   1.664  0.00  0.00    +0.002 C 
ATOM     17  C   UNL     1       1.639  -4.849   0.540  0.00  0.00    +0.000 C 
ATOM     18  C   UNL     1       2.908  -5.671   0.237  0.00  0.00    +0.000 C 
ATOM     19  C   UNL     1       3.862  -4.938  -0.582  0.00  0.00    +0.002 C 
ATOM     20  C   UNL     1       4.374  -3.660   0.114  0.00  0.00    +0.029 C 
BRANCH  14  21
ATOM     21  C   UNL     1       2.534  -2.855  -1.290  0.00  0.00    +0.372 C 
ATOM     22  O   UNL     1       3.103  -3.129  -2.333  0.00  0.00    -0.245 OA
ATOM     23  O   UNL     1       1.317  -2.801  -1.256  0.00  0.00    -0.245 OA
ENDBRANCH  14  21
ENDBRANCH  13  14
ENDBRANCH   4  13
TORSDOF 4
