REMARK  Name = ZINC03227048
REMARK  8 active torsions:
REMARK  status: ('A' for Active; 'I' for Inactive)
REMARK    1  A    between atoms: C_1  and  C_2
REMARK    2  A    between atoms: C_5  and  S_8
REMARK    3  A    between atoms: S_8  and  N_11
REMARK    4  A    between atoms: N_11  and  C_12
REMARK    5  A    between atoms: C_24  and  S_26
REMARK    6  A    between atoms: S_26  and  C_27
REMARK    7  A    between atoms: C_29  and  C_34
REMARK    8  A    between atoms: C_31  and  C_33
REMARK                            x       y       z     vdW  Elec       q    Type
REMARK                         _______ _______ _______ _____ _____    ______ ____
ROOT
ATOM      1  C   UNL     1       2.512  -4.699   1.113  0.00  0.00    +0.125 C 
ATOM      2  C   UNL     1       2.608  -5.899   2.023  0.00  0.00    -0.019 A 
ATOM      3  C   UNL     1       1.712  -6.624   2.748  0.00  0.00    +0.006 A 
ATOM      4  C   UNL     1       2.139  -7.713   3.511  0.00  0.00    +0.001 A 
ATOM      5  C   UNL     1       3.448  -8.096   3.568  0.00  0.00    +0.008 A 
ATOM      6  C   UNL     1       4.398  -7.370   2.833  0.00  0.00    -0.017 A 
ATOM      7  C   UNL     1       3.945  -6.278   2.072  0.00  0.00    -0.009 A 
ATOM      8  C   UNL     1       4.799  -5.489   1.307  0.00  0.00    -0.024 A 
ATOM      9  C   UNL     1       6.124  -5.799   1.306  0.00  0.00    +0.005 A 
ATOM     10  C   UNL     1       6.598  -6.879   2.054  0.00  0.00    +0.001 A 
ATOM     11  C   UNL     1       5.772  -7.661   2.809  0.00  0.00    +0.008 A 
ATOM     12  C   UNL     1       3.956  -4.426   0.640  0.00  0.00    +0.108 C 
ENDROOT
BRANCH   1  13
ATOM     13  N   UNL     1       1.651  -4.999  -0.034  0.00  0.00    -0.181 NA
ATOM     14  H   UNL     1       2.011  -5.473  -0.800  0.00  0.00    +0.149 HD
BRANCH  13  15
ATOM     15  S   UNL     1       0.063  -4.530  -0.023  0.00  0.00    +0.059 S 
ATOM     16  O   UNL     1      -0.476  -4.950   1.223  0.00  0.00    -0.153 OA
ATOM     17  O   UNL     1      -0.490  -4.937  -1.267  0.00  0.00    -0.153 OA
BRANCH  15  22
ATOM     18  C   UNL     1      -0.018   1.503   0.010  0.00  0.00    +0.044 C 
ATOM     19  C   UNL     1       0.002  -0.004   0.002  0.00  0.00    -0.050 A 
ATOM     20  C   UNL     1       0.006  -0.689  -1.199  0.00  0.00    +0.005 A 
ATOM     21  C   UNL     1       0.025  -2.071  -1.206  0.00  0.00    +0.029 A 
ATOM     22  C   UNL     1       0.040  -2.768  -0.013  0.00  0.00    +0.105 A 
ATOM     23  C   UNL     1       0.037  -2.084   1.188  0.00  0.00    +0.029 A 
ATOM     24  C   UNL     1       0.023  -0.702   1.195  0.00  0.00    +0.005 A 
ENDBRANCH  15  22
ENDBRANCH  13  15
ENDBRANCH   1  13
BRANCH  12  25
ATOM     25  S   UNL     1       4.067  -4.575  -1.164  0.00  0.00    -0.076 S 
BRANCH  25  26
ATOM     26  C   UNL     1       5.721  -4.093  -1.532  0.00  0.00    +0.189 A 
ATOM     27  N   UNL     1       6.529  -3.743  -0.540  0.00  0.00    -0.227 NA
ATOM     28  C   UNL     1       7.776  -3.376  -0.782  0.00  0.00    +0.043 A 
ATOM     29  C   UNL     1       8.235  -3.360  -2.090  0.00  0.00    +0.046 A 
ATOM     30  C   UNL     1       7.364  -3.731  -3.102  0.00  0.00    +0.043 A 
ATOM     31  N   UNL     1       6.130  -4.093  -2.792  0.00  0.00    -0.227 NA
ATOM     32  C   UNL     1       7.820  -3.728  -4.539  0.00  0.00    +0.066 C 
ATOM     33  C   UNL     1       8.687  -2.980   0.351  0.00  0.00    +0.066 C 
ENDBRANCH  25  26
ENDBRANCH  12  25
TORSDOF 5
