REMARK  Name = ZINC00602908
REMARK  4 active torsions:
REMARK  status: ('A' for Active; 'I' for Inactive)
REMARK    1  A    between atoms: N_7  and  C_15
REMARK    2  A    between atoms: C_15  and  C_16
REMARK    3  A    between atoms: C_16  and  N_17
REMARK    4  A    between atoms: C_20  and  C_23
REMARK                            x       y       z     vdW  Elec       q    Type
REMARK                         _______ _______ _______ _____ _____    ______ ____
ROOT
ATOM      1  N   UNL     1      -0.964  -4.460  -1.422  0.00  0.00    +0.383 N 
ATOM      2  C   UNL     1      -1.330  -4.813  -2.803  0.00  0.00    -0.074 C 
ATOM      3  C   UNL     1      -2.160  -6.098  -2.776  0.00  0.00    +0.017 C 
ATOM      4  C   UNL     1      -3.267  -5.962  -1.766  0.00  0.00    -0.046 C 
ATOM      5  C   UNL     1      -3.264  -5.025  -0.840  0.00  0.00    -0.041 C 
ATOM      6  C   UNL     1      -2.166  -4.009  -0.710  0.00  0.00    -0.051 C 
ATOM      7  H   UNL     1      -0.580  -5.269  -0.957  0.00  0.00    -0.081 HD
ENDROOT
BRANCH   4   8
ATOM      8  C   UNL     1      -4.396  -6.911  -1.814  0.00  0.00    +0.003 A 
ATOM      9  C   UNL     1      -5.410  -6.919  -2.717  0.00  0.00    +0.091 A 
ATOM     10  N   UNL     1      -6.265  -7.947  -2.440  0.00  0.00    -0.360 N 
ATOM     11  H   UNL     1      -7.065  -8.155  -2.947  0.00  0.00    +0.165 HD
ATOM     12  C   UNL     1      -5.826  -8.647  -1.336  0.00  0.00    +0.050 A 
ATOM     13  C   UNL     1      -4.638  -8.038  -0.897  0.00  0.00    +0.007 A 
ATOM     14  C   UNL     1      -3.963  -8.544   0.212  0.00  0.00    +0.013 A 
ATOM     15  C   UNL     1      -4.463  -9.644   0.873  0.00  0.00    +0.039 A 
ATOM     16  C   UNL     1      -5.636 -10.249   0.438  0.00  0.00    +0.125 A 
ATOM     17  C   UNL     1      -6.319  -9.754  -0.653  0.00  0.00    +0.064 A 
ATOM     18  F   UNL     1      -6.116 -11.328   1.095  0.00  0.00    -0.205 F 
ENDBRANCH   4   8
BRANCH   1  19
ATOM     19  C   UNL     1       0.032  -3.381  -1.437  0.00  0.00    -0.057 C 
BRANCH  19  20
ATOM     20  C   UNL     1       0.495  -3.094  -0.007  0.00  0.00    +0.114 C 
BRANCH  20  27
ATOM     21  C   UNL     1      -0.017   1.383   0.010  0.00  0.00    +0.002 A 
ATOM     22  C   UNL     1       1.141   2.142   0.003  0.00  0.00    +0.005 A 
ATOM     23  C   UNL     1       2.376   1.536  -0.015  0.00  0.00    -0.023 A 
ATOM     24  C   UNL     1       2.405   0.136  -0.029  0.00  0.00    +0.078 A 
ATOM     25  C   UNL     1       1.252  -0.638  -0.017  0.00  0.00    +0.075 A 
ATOM     26  C   UNL     1       0.002  -0.004   0.002  0.00  0.00    +0.027 A 
ATOM     27  N   UNL     1       1.488  -2.017  -0.023  0.00  0.00    -0.191 N 
ATOM     28  S   UNL     1       3.159  -2.168  -0.051  0.00  0.00    +0.129 S 
ATOM     29  O   UNL     1       3.562  -2.723   1.194  0.00  0.00    -0.135 OA
ATOM     30  O   UNL     1       3.519  -2.725  -1.307  0.00  0.00    -0.135 OA
ATOM     31  N   UNL     1       3.610  -0.575  -0.060  0.00  0.00    -0.188 N 
ATOM     32  C   UNL     1       4.920   0.059  -0.097  0.00  0.00    +0.133 C 
ATOM     33  C   UNL     1       4.760   1.447  -0.736  0.00  0.00    +0.025 C 
ATOM     34  C   UNL     1       3.687   2.265  -0.013  0.00  0.00    +0.039 C 
ENDBRANCH  20  27
ENDBRANCH  19  20
ENDBRANCH   1  19
TORSDOF 4
