REMARK  Name = ZINC35313240
REMARK  9 active torsions:
REMARK  status: ('A' for Active; 'I' for Inactive)
REMARK    1  A    between atoms: C_1  and  C_2
REMARK    2  A    between atoms: C_9  and  C_11
REMARK    3  A    between atoms: N_13  and  C_14
REMARK    4  A    between atoms: N_21  and  C_32
REMARK    5  A    between atoms: C_22  and  C_24
REMARK    6  A    between atoms: N_26  and  C_27
REMARK    7  A    between atoms: C_32  and  C_33
REMARK    8  A    between atoms: C_32  and  C_34
REMARK    9  A    between atoms: C_32  and  C_35
REMARK                            x       y       z     vdW  Elec       q    Type
REMARK                         _______ _______ _______ _____ _____    ______ ____
ROOT
ATOM      1  C   UNL     1      -0.148   1.653  -0.382  0.00  0.00    +0.047 C 
ATOM      2  C   UNL     1      -0.098   0.140  -0.164  0.00  0.00    +0.098 C 
ATOM      3  C   UNL     1      -1.459  -0.556  -0.055  0.00  0.00    +0.007 C 
ATOM      4  C   UNL     1      -1.271  -1.695   0.623  0.00  0.00    +0.009 C 
ATOM      5  C   UNL     1       0.192  -1.710   0.888  0.00  0.00    +0.128 C 
ATOM      6  O   UNL     1       0.530  -0.311   1.090  0.00  0.00    -0.355 OA
ATOM      7  C   UNL     1       0.909  -2.025  -0.476  0.00  0.00    +0.128 C 
ATOM      8  C   UNL     1       0.760  -0.660  -1.198  0.00  0.00    +0.125 C 
ATOM      9  C   UNL     1       2.299  -2.342  -0.001  0.00  0.00    +0.224 C 
ATOM     10  O   UNL     1       3.310  -2.225  -0.660  0.00  0.00    -0.275 OA
ATOM     11  N   UNL     1       2.245  -2.779   1.283  0.00  0.00    -0.281 N 
ATOM     12  C   UNL     1       0.878  -2.655   1.823  0.00  0.00    +0.199 C 
ENDROOT
BRANCH   8  13
ATOM     13  C   UNL     1       2.093   0.006  -1.422  0.00  0.00    +0.220 C 
ATOM     14  O   UNL     1       2.649   0.574  -0.506  0.00  0.00    -0.275 OA
ATOM     15  N   UNL     1       2.668  -0.030  -2.640  0.00  0.00    -0.312 N 
ATOM     16  H   UNL     1       2.223  -0.485  -3.373  0.00  0.00    +0.149 HD
BRANCH  15  17
ATOM     17  C   UNL     1       3.964   0.617  -2.858  0.00  0.00    +0.073 C 
ATOM     18  C   UNL     1       3.758   2.098  -3.239  0.00  0.00    +0.022 C 
ATOM     19  C   UNL     1       4.860   2.376  -4.291  0.00  0.00    +0.002 C 
ATOM     20  C   UNL     1       4.901   1.057  -5.102  0.00  0.00    +0.002 C 
ATOM     21  C   UNL     1       4.691  -0.044  -4.043  0.00  0.00    +0.022 C 
ENDBRANCH  15  17
ENDBRANCH   8  13
BRANCH  12  22
ATOM     22  C   UNL     1       0.203  -4.002   1.803  0.00  0.00    +0.237 C 
ATOM     23  O   UNL     1       0.676  -4.909   1.152  0.00  0.00    -0.274 OA
ATOM     24  N   UNL     1      -0.929  -4.199   2.509  0.00  0.00    -0.311 N 
ATOM     25  H   UNL     1      -1.308  -3.474   3.030  0.00  0.00    +0.149 HD
BRANCH  24  26
ATOM     26  C   UNL     1      -1.586  -5.508   2.490  0.00  0.00    +0.073 C 
ATOM     27  C   UNL     1      -2.570  -5.588   1.304  0.00  0.00    +0.022 C 
ATOM     28  C   UNL     1      -3.767  -6.400   1.859  0.00  0.00    +0.002 C 
ATOM     29  C   UNL     1      -3.884  -5.886   3.315  0.00  0.00    +0.002 C 
ATOM     30  C   UNL     1      -2.421  -5.697   3.768  0.00  0.00    +0.022 C 
ENDBRANCH  24  26
ENDBRANCH  12  22
BRANCH  11  31
ATOM     31  C   UNL     1       3.392  -3.292   2.036  0.00  0.00    +0.030 C 
ATOM     32  C   UNL     1       4.640  -3.255   1.152  0.00  0.00    +0.031 C 
ATOM     33  C   UNL     1       3.618  -2.424   3.275  0.00  0.00    +0.031 C 
ATOM     34  C   UNL     1       3.115  -4.734   2.467  0.00  0.00    +0.031 C 
ENDBRANCH  11  31
TORSDOF 5
