REMARK  Name = ZINC63533146
REMARK  11 active torsions:
REMARK  status: ('A' for Active; 'I' for Inactive)
REMARK    1  A    between atoms: C_1  and  N_2
REMARK    2  A    between atoms: N_2  and  C_3
REMARK    3  A    between atoms: N_2  and  C_4
REMARK    4  A    between atoms: C_7  and  S_25
REMARK    5  A    between atoms: C_9  and  C_10
REMARK    6  A    between atoms: N_12  and  C_13
REMARK    7  A    between atoms: C_13  and  C_14
REMARK    8  A    between atoms: C_14  and  C_15
REMARK    9  A    between atoms: S_25  and  N_28
REMARK   10  A    between atoms: N_28  and  C_29
REMARK   11  A    between atoms: N_28  and  C_30
REMARK                            x       y       z     vdW  Elec       q    Type
REMARK                         _______ _______ _______ _____ _____    ______ ____
ROOT
ATOM      1  C   UNL     1      -3.320  -0.980  -1.944  0.00  0.00    +0.246 C 
ATOM      2  O   UNL     1      -3.559  -0.312  -0.957  0.00  0.00    -0.270 OA
ATOM      3  N   UNL     1      -4.327  -1.578  -2.613  0.00  0.00    -0.311 N 
ATOM      4  H   UNL     1      -4.136  -2.111  -3.401  0.00  0.00    +0.149 HD
ENDROOT
BRANCH   1  10
ATOM      5  C   UNL     1      -0.880  -0.517  -1.716  0.00  0.00    +0.043 A 
ATOM      6  C   UNL     1       0.426  -0.677  -2.161  0.00  0.00    +0.045 A 
ATOM      7  C   UNL     1       0.686  -1.438  -3.283  0.00  0.00    +0.069 A 
ATOM      8  C   UNL     1      -0.352  -2.048  -3.974  0.00  0.00    +0.125 A 
ATOM      9  C   UNL     1      -1.652  -1.900  -3.547  0.00  0.00    +0.045 A 
ATOM     10  C   UNL     1      -1.931  -1.137  -2.410  0.00  0.00    +0.060 A 
ATOM     11 CL   UNL     1       2.321  -1.634  -3.834  0.00  0.00    -0.081 Cl
BRANCH   5  13
ATOM     12  C   UNL     1      -1.411   1.683  -0.722  0.00  0.00    +0.129 C 
ATOM     13  N   UNL     1      -1.144   0.248  -0.588  0.00  0.00    -0.335 N 
ATOM     14  C   UNL     1      -1.156  -0.379   0.736  0.00  0.00    +0.129 C 
ENDBRANCH   5  13
BRANCH   8  15
ATOM     15  S   UNL     1      -0.003  -3.016  -5.404  0.00  0.00    +0.062 S 
ATOM     16  O   UNL     1      -1.254  -3.467  -5.905  0.00  0.00    -0.153 OA
ATOM     17  O   UNL     1       0.905  -2.261  -6.194  0.00  0.00    -0.153 OA
BRANCH  15  18
ATOM     18  N   UNL     1       0.817  -4.362  -4.897  0.00  0.00    -0.183 NA
ATOM     19  C   UNL     1       0.080  -5.509  -4.360  0.00  0.00    +0.131 C 
ATOM     20  C   UNL     1       2.278  -4.407  -4.985  0.00  0.00    +0.131 C 
ENDBRANCH  15  18
ENDBRANCH   8  15
ENDBRANCH   1  10
BRANCH   3  21
ATOM     21  C   UNL     1      -5.708  -1.422  -2.151  0.00  0.00    +0.109 C 
BRANCH  21  22
ATOM     22  C   UNL     1      -6.647  -2.194  -3.079  0.00  0.00    +0.052 C 
BRANCH  22  23
ATOM     23  C   UNL     1      -8.068  -2.034  -2.603  0.00  0.00    -0.040 C 
ATOM     24  C   UNL     1      -8.974  -1.130  -3.040  0.00  0.00    +0.000 A 
ATOM     25  C   UNL     1      -8.911  -0.067  -4.050  0.00  0.00    +0.030 A 
ATOM     26  C   UNL     1     -10.008   0.695  -4.271  0.00  0.00    +0.042 A 
ATOM     27  C   UNL     1     -11.200   0.493  -3.560  0.00  0.00    +0.022 A 
ATOM     28  C   UNL     1     -11.334  -0.464  -2.618  0.00  0.00    +0.027 A 
ATOM     29  C   UNL     1     -10.245  -1.322  -2.305  0.00  0.00    +0.043 A 
ATOM     30  N   UNL     1     -10.128  -2.307  -1.447  0.00  0.00    -0.380 N 
ATOM     31  C   UNL     1      -8.771  -2.855  -1.546  0.00  0.00    +0.144 C 
ATOM     32 CL   UNL     1      -9.936   1.954  -5.464  0.00  0.00    -0.084 Cl
ATOM     33  H   UNL     1     -10.824  -2.622  -0.849  0.00  0.00    +0.160 HD
ENDBRANCH  22  23
ENDBRANCH  21  22
ENDBRANCH   3  21
TORSDOF 7
