REMARK  Name = ZINC25025174
REMARK  8 active torsions:
REMARK  status: ('A' for Active; 'I' for Inactive)
REMARK    1  A    between atoms: C_4  and  C_7
REMARK    2  A    between atoms: C_7  and  N_8
REMARK    3  A    between atoms: C_9  and  C_28
REMARK    4  A    between atoms: C_12  and  S_13
REMARK    5  A    between atoms: S_13  and  C_14
REMARK    6  A    between atoms: C_14  and  C_15
REMARK    7  A    between atoms: C_15  and  N_16
REMARK    8  A    between atoms: C_28  and  N_29
REMARK                            x       y       z     vdW  Elec       q    Type
REMARK                         _______ _______ _______ _____ _____    ______ ____
ROOT
ATOM      1  N   UNL     1      -4.473   4.417   4.183  0.00  0.00    -0.303 N 
ATOM      2  C   UNL     1      -4.011   3.887   5.356  0.00  0.00    +0.118 A 
ATOM      3  N   UNL     1      -3.156   2.953   5.048  0.00  0.00    -0.135 NA
ATOM      4  N   UNL     1      -3.052   2.853   3.771  0.00  0.00    -0.123 NA
ATOM      5  C   UNL     1      -3.841   3.725   3.190  0.00  0.00    +0.192 A 
ENDROOT
BRANCH   1   6
ATOM      6  C   UNL     1      -5.448   5.500   4.025  0.00  0.00    +0.160 C 
BRANCH   6  10
ATOM      7  C   UNL     1      -9.375   3.847   3.715  0.00  0.00    +0.000 A 
ATOM      8  C   UNL     1      -8.861   4.179   4.955  0.00  0.00    +0.000 A 
ATOM      9  C   UNL     1      -7.590   4.713   5.055  0.00  0.00    +0.005 A 
ATOM     10  C   UNL     1      -6.833   4.916   3.916  0.00  0.00    -0.028 A 
ATOM     11  C   UNL     1      -7.350   4.590   2.676  0.00  0.00    +0.005 A 
ATOM     12  C   UNL     1      -8.619   4.050   2.576  0.00  0.00    +0.000 A 
ENDBRANCH   6  10
ENDBRANCH   1   6
BRANCH   5  13
ATOM     13  S   UNL     1      -4.042   3.965   1.456  0.00  0.00    -0.084 S 
BRANCH  13  14
ATOM     14  C   UNL     1      -2.895   2.711   0.831  0.00  0.00    +0.098 C 
BRANCH  14  15
ATOM     15  C   UNL     1      -2.899   2.733  -0.699  0.00  0.00    +0.146 C 
BRANCH  15  16
ATOM     16  N   UNL     1      -1.971   1.719  -1.204  0.00  0.00    -0.167 N 
ATOM     17  C   UNL     1      -2.222   0.416  -1.405  0.00  0.00    +0.268 C 
ATOM     18  O   UNL     1      -3.316  -0.053  -1.162  0.00  0.00    -0.268 OA
ATOM     19  C   UNL     1      -1.138  -0.426  -1.929  0.00  0.00    +0.065 A 
ATOM     20  C   UNL     1      -1.126  -1.800  -2.229  0.00  0.00    +0.015 A 
ATOM     21  C   UNL     1       0.015  -2.394  -2.717  0.00  0.00    +0.001 A 
ATOM     22  C   UNL     1       1.169  -1.658  -2.923  0.00  0.00    +0.002 A 
ATOM     23  C   UNL     1       1.175  -0.302  -2.632  0.00  0.00    +0.029 A 
ATOM     24  C   UNL     1       0.044   0.292  -2.147  0.00  0.00    +0.121 A 
ATOM     25  S   UNL     1      -0.376   1.943  -1.659  0.00  0.00    +0.078 S 
ATOM     26  O   UNL     1      -0.370   2.753  -2.826  0.00  0.00    -0.150 OA
ATOM     27  O   UNL     1       0.368   2.250  -0.488  0.00  0.00    -0.150 OA
ENDBRANCH  15  16
ENDBRANCH  14  15
ENDBRANCH  13  14
ENDBRANCH   5  13
BRANCH   2  28
ATOM     28  C   UNL     1      -4.410   4.310   6.746  0.00  0.00    -0.001 C 
BRANCH  28  29
ATOM     29  N   UNL     1      -5.486   3.437   7.233  0.00  0.00    +0.384 N 
ATOM     30  C   UNL     1      -5.058   2.015   7.235  0.00  0.00    -0.078 C 
ATOM     31  C   UNL     1      -6.045   1.348   8.226  0.00  0.00    -0.020 C 
ATOM     32  C   UNL     1      -6.223   2.430   9.316  0.00  0.00    -0.020 C 
ATOM     33  C   UNL     1      -5.833   3.755   8.635  0.00  0.00    -0.078 C 
ATOM     34  H   UNL     1      -6.338   3.607   6.558  0.00  0.00    -0.081 HD
ENDBRANCH  28  29
ENDBRANCH   2  28
TORSDOF 8
