REMARK  Name = ZINC15033663
REMARK  5 active torsions:
REMARK  status: ('A' for Active; 'I' for Inactive)
REMARK    1  A    between atoms: C_4  and  C_7
REMARK    2  A    between atoms: C_16  and  C_17
REMARK    3  A    between atoms: C_16  and  N_49
REMARK    4  A    between atoms: N_22  and  C_23
REMARK    5  A    between atoms: C_23  and  C_24
REMARK                            x       y       z     vdW  Elec       q    Type
REMARK                         _______ _______ _______ _____ _____    ______ ____
ROOT
ATOM      1  C   UNL     1       4.828   1.405   0.149  0.00  0.00    -0.005 C 
ATOM      2  C   UNL     1       5.840   2.546   0.182  0.00  0.00    -0.047 A 
ATOM      3  C   UNL     1       7.203   2.382  -0.056  0.00  0.00    +0.010 A 
ATOM      4  C   UNL     1       8.032   3.451  -0.009  0.00  0.00    +0.045 A 
ATOM      5  S   UNL     1       6.901   4.778   0.385  0.00  0.00    -0.101 S 
ATOM      6  C   UNL     1       5.419   3.812   0.457  0.00  0.00    -0.010 A 
ATOM      7  C   UNL     1       4.018   4.242   0.748  0.00  0.00    +0.024 C 
ATOM      8  C   UNL     1       3.189   2.978   1.033  0.00  0.00    -0.072 C 
ATOM      9  N   UNL     1       3.478   1.990  -0.034  0.00  0.00    +0.393 N 
ATOM     10  H   UNL     1       3.445   2.466  -0.943  0.00  0.00    -0.080 HD
ENDROOT
BRANCH   1  14
ATOM     11  C   UNL     1       5.667  -1.178  -3.148  0.00  0.00    +0.000 A 
ATOM     12  C   UNL     1       6.063  -1.534  -1.872  0.00  0.00    +0.000 A 
ATOM     13  C   UNL     1       5.792  -0.699  -0.805  0.00  0.00    +0.002 A 
ATOM     14  C   UNL     1       5.124   0.494  -1.014  0.00  0.00    -0.057 A 
ATOM     15  C   UNL     1       4.724   0.848  -2.288  0.00  0.00    +0.002 A 
ATOM     16  C   UNL     1       4.999   0.014  -3.356  0.00  0.00    +0.000 A 
ENDBRANCH   1  14
BRANCH   9  17
ATOM     17  C   UNL     1       2.462   0.920  -0.017  0.00  0.00    +0.020 C 
BRANCH  17  18
ATOM     18  C   UNL     1       2.401   0.261   1.337  0.00  0.00    +0.204 C 
ATOM     19  O   UNL     1       3.201   0.564   2.196  0.00  0.00    -0.277 OA
ATOM     20  N   UNL     1       1.456  -0.666   1.594  0.00  0.00    -0.242 N 
ATOM     21  C   UNL     1       1.398  -1.252   2.806  0.00  0.00    +0.306 C 
ATOM     22  O   UNL     1       2.201  -0.948   3.667  0.00  0.00    -0.252 OA
ATOM     23  N   UNL     1       0.450  -2.174   3.064  0.00  0.00    -0.292 N 
ATOM     24  H   UNL     1       0.816  -0.908   0.907  0.00  0.00    +0.159 HD
ATOM     25  H   UNL     1      -0.191  -2.416   2.377  0.00  0.00    +0.151 HD
BRANCH  23  26
ATOM     26  C   UNL     1       0.387  -2.810   4.382  0.00  0.00    +0.180 C 
BRANCH  26  27
ATOM     27  C   UNL     1      -0.753  -3.795   4.410  0.00  0.00    +0.122 A 
ATOM     28  C   UNL     1      -0.678  -5.096   4.077  0.00  0.00    +0.046 A 
ATOM     29  C   UNL     1      -1.972  -5.639   4.249  0.00  0.00    +0.041 A 
ATOM     30  C   UNL     1      -2.761  -4.637   4.676  0.00  0.00    +0.195 A 
ATOM     31  O   UNL     1      -2.016  -3.524   4.778  0.00  0.00    -0.466 OA
ENDBRANCH  26  27
ENDBRANCH  23  26
ENDBRANCH  17  18
ENDBRANCH   9  17
TORSDOF 5
