REMARK  Name = ZINC16284167
REMARK  3 active torsions:
REMARK  status: ('A' for Active; 'I' for Inactive)
REMARK    1  A    between atoms: C_1  and  C_2
REMARK    2  A    between atoms: C_7  and  C_8
REMARK    3  A    between atoms: C_14  and  C_16
REMARK                            x       y       z     vdW  Elec       q    Type
REMARK                         _______ _______ _______ _____ _____    ______ ____
ROOT
ATOM      1  C   UNL     1       1.129   3.599   0.010  0.00  0.00    +0.044 C 
ATOM      2  C   UNL     1       1.169   2.093   0.002  0.00  0.00    -0.045 A 
ATOM      3  C   UNL     1       2.384   1.439  -0.013  0.00  0.00    +0.031 A 
ATOM      4  C   UNL     1       2.422   0.053  -0.021  0.00  0.00    +0.068 A 
ATOM      5  C   UNL     1       1.224  -0.681  -0.013  0.00  0.00    +0.091 A 
ATOM      6  C   UNL     1       0.002  -0.004   0.002  0.00  0.00    +0.033 A 
ATOM      7  C   UNL     1      -0.017   1.373   0.010  0.00  0.00    -0.045 A 
ATOM      8  C   UNL     1      -1.335   2.103   0.020  0.00  0.00    +0.044 C 
ATOM      9  N   UNL     1       1.562  -1.997  -0.024  0.00  0.00    -0.214 NA
ATOM     10  C   UNL     1       2.865  -2.116  -0.037  0.00  0.00    +0.201 A 
ATOM     11  N   UNL     1       3.445  -0.879  -0.036  0.00  0.00    -0.326 N 
ATOM     12  H   UNL     1       4.425  -0.684  -0.044  0.00  0.00    +0.169 HD
ATOM     13  N   UNL     1       3.554  -3.316  -0.050  0.00  0.00    -0.252 N 
ATOM     14  C   UNL     1       4.902  -3.319  -0.064  0.00  0.00    +0.253 C 
ATOM     15  O   UNL     1       5.512  -2.268  -0.064  0.00  0.00    -0.270 OA
ATOM     16  H   UNL     1       3.067  -4.154  -0.050  0.00  0.00    +0.158 HD
ENDROOT
BRANCH  14  17
ATOM     17  C   UNL     1       5.636  -4.598  -0.078  0.00  0.00    +0.072 A 
ATOM     18  C   UNL     1       4.937  -5.809  -0.078  0.00  0.00    +0.019 A 
ATOM     19  C   UNL     1       5.627  -7.000  -0.092  0.00  0.00    +0.039 A 
ATOM     20  C   UNL     1       7.015  -7.003  -0.106  0.00  0.00    +0.126 A 
ATOM     21  C   UNL     1       7.715  -5.808  -0.106  0.00  0.00    +0.077 A 
ATOM     22  C   UNL     1       7.035  -4.606  -0.098  0.00  0.00    +0.138 A 
ATOM     23  F   UNL     1       7.718  -3.440  -0.103  0.00  0.00    -0.205 F 
ATOM     24  F   UNL     1       7.685  -8.176  -0.120  0.00  0.00    -0.205 F 
ENDBRANCH  14  17
TORSDOF 1
