REMARK  Name = ZINC02664111
REMARK  12 active torsions:
REMARK  status: ('A' for Active; 'I' for Inactive)
REMARK    1  A    between atoms: C_1  and  N_2
REMARK    2  A    between atoms: C_6  and  S_7
REMARK    3  A    between atoms: S_7  and  C_8
REMARK    4  A    between atoms: C_8  and  C_9
REMARK    5  A    between atoms: C_12  and  C_15
REMARK    6  A    between atoms: N_17  and  N_18
REMARK    7  A    between atoms: N_18  and  C_19
REMARK    8  A    between atoms: C_19  and  C_21
REMARK    9  A    between atoms: C_24  and  S_27
REMARK   10  A    between atoms: S_27  and  N_30
REMARK   11  A    between atoms: N_30  and  C_31
REMARK   12  A    between atoms: C_31  and  C_32
REMARK                            x       y       z     vdW  Elec       q    Type
REMARK                         _______ _______ _______ _____ _____    ______ ____
ROOT
ATOM      1  N   UNL     1       2.468  -2.838  -0.036  0.00  0.00    -0.264 N 
ATOM      2  H   UNL     1       3.299  -2.338  -0.042  0.00  0.00    +0.170 HD
ENDROOT
BRANCH   1   5
ATOM      3  C   UNL     1       3.673  -4.891  -0.058  0.00  0.00    +0.260 C 
ATOM      4  O   UNL     1       4.715  -4.265  -0.065  0.00  0.00    -0.269 OA
ATOM      5  N   UNL     1       2.494  -4.239  -0.043  0.00  0.00    -0.232 N 
ATOM      6  H   UNL     1       1.663  -4.739  -0.038  0.00  0.00    +0.173 HD
BRANCH   3  10
ATOM      7  C   UNL     1       3.750  -9.138  -0.081  0.00  0.00    -0.037 A 
ATOM      8  C   UNL     1       4.938  -8.428  -0.088  0.00  0.00    +0.005 A 
ATOM      9  C   UNL     1       4.920  -7.048  -0.081  0.00  0.00    +0.013 A 
ATOM     10  C   UNL     1       3.700  -6.370  -0.066  0.00  0.00    +0.038 A 
ATOM     11  C   UNL     1       2.506  -7.093  -0.052  0.00  0.00    +0.013 A 
ATOM     12  C   UNL     1       2.538  -8.472  -0.065  0.00  0.00    +0.005 A 
BRANCH   7  13
ATOM     13  C   UNL     1       3.778 -10.645  -0.088  0.00  0.00    +0.112 C 
BRANCH  13  14
ATOM     14  S   UNL     1       3.805 -11.257   1.615  0.00  0.00    -0.081 S 
BRANCH  14  20
ATOM     15  C   UNL     1       3.885 -13.810   3.715  0.00  0.00    +0.152 C 
ATOM     16  N   UNL     1       3.867 -13.979   2.260  0.00  0.00    -0.312 N 
ATOM     17  C   UNL     1       3.876 -15.157   1.565  0.00  0.00    +0.225 A 
ATOM     18  N   UNL     1       3.859 -14.859   0.296  0.00  0.00    -0.137 NA
ATOM     19  N   UNL     1       3.834 -13.584   0.143  0.00  0.00    -0.123 NA
ATOM     20  C   UNL     1       3.834 -12.993   1.316  0.00  0.00    +0.191 A 
ENDBRANCH  14  20
ENDBRANCH  13  14
ENDBRANCH   7  13
ENDBRANCH   3  10
ENDBRANCH   1   5
BRANCH   1  21
ATOM     21  C   UNL     1       1.248  -2.163  -0.021  0.00  0.00    +0.044 C 
ATOM     22  C   UNL     1       0.105  -2.850  -0.013  0.00  0.00    +0.035 C 
BRANCH  21  23
ATOM     23  C   UNL     1       1.221  -0.682  -0.013  0.00  0.00    -0.003 A 
ATOM     24  C   UNL     1       0.002  -0.004   0.002  0.00  0.00    +0.012 A 
ATOM     25  C   UNL     1      -0.017   1.376   0.010  0.00  0.00    +0.029 A 
ATOM     26  C   UNL     1       1.170   2.086   0.002  0.00  0.00    +0.105 A 
ATOM     27  C   UNL     1       2.382   1.419  -0.013  0.00  0.00    +0.029 A 
ATOM     28  C   UNL     1       2.414   0.040  -0.021  0.00  0.00    +0.012 A 
BRANCH  26  29
ATOM     29  S   UNL     1       1.138   3.848   0.012  0.00  0.00    +0.059 S 
ATOM     30  O   UNL     1       2.371   4.280  -0.548  0.00  0.00    -0.153 OA
ATOM     31  O   UNL     1      -0.120   4.234  -0.525  0.00  0.00    -0.153 OA
BRANCH  29  32
ATOM     32  N   UNL     1       1.144   4.329   1.596  0.00  0.00    -0.183 NA
ATOM     33  H   UNL     1       0.378   4.796   1.965  0.00  0.00    +0.148 HD
BRANCH  32  34
ATOM     34  C   UNL     1       2.308   4.050   2.442  0.00  0.00    +0.180 C 
BRANCH  34  35
ATOM     35  C   UNL     1       2.232   4.887   3.693  0.00  0.00    +0.120 A 
ATOM     36  C   UNL     1       1.638   4.528   4.845  0.00  0.00    +0.046 A 
ATOM     37  C   UNL     1       1.804   5.606   5.745  0.00  0.00    +0.041 A 
ATOM     38  C   UNL     1       2.489   6.559   5.088  0.00  0.00    +0.195 A 
ATOM     39  O   UNL     1       2.751   6.116   3.848  0.00  0.00    -0.466 OA
ENDBRANCH  34  35
ENDBRANCH  32  34
ENDBRANCH  29  32
ENDBRANCH  26  29
ENDBRANCH  21  23
ENDBRANCH   1  21
TORSDOF 11
