REMARK  Name = ZINC65740210
REMARK  11 active torsions:
REMARK  status: ('A' for Active; 'I' for Inactive)
REMARK    1  A    between atoms: C_3  and  O_18
REMARK    2  A    between atoms: C_6  and  C_7
REMARK    3  A    between atoms: C_7  and  C_9
REMARK    4  A    between atoms: C_7  and  C_11
REMARK    5  A    between atoms: C_9  and  N_10
REMARK    6  A    between atoms: C_11  and  O_17
REMARK    7  A    between atoms: O_18  and  C_19
REMARK    8  A    between atoms: C_21  and  O_35
REMARK    9  A    between atoms: C_23  and  O_34
REMARK   10  A    between atoms: C_25  and  O_33
REMARK   11  A    between atoms: C_27  and  C_30
REMARK                            x       y       z     vdW  Elec       q    Type
REMARK                         _______ _______ _______ _____ _____    ______ ____
ROOT
ATOM      1  C   UNL     1      -0.037   1.390  -0.011  0.00  0.00    +0.007 A 
ATOM      2  C   UNL     1       1.142   2.110  -0.024  0.00  0.00    +0.046 A 
ATOM      3  C   UNL     1       2.359   1.444  -0.031  0.00  0.00    +0.124 A 
ATOM      4  C   UNL     1       2.389   0.057  -0.025  0.00  0.00    +0.046 A 
ATOM      5  C   UNL     1       1.206  -0.658  -0.011  0.00  0.00    +0.007 A 
ATOM      6  C   UNL     1      -0.005   0.008  -0.004  0.00  0.00    -0.043 A 
ENDROOT
BRANCH   6   7
ATOM      7  C   UNL     1      -1.293  -0.774   0.011  0.00  0.00    +0.033 C 
BRANCH   7   8
ATOM      8  C   UNL     1      -1.433  -1.552  -1.300  0.00  0.00    +0.071 C 
ATOM      9  C   UNL     1      -1.304  -0.588  -2.481  0.00  0.00    +0.035 C 
ATOM     10  C   UNL     1      -1.444  -1.365  -3.791  0.00  0.00    +0.003 C 
ATOM     11  C   UNL     1      -2.813  -2.047  -3.836  0.00  0.00    +0.000 C 
ATOM     12  C   UNL     1      -2.942  -3.011  -2.655  0.00  0.00    +0.003 C 
ATOM     13  C   UNL     1      -2.802  -2.233  -1.344  0.00  0.00    +0.035 C 
BRANCH   8  14
ATOM     14  O   UNL     1      -0.406  -2.542  -1.378  0.00  0.00    -0.388 OA
ATOM     15  H   UNL     1      -0.433  -3.074  -2.185  0.00  0.00    +0.210 HD
ENDBRANCH   8  14
ENDBRANCH   7   8
BRANCH   7  16
ATOM     16  C   UNL     1      -1.282  -1.753   1.186  0.00  0.00    -0.076 C 
BRANCH  16  17
ATOM     17  N   UNL     1      -1.268  -1.002   2.449  0.00  0.00    +0.379 N 
ATOM     18  H   UNL     1      -1.260  -1.648   3.224  0.00  0.00    -0.090 HD
ATOM     19  H   UNL     1      -0.443  -0.422   2.486  0.00  0.00    -0.090 HD
ATOM     20  H   UNL     1      -2.091  -0.421   2.503  0.00  0.00    -0.090 HD
ENDBRANCH  16  17
ENDBRANCH   7  16
ENDBRANCH   6   7
BRANCH   3  21
ATOM     21  O   UNL     1       3.521   2.149  -0.045  0.00  0.00    -0.461 OA
BRANCH  21  22
ATOM     22  C   UNL     1       4.736   1.397  -0.051  0.00  0.00    +0.340 C 
ATOM     23  C   UNL     1       5.920   2.339   0.184  0.00  0.00    +0.214 C 
ATOM     24  C   UNL     1       7.223   1.536   0.116  0.00  0.00    +0.180 C 
ATOM     25  C   UNL     1       7.303   0.828  -1.240  0.00  0.00    +0.186 C 
ATOM     26  C   UNL     1       6.066  -0.055  -1.420  0.00  0.00    +0.266 C 
ATOM     27  O   UNL     1       4.889   0.748  -1.315  0.00  0.00    -0.322 OA
BRANCH  26  28
ATOM     28  C   UNL     1       6.108  -0.710  -2.777  0.00  0.00    +0.387 C 
ATOM     29  O   UNL     1       6.988  -1.512  -3.040  0.00  0.00    -0.243 OA
ATOM     30  O   UNL     1       5.263  -0.437  -3.612  0.00  0.00    -0.243 OA
ENDBRANCH  26  28
BRANCH  25  31
ATOM     31  O   UNL     1       7.352   1.802  -2.285  0.00  0.00    -0.386 OA
ATOM     32  H   UNL     1       7.404   1.423  -3.174  0.00  0.00    +0.210 HD
ENDBRANCH  25  31
BRANCH  24  33
ATOM     33  O   UNL     1       8.337   2.418   0.263  0.00  0.00    -0.386 OA
ATOM     34  H   UNL     1       9.196   1.976   0.230  0.00  0.00    +0.210 HD
ENDBRANCH  24  33
BRANCH  23  35
ATOM     35  O   UNL     1       5.930   3.353  -0.822  0.00  0.00    -0.383 OA
ATOM     36  H   UNL     1       5.132   3.899  -0.839  0.00  0.00    +0.210 HD
ENDBRANCH  23  35
ENDBRANCH  21  22
ENDBRANCH   3  21
TORSDOF 11
