REMARK  Name = ZINC36050834
REMARK  9 active torsions:
REMARK  status: ('A' for Active; 'I' for Inactive)
REMARK    1  A    between atoms: C_1  and  C_2
REMARK    2  A    between atoms: C_3  and  C_30
REMARK    3  A    between atoms: C_4  and  C_23
REMARK    4  A    between atoms: C_7  and  C_12
REMARK    5  A    between atoms: C_13  and  N_15
REMARK    6  A    between atoms: N_15  and  C_16
REMARK    7  A    between atoms: C_16  and  C_17
REMARK    8  A    between atoms: C_30  and  O_32
REMARK    9  A    between atoms: O_32  and  C_33
REMARK                            x       y       z     vdW  Elec       q    Type
REMARK                         _______ _______ _______ _____ _____    ______ ____
ROOT
ATOM      1  C   UNL     1       0.334   1.160   0.892  0.00  0.00    +0.066 C 
ATOM      2  C   UNL     1       0.264  -0.296   0.511  0.00  0.00    +0.053 C 
ATOM      3  C   UNL     1      -0.962  -0.930   0.446  0.00  0.00    +0.082 C 
ATOM      4  C   UNL     1      -0.979  -2.392   0.058  0.00  0.00    +0.150 C 
ATOM      5  N   UNL     1       0.333  -3.034  -0.223  0.00  0.00    -0.267 N 
ATOM      6  C   UNL     1       0.555  -4.346  -0.591  0.00  0.00    +0.048 C 
ATOM      7  C   UNL     1       1.833  -4.730  -0.801  0.00  0.00    +0.072 C 
ATOM      8  S   UNL     1       2.729  -3.225  -0.476  0.00  0.00    -0.060 S 
ATOM      9  C   UNL     1       1.431  -2.229  -0.101  0.00  0.00    +0.166 C 
ATOM     10  N   UNL     1       1.377  -0.957   0.236  0.00  0.00    -0.230 NA
ENDROOT
BRANCH   4  11
ATOM     11  C   UNL     1      -1.640  -3.160   1.174  0.00  0.00    -0.019 A 
ATOM     12  C   UNL     1      -0.962  -3.380   2.358  0.00  0.00    +0.006 A 
ATOM     13  C   UNL     1      -1.567  -4.084   3.382  0.00  0.00    +0.003 A 
ATOM     14  C   UNL     1      -2.852  -4.569   3.223  0.00  0.00    +0.038 A 
ATOM     15  C   UNL     1      -3.532  -4.349   2.037  0.00  0.00    +0.124 A 
ATOM     16  C   UNL     1      -2.927  -3.639   1.014  0.00  0.00    +0.044 A 
ATOM     17  F   UNL     1      -4.787  -4.824   1.881  0.00  0.00    -0.205 F 
ENDBRANCH   4  11
BRANCH   6  18
ATOM     18  C   UNL     1      -0.560  -5.291  -0.748  0.00  0.00    +0.091 C 
ATOM     19  C   UNL     1      -0.310  -6.594  -0.981  0.00  0.00    +0.239 C 
ATOM     20  O   UNL     1       0.963  -7.056  -0.947  0.00  0.00    -0.271 OA
BRANCH  19  21
ATOM     21  N   UNL     1      -1.355  -7.461  -1.254  0.00  0.00    -0.309 N 
ATOM     22  H   UNL     1      -2.271  -7.146  -1.206  0.00  0.00    +0.149 HD
BRANCH  21  23
ATOM     23  C   UNL     1      -1.076  -8.852  -1.617  0.00  0.00    +0.136 C 
BRANCH  23  24
ATOM     24  C   UNL     1      -2.384  -9.555  -1.985  0.00  0.00    +0.135 C 
ATOM     25  C   UNL     1      -2.116 -11.040  -2.339  0.00  0.00    +0.035 C 
ATOM     26  C   UNL     1      -3.502 -11.671  -2.035  0.00  0.00    +0.031 C 
ATOM     27  C   UNL     1      -3.989 -10.830  -0.836  0.00  0.00    +0.160 C 
ATOM     28  O   UNL     1      -3.267  -9.591  -0.852  0.00  0.00    -0.375 OA
ENDBRANCH  23  24
ENDBRANCH  21  23
ENDBRANCH  19  21
ENDBRANCH   6  18
BRANCH   3  29
ATOM     29  C   UNL     1      -2.148  -0.243   0.729  0.00  0.00    +0.339 C 
ATOM     30  O   UNL     1      -2.110   0.935   1.039  0.00  0.00    -0.245 OA
BRANCH  29  31
ATOM     31  O   UNL     1      -3.335  -0.885   0.658  0.00  0.00    -0.465 OA
ATOM     32  C   UNL     1      -4.505  -0.122   0.960  0.00  0.00    +0.280 C 
ENDBRANCH  29  31
ENDBRANCH   3  29
TORSDOF 7
