REMARK  Name = ZINC12875943
REMARK  7 active torsions:
REMARK  status: ('A' for Active; 'I' for Inactive)
REMARK    1  A    between atoms: C_1  and  C_2
REMARK    2  A    between atoms: C_6  and  N_9
REMARK    3  A    between atoms: C_7  and  C_8
REMARK    4  A    between atoms: C_10  and  C_12
REMARK    5  A    between atoms: C_12  and  N_13
REMARK    6  A    between atoms: C_14  and  C_16
REMARK    7  A    between atoms: C_23  and  C_26
REMARK                            x       y       z     vdW  Elec       q    Type
REMARK                         _______ _______ _______ _____ _____    ______ ____
ROOT
ATOM      1  N   UNL     1       2.568  -2.633  -0.349  0.00  0.00    -0.302 N 
ATOM      2  C   UNL     1       2.824  -3.951  -0.469  0.00  0.00    +0.251 C 
ATOM      3  O   UNL     1       1.907  -4.751  -0.484  0.00  0.00    -0.270 OA
ATOM      4  H   UNL     1       3.299  -1.996  -0.337  0.00  0.00    +0.150 HD
ENDROOT
BRANCH   2   5
ATOM      5  C   UNL     1       4.208  -4.421  -0.582  0.00  0.00    +0.074 A 
ATOM      6  C   UNL     1       4.682  -5.714  -0.712  0.00  0.00    +0.024 A 
ATOM      7  C   UNL     1       6.051  -5.902  -0.802  0.00  0.00    -0.036 A 
ATOM      8  C   UNL     1       6.831  -4.782  -0.755  0.00  0.00    -0.006 A 
ATOM      9  S   UNL     1       5.721  -3.474  -0.596  0.00  0.00    -0.088 S 
ATOM     10  C   UNL     1       8.325  -4.717  -0.833  0.00  0.00    +0.043 C 
ATOM     11  C   UNL     1       8.842  -6.069  -1.348  0.00  0.00    +0.009 C 
ATOM     12  C   UNL     1       8.162  -7.189  -0.556  0.00  0.00    -0.009 C 
ATOM     13  C   UNL     1       6.687  -7.283  -0.947  0.00  0.00    +0.039 C 
ATOM     14  C   UNL     1       8.854  -8.519  -0.863  0.00  0.00    +0.008 C 
ENDBRANCH   2   5
BRANCH   1  15
ATOM     15  C   UNL     1       1.185  -2.163  -0.236  0.00  0.00    +0.200 C 
BRANCH  15  17
ATOM     16  N   UNL     1       0.002  -0.004   0.002  0.00  0.00    -0.284 N 
ATOM     17  C   UNL     1       1.173  -0.661  -0.114  0.00  0.00    +0.234 C 
ATOM     18  O   UNL     1       2.217  -0.044  -0.121  0.00  0.00    -0.274 OA
ATOM     19  H   UNL     1      -0.828  -0.501   0.073  0.00  0.00    +0.155 HD
BRANCH  16  25
ATOM     20  C   UNL     1      -2.232   4.215  -1.172  0.00  0.00    +0.044 C 
ATOM     21  C   UNL     1      -1.086   3.466  -0.541  0.00  0.00    -0.046 A 
ATOM     22  C   UNL     1      -0.051   4.161   0.056  0.00  0.00    +0.004 A 
ATOM     23  C   UNL     1       1.002   3.477   0.636  0.00  0.00    +0.002 A 
ATOM     24  C   UNL     1       1.022   2.096   0.620  0.00  0.00    +0.023 A 
ATOM     25  C   UNL     1      -0.016   1.395   0.020  0.00  0.00    +0.037 A 
ATOM     26  C   UNL     1      -1.069   2.085  -0.566  0.00  0.00    -0.026 A 
ATOM     27  C   UNL     1      -2.194   1.328  -1.223  0.00  0.00    +0.046 C 
ENDBRANCH  16  25
ENDBRANCH  15  17
ENDBRANCH   1  15
TORSDOF 4
