REMARK  Name = ZINC09540871
REMARK  14 active torsions:
REMARK  status: ('A' for Active; 'I' for Inactive)
REMARK    1  A    between atoms: C_1  and  C_2
REMARK    2  A    between atoms: C_2  and  O_3
REMARK    3  A    between atoms: O_3  and  C_4
REMARK    4  A    between atoms: C_4  and  C_6
REMARK    5  A    between atoms: C_7  and  N_37
REMARK    6  A    between atoms: C_11  and  C_36
REMARK    7  A    between atoms: N_12  and  C_24
REMARK    8  A    between atoms: C_16  and  C_18
REMARK    9  A    between atoms: C_24  and  C_25
REMARK   10  A    between atoms: C_25  and  C_26
REMARK   11  A    between atoms: C_29  and  O_34
REMARK   12  A    between atoms: C_30  and  O_32
REMARK   13  A    between atoms: O_32  and  C_33
REMARK   14  A    between atoms: O_34  and  C_35
REMARK                            x       y       z     vdW  Elec       q    Type
REMARK                         _______ _______ _______ _____ _____    ______ ____
ROOT
ATOM      1  C   UNL     1       1.393  -0.759   0.109  0.00  0.00    +0.105 C 
ATOM      2  C   UNL     1       0.291  -0.153  -0.402  0.00  0.00    +0.195 C 
ATOM      3  O   UNL     1       0.130   1.180  -0.359  0.00  0.00    -0.441 OA
ATOM      4  C   UNL     1       1.198   1.982  -0.162  0.00  0.00    +0.141 A 
ATOM      5  C   UNL     1       1.124   3.348  -0.505  0.00  0.00    +0.068 A 
ATOM      6  C   UNL     1       2.194   4.147  -0.307  0.00  0.00    +0.022 A 
ATOM      7  N   UNL     1       3.345   3.655   0.220  0.00  0.00    -0.312 N 
ATOM      8  C   UNL     1       3.454   2.357   0.559  0.00  0.00    +0.259 A 
ATOM      9  O   UNL     1       4.498   1.935   1.032  0.00  0.00    -0.267 OA
ATOM     10  C   UNL     1       2.370   1.490   0.372  0.00  0.00    +0.071 A 
ATOM     11  C   UNL     1       2.493   0.040   0.751  0.00  0.00    +0.100 C 
ATOM     12  C   UNL     1       2.109   5.606  -0.676  0.00  0.00    +0.064 C 
ENDROOT
BRANCH  11  13
ATOM     13  C   UNL     1       2.398  -0.095   2.249  0.00  0.00    -0.032 A 
ATOM     14  C   UNL     1       1.262   0.319   2.928  0.00  0.00    +0.024 A 
ATOM     15  C   UNL     1       1.210   0.176   4.302  0.00  0.00    +0.111 A 
ATOM     16  N   UNL     1       2.227  -0.337   4.966  0.00  0.00    -0.263 NA
ATOM     17  C   UNL     1       3.325  -0.736   4.354  0.00  0.00    +0.111 A 
ATOM     18  C   UNL     1       3.447  -0.629   2.982  0.00  0.00    +0.024 A 
ENDBRANCH  11  13
BRANCH   2  19
ATOM     19  N   UNL     1      -0.685  -0.922  -0.977  0.00  0.00    -0.329 N 
ATOM     20  H   UNL     1      -0.441  -1.674  -1.539  0.00  0.00    +0.145 HD
ATOM     21  H   UNL     1      -1.620  -0.716  -0.822  0.00  0.00    +0.145 HD
ENDBRANCH   2  19
BRANCH   1  22
ATOM     22  C   UNL     1       1.507  -2.155   0.036  0.00  0.00    +0.341 C 
ATOM     23  O   UNL     1       0.579  -2.821  -0.387  0.00  0.00    -0.245 OA
BRANCH  22  24
ATOM     24  O   UNL     1       2.647  -2.761   0.434  0.00  0.00    -0.462 OA
BRANCH  24  26
ATOM     25  C   UNL     1       4.052  -4.688   0.826  0.00  0.00    +0.048 C 
ATOM     26  C   UNL     1       2.694  -4.186   0.332  0.00  0.00    +0.229 C 
ENDBRANCH  24  26
ENDBRANCH  22  24
ENDBRANCH   1  22
BRANCH   7  27
ATOM     27  C   UNL     1       4.487   4.551   0.422  0.00  0.00    +0.130 C 
BRANCH  27  28
ATOM     28  C   UNL     1       5.427   4.459  -0.782  0.00  0.00    +0.057 C 
BRANCH  28  29
ATOM     29  C   UNL     1       6.601   5.381  -0.574  0.00  0.00    -0.042 A 
ATOM     30  C   UNL     1       6.539   6.688  -1.021  0.00  0.00    +0.007 A 
ATOM     31  C   UNL     1       7.612   7.539  -0.828  0.00  0.00    +0.049 A 
ATOM     32  C   UNL     1       8.755   7.079  -0.195  0.00  0.00    +0.161 A 
ATOM     33  C   UNL     1       8.819   5.762   0.250  0.00  0.00    +0.162 A 
ATOM     34  C   UNL     1       7.739   4.916   0.058  0.00  0.00    +0.053 A 
BRANCH  33  35
ATOM     35  O   UNL     1       9.940   5.307   0.872  0.00  0.00    -0.491 OA
ATOM     36  C   UNL     1       9.934   3.944   1.302  0.00  0.00    +0.277 C 
ENDBRANCH  33  35
BRANCH  32  37
ATOM     37  O   UNL     1       9.813   7.913  -0.009  0.00  0.00    -0.491 OA
ATOM     38  C   UNL     1       9.677   9.252  -0.491  0.00  0.00    +0.277 C 
ENDBRANCH  32  37
ENDBRANCH  28  29
ENDBRANCH  27  28
ENDBRANCH   7  27
TORSDOF 10
