REMARK  Name = ZINC39666322
REMARK  8 active torsions:
REMARK  status: ('A' for Active; 'I' for Inactive)
REMARK    1  A    between atoms: C_1  and  C_2
REMARK    2  A    between atoms: C_5  and  C_8
REMARK    3  A    between atoms: C_12  and  C_21
REMARK    4  A    between atoms: N_23  and  C_24
REMARK    5  A    between atoms: C_24  and  C_25
REMARK    6  A    between atoms: C_25  and  C_27
REMARK    7  A    between atoms: C_25  and  O_28
REMARK    8  A    between atoms: O_28  and  C_29
REMARK                            x       y       z     vdW  Elec       q    Type
REMARK                         _______ _______ _______ _____ _____    ______ ____
ROOT
ATOM      1  C   UNL     1      -1.144  -4.610  -0.841  0.00  0.00    +0.247 C 
ATOM      2  O   UNL     1      -1.464  -5.271  -1.810  0.00  0.00    -0.270 OA
ATOM      3  N   UNL     1      -0.813  -5.223   0.313  0.00  0.00    -0.296 N 
ATOM      4  C   UNL     1      -0.525  -4.596   1.624  0.00  0.00    +0.121 C 
ATOM      5  C   UNL     1      -1.181  -5.537   2.660  0.00  0.00    +0.100 C 
ATOM      6  C   UNL     1      -1.262  -6.901   1.954  0.00  0.00    -0.004 C 
ATOM      7  C   UNL     1      -0.661  -6.677   0.558  0.00  0.00    +0.115 C 
ATOM      8  C   UNL     1      -0.449  -7.941   2.720  0.00  0.00    -0.010 C 
ATOM      9  C   UNL     1      -0.592  -9.301   2.032  0.00  0.00    -0.082 C 
ATOM     10  N   UNL     1      -2.008  -9.687   1.996  0.00  0.00    +0.379 N 
ATOM     11  C   UNL     1      -2.767  -8.731   1.180  0.00  0.00    -0.082 C 
ATOM     12  C   UNL     1      -2.715  -7.347   1.832  0.00  0.00    -0.010 C 
ATOM     13  H   UNL     1      -2.094 -10.610   1.597  0.00  0.00    -0.086 HD
ATOM     14  H   UNL     1      -2.377  -9.693   2.935  0.00  0.00    -0.086 HD
ENDROOT
BRANCH   1  19
ATOM     15  C   UNL     1      -1.045   1.133  -1.180  0.00  0.00    +0.044 C 
ATOM     16  C   UNL     1      -1.071  -0.371  -1.091  0.00  0.00    -0.050 A 
ATOM     17  C   UNL     1      -1.828  -1.101  -1.990  0.00  0.00    +0.004 A 
ATOM     18  C   UNL     1      -1.856  -2.478  -1.914  0.00  0.00    +0.013 A 
ATOM     19  C   UNL     1      -1.118  -3.135  -0.928  0.00  0.00    +0.037 A 
ATOM     20  C   UNL     1      -0.356  -2.392  -0.025  0.00  0.00    +0.013 A 
ATOM     21  C   UNL     1      -0.333  -1.016  -0.115  0.00  0.00    +0.004 A 
ENDBRANCH   1  19
BRANCH   5  22
ATOM     22  C   UNL     1      -2.560  -5.045   3.016  0.00  0.00    +0.218 C 
ATOM     23  O   UNL     1      -3.229  -4.463   2.188  0.00  0.00    -0.275 OA
ATOM     24  N   UNL     1      -3.050  -5.252   4.254  0.00  0.00    -0.312 N 
ATOM     25  H   UNL     1      -2.515  -5.717   4.916  0.00  0.00    +0.149 HD
BRANCH  24  26
ATOM     26  C   UNL     1      -4.391  -4.774   4.601  0.00  0.00    +0.148 C 
BRANCH  26  27
ATOM     27  C   UNL     1      -4.701  -5.134   6.055  0.00  0.00    +0.187 C 
ATOM     28  C   UNL     1      -6.101  -4.635   6.417  0.00  0.00    +0.053 C 
BRANCH  27  29
ATOM     29  O   UNL     1      -4.645  -6.553   6.216  0.00  0.00    -0.486 OA
BRANCH  29  30
ATOM     30  C   UNL     1      -4.377  -7.022   7.463  0.00  0.00    +0.139 A 
ATOM     31  C   UNL     1      -4.288  -6.143   8.532  0.00  0.00    +0.047 A 
ATOM     32  C   UNL     1      -4.017  -6.622   9.799  0.00  0.00    +0.004 A 
ATOM     33  C   UNL     1      -3.834  -7.978  10.003  0.00  0.00    +0.002 A 
ATOM     34  C   UNL     1      -3.921  -8.857   8.940  0.00  0.00    +0.023 A 
ATOM     35  C   UNL     1      -4.199  -8.383   7.671  0.00  0.00    +0.083 A 
ATOM     36 CL   UNL     1      -4.316  -9.488   6.337  0.00  0.00    -0.080 Cl
ENDBRANCH  29  30
ENDBRANCH  27  29
ENDBRANCH  26  27
ENDBRANCH  24  26
ENDBRANCH   5  22
TORSDOF 6
