REMARK  Name = ZINC15675830
REMARK  5 active torsions:
REMARK  status: ('A' for Active; 'I' for Inactive)
REMARK    1  A    between atoms: C_3  and  O_33
REMARK    2  A    between atoms: C_6  and  C_7
REMARK    3  A    between atoms: C_9  and  C_12
REMARK    4  A    between atoms: N_25  and  C_26
REMARK    5  A    between atoms: O_33  and  C_34
REMARK                            x       y       z     vdW  Elec       q    Type
REMARK                         _______ _______ _______ _____ _____    ______ ____
ROOT
ATOM      1  C   UNL     1      -3.909  -4.598  -0.514  0.00  0.00    +0.172 C 
ATOM      2  C   UNL     1      -4.936  -4.687  -1.651  0.00  0.00    +0.087 C 
ATOM      3  C   UNL     1      -5.911  -3.547  -1.515  0.00  0.00    +0.040 A 
ATOM      4  C   UNL     1      -6.096  -2.820  -0.392  0.00  0.00    +0.054 A 
ATOM      5  N   UNL     1      -7.036  -1.905  -0.640  0.00  0.00    -0.348 N 
ATOM      6  C   UNL     1      -7.441  -2.033  -1.876  0.00  0.00    +0.171 A 
ATOM      7  N   UNL     1      -6.760  -3.048  -2.455  0.00  0.00    -0.349 N 
ATOM      8  H   UNL     1      -6.858  -3.361  -3.369  0.00  0.00    +0.166 HD
ATOM      9  C   UNL     1      -5.333  -3.050   0.891  0.00  0.00    +0.165 C 
ATOM     10  N   UNL     1      -4.611  -4.329   0.750  0.00  0.00    -0.267 N 
ATOM     11  C   UNL     1      -4.597  -5.230   1.752  0.00  0.00    +0.307 C 
ATOM     12  O   UNL     1      -4.081  -6.318   1.585  0.00  0.00    -0.252 OA
ATOM     13  N   UNL     1      -5.155  -4.925   2.940  0.00  0.00    -0.269 N 
ATOM     14  H   UNL     1      -5.633  -4.088   3.051  0.00  0.00    +0.156 HD
ATOM     15  H   UNL     1      -7.365  -1.251  -0.004  0.00  0.00    +0.166 HD
ENDROOT
BRANCH  13  16
ATOM     16  C   UNL     1      -5.043  -5.815   4.015  0.00  0.00    +0.035 A 
ATOM     17  C   UNL     1      -3.902  -6.592   4.159  0.00  0.00    +0.025 A 
ATOM     18  C   UNL     1      -3.795  -7.469   5.221  0.00  0.00    +0.022 A 
ATOM     19  C   UNL     1      -4.824  -7.574   6.140  0.00  0.00    +0.041 A 
ATOM     20  C   UNL     1      -5.963  -6.801   5.998  0.00  0.00    +0.022 A 
ATOM     21  C   UNL     1      -6.072  -5.918   4.942  0.00  0.00    +0.025 A 
ATOM     22 CL   UNL     1      -4.686  -8.678   7.473  0.00  0.00    -0.084 Cl
ENDBRANCH  13  16
BRANCH   1  25
ATOM     23  C   UNL     1      -1.129  -2.423  -1.358  0.00  0.00    +0.202 A 
ATOM     24  N   UNL     1      -1.708  -3.627  -1.203  0.00  0.00    -0.190 NA
ATOM     25  C   UNL     1      -2.938  -3.482  -0.799  0.00  0.00    +0.249 A 
ATOM     26  O   UNL     1      -3.194  -2.172  -0.679  0.00  0.00    -0.336 OA
ATOM     27  N   UNL     1      -2.000  -1.496  -1.043  0.00  0.00    -0.056 NA
BRANCH  23  33
ATOM     28  C   UNL     1       0.749  -0.882  -1.919  0.00  0.00    +0.015 A 
ATOM     29  C   UNL     1       2.045  -0.663  -2.334  0.00  0.00    +0.046 A 
ATOM     30  C   UNL     1       2.869  -1.739  -2.637  0.00  0.00    +0.130 A 
ATOM     31  C   UNL     1       2.390  -3.038  -2.524  0.00  0.00    +0.046 A 
ATOM     32  C   UNL     1       1.095  -3.262  -2.110  0.00  0.00    +0.015 A 
ATOM     33  C   UNL     1       0.265  -2.184  -1.804  0.00  0.00    +0.023 A 
BRANCH  30  34
ATOM     34  O   UNL     1       4.146  -1.521  -3.046  0.00  0.00    -0.406 OA
BRANCH  34  35
ATOM     35  C   UNL     1       4.939  -2.673  -3.342  0.00  0.00    +0.575 C 
ATOM     36  F   UNL     1       4.334  -3.403  -4.370  0.00  0.00    -0.133 F 
ATOM     37  F   UNL     1       6.216  -2.269  -3.745  0.00  0.00    -0.133 F 
ATOM     38  F   UNL     1       5.042  -3.474  -2.199  0.00  0.00    -0.133 F 
ENDBRANCH  34  35
ENDBRANCH  30  34
ENDBRANCH  23  33
ENDBRANCH   1  25
TORSDOF 5
