REMARK  Name = ZINC02229483
REMARK  5 active torsions:
REMARK  status: ('A' for Active; 'I' for Inactive)
REMARK    1  A    between atoms: C_4  and  C_7
REMARK    2  A    between atoms: N_9  and  C_10
REMARK    3  A    between atoms: C_11  and  C_27
REMARK    4  A    between atoms: C_15  and  C_17
REMARK    5  A    between atoms: C_20  and  N_23
REMARK                            x       y       z     vdW  Elec       q    Type
REMARK                         _______ _______ _______ _____ _____    ______ ____
ROOT
ATOM      1  C   UNL     1       4.893  -2.685  -0.061  0.00  0.00    +0.102 A 
ATOM      2  C   UNL     1       5.152  -4.156  -0.072  0.00  0.00    +0.108 A 
ATOM      3  N   UNL     1       6.415  -4.517  -0.087  0.00  0.00    -0.222 NA
ATOM      4  C   UNL     1       7.363  -3.591  -0.092  0.00  0.00    +0.167 A 
ATOM      5  N   UNL     1       8.716  -3.770  -0.107  0.00  0.00    -0.261 N 
ATOM      6  C   UNL     1       9.537  -2.701  -0.110  0.00  0.00    +0.250 C 
ATOM      7  O   UNL     1       9.073  -1.578  -0.099  0.00  0.00    -0.270 OA
ATOM      8  S   UNL     1       6.455  -2.058  -0.082  0.00  0.00    -0.037 S 
ATOM      9  H   UNL     1       9.087  -4.666  -0.116  0.00  0.00    +0.157 HD
ENDROOT
BRANCH   6  10
ATOM     10  C   UNL     1      11.002  -2.895  -0.126  0.00  0.00    +0.037 A 
ATOM     11  C   UNL     1      11.539  -4.183  -0.145  0.00  0.00    +0.015 A 
ATOM     12  C   UNL     1      12.908  -4.357  -0.160  0.00  0.00    +0.033 A 
ATOM     13  C   UNL     1      13.748  -3.257  -0.157  0.00  0.00    +0.126 A 
ATOM     14  C   UNL     1      13.222  -1.977  -0.139  0.00  0.00    +0.033 A 
ATOM     15  C   UNL     1      11.855  -1.790  -0.129  0.00  0.00    +0.015 A 
BRANCH  13  16
ATOM     16  N   UNL     1      15.215  -3.451  -0.173  0.00  0.00    +0.056 N 
ATOM     17  O   UNL     1      15.718  -4.668  -0.190  0.00  0.00    -0.126 OA
ATOM     18  O   UNL     1      16.017  -2.407  -0.170  0.00  0.00    -0.126 OA
ENDBRANCH  13  16
ENDBRANCH   6  10
BRANCH   2  19
ATOM     19  C   UNL     1       4.114  -5.090  -0.066  0.00  0.00    +0.040 A 
ATOM     20  C   UNL     1       4.050  -6.358  -0.699  0.00  0.00    +0.018 A 
ATOM     21  C   UNL     1       2.898  -7.048  -0.511  0.00  0.00    +0.008 A 
ATOM     22  C   UNL     1       1.897  -6.482   0.264  0.00  0.00    +0.046 A 
ATOM     23  S   UNL     1       2.529  -5.003   0.747  0.00  0.00    -0.095 S 
ENDBRANCH   2  19
BRANCH   1  26
ATOM     24  C   UNL     1       3.695  -0.684  -0.038  0.00  0.00    +0.249 C 
ATOM     25  O   UNL     1       4.737  -0.059  -0.046  0.00  0.00    -0.270 OA
ATOM     26  N   UNL     1       3.717  -2.031  -0.046  0.00  0.00    -0.274 N 
ATOM     27  H   UNL     1       2.885  -2.530  -0.040  0.00  0.00    +0.156 HD
BRANCH  24  31
ATOM     28  C   UNL     1      -0.017   1.380   0.010  0.00  0.00    +0.000 A 
ATOM     29  C   UNL     1       1.168   2.094   0.002  0.00  0.00    +0.001 A 
ATOM     30  C   UNL     1       2.377   1.430  -0.013  0.00  0.00    +0.013 A 
ATOM     31  C   UNL     1       2.404   0.034  -0.021  0.00  0.00    +0.037 A 
ATOM     32  C   UNL     1       1.204  -0.681  -0.013  0.00  0.00    +0.013 A 
ATOM     33  C   UNL     1       0.002  -0.004   0.002  0.00  0.00    +0.001 A 
ENDBRANCH  24  31
ENDBRANCH   1  26
TORSDOF 5
