REMARK  Name = ZINC44235447
REMARK  7 active torsions:
REMARK  status: ('A' for Active; 'I' for Inactive)
REMARK    1  A    between atoms: C_3  and  C_12
REMARK    2  A    between atoms: C_4  and  C_8
REMARK    3  A    between atoms: C_15  and  C_17
REMARK    4  A    between atoms: C_17  and  C_19
REMARK    5  A    between atoms: C_17  and  N_22
REMARK    6  A    between atoms: C_19  and  C_20
REMARK    7  A    between atoms: C_20  and  O_21
REMARK                            x       y       z     vdW  Elec       q    Type
REMARK                         _______ _______ _______ _____ _____    ______ ____
ROOT
ATOM      1  C   UNL     1       3.656   2.161  -0.022  0.00  0.00    +0.136 A 
ATOM      2  C   UNL     1       3.972   3.184  -0.860  0.00  0.00    +0.050 A 
ATOM      3  C   UNL     1       5.273   3.603  -0.516  0.00  0.00    +0.043 A 
ATOM      4  C   UNL     1       5.683   2.824   0.503  0.00  0.00    +0.092 A 
ATOM      5  O   UNL     1       4.702   1.956   0.803  0.00  0.00    -0.461 OA
ENDROOT
BRANCH   1   8
ATOM      6  C   UNL     1      -0.017   1.380   0.010  0.00  0.00    +0.016 A 
ATOM      7  C   UNL     1       1.167   2.089   0.002  0.00  0.00    +0.013 A 
ATOM      8  C   UNL     1       2.385   1.407  -0.013  0.00  0.00    +0.029 A 
ATOM      9  C   UNL     1       2.397   0.011  -0.021  0.00  0.00    +0.066 A 
ATOM     10  C   UNL     1       1.207  -0.686  -0.013  0.00  0.00    +0.028 A 
ATOM     11  C   UNL     1       0.002  -0.004   0.002  0.00  0.00    +0.018 A 
ATOM     12 BR   UNL     1      -1.625  -0.968   0.013  0.00  0.00    -0.050 Br
BRANCH   9  13
ATOM     13  C   UNL     1       3.708  -0.732  -0.038  0.00  0.00    +0.418 C 
ATOM     14  F   UNL     1       3.463  -2.110  -0.043  0.00  0.00    -0.166 F 
ATOM     15  F   UNL     1       4.428  -0.382  -1.185  0.00  0.00    -0.166 F 
ATOM     16  F   UNL     1       4.450  -0.395   1.099  0.00  0.00    -0.166 F 
ENDBRANCH   9  13
ENDBRANCH   1   8
BRANCH   4  17
ATOM     17  C   UNL     1       7.018   2.913   1.196  0.00  0.00    -0.005 C 
BRANCH  17  18
ATOM     18  N   UNL     1       6.834   2.723   2.641  0.00  0.00    +0.385 N 
ATOM     19  H   UNL     1       6.426   1.815   2.812  0.00  0.00    -0.089 HD
ATOM     20  H   UNL     1       7.728   2.782   3.105  0.00  0.00    -0.089 HD
ATOM     21  H   UNL     1       6.221   3.439   2.999  0.00  0.00    -0.089 HD
ENDBRANCH  17  18
BRANCH  17  22
ATOM     22  C   UNL     1       7.948   1.826   0.653  0.00  0.00    +0.019 C 
BRANCH  22  23
ATOM     23  C   UNL     1       9.340   1.994   1.264  0.00  0.00    +0.154 C 
BRANCH  23  24
ATOM     24  O   UNL     1      10.209   0.979   0.757  0.00  0.00    -0.395 OA
ATOM     25  H   UNL     1      11.111   1.024   1.102  0.00  0.00    +0.209 HD
ENDBRANCH  23  24
ENDBRANCH  22  23
ENDBRANCH  17  22
ENDBRANCH   4  17
TORSDOF 7
