REMARK  Name = ZINC10245555
REMARK  9 active torsions:
REMARK  status: ('A' for Active; 'I' for Inactive)
REMARK    1  A    between atoms: C_1  and  C_2
REMARK    2  A    between atoms: C_2  and  C_3
REMARK    3  A    between atoms: C_6  and  N_9
REMARK    4  A    between atoms: C_10  and  C_12
REMARK    5  A    between atoms: C_13  and  N_21
REMARK    6  A    between atoms: C_22  and  C_24
REMARK    7  A    between atoms: N_29  and  C_31
REMARK    8  A    between atoms: C_34  and  C_38
REMARK    9  A    between atoms: C_35  and  C_37
REMARK                            x       y       z     vdW  Elec       q    Type
REMARK                         _______ _______ _______ _____ _____    ______ ____
ROOT
ATOM      1  C   UNL     1       2.136   0.840  -0.183  0.00  0.00    +0.212 A 
ATOM      2  C   UNL     1       1.445   1.921   0.294  0.00  0.00    +0.092 A 
ATOM      3  C   UNL     1       0.060   1.468   0.468  0.00  0.00    +0.042 A 
ATOM      4  C   UNL     1      -1.111   2.078   0.917  0.00  0.00    +0.013 A 
ATOM      5  C   UNL     1      -2.275   1.363   0.959  0.00  0.00    +0.001 A 
ATOM      6  C   UNL     1      -2.296   0.032   0.566  0.00  0.00    +0.004 A 
ATOM      7  C   UNL     1      -1.149  -0.590   0.124  0.00  0.00    +0.047 A 
ATOM      8  C   UNL     1       0.046   0.120   0.069  0.00  0.00    +0.138 A 
ATOM      9  O   UNL     1       1.296  -0.212  -0.310  0.00  0.00    -0.448 OA
ENDROOT
BRANCH   1  11
ATOM     10  N   UNL     1       4.158  -0.327  -0.869  0.00  0.00    -0.279 N 
ATOM     11  C   UNL     1       3.561   0.826  -0.506  0.00  0.00    +0.285 C 
ATOM     12  O   UNL     1       4.209   1.855  -0.447  0.00  0.00    -0.266 OA
ATOM     13  H   UNL     1       3.629  -1.132  -0.981  0.00  0.00    +0.155 HD
BRANCH  10  17
ATOM     14  C   UNL     1       8.273  -0.431  -1.507  0.00  0.00    -0.048 A 
ATOM     15  C   UNL     1       7.631  -1.527  -0.960  0.00  0.00    +0.005 A 
ATOM     16  C   UNL     1       6.267  -1.496  -0.747  0.00  0.00    +0.023 A 
ATOM     17  C   UNL     1       5.539  -0.362  -1.083  0.00  0.00    +0.034 A 
ATOM     18  C   UNL     1       6.185   0.736  -1.637  0.00  0.00    +0.023 A 
ATOM     19  C   UNL     1       7.551   0.700  -1.843  0.00  0.00    +0.005 A 
BRANCH  14  21
ATOM     20  C   UNL     1      10.047  -1.013  -3.138  0.00  0.00    +0.009 C 
ATOM     21  C   UNL     1       9.761  -0.468  -1.737  0.00  0.00    +0.032 C 
ENDBRANCH  14  21
ENDBRANCH  10  17
ENDBRANCH   1  11
BRANCH   2  22
ATOM     22  N   UNL     1       1.952   3.188   0.559  0.00  0.00    -0.282 N 
ATOM     23  C   UNL     1       1.189   4.278   0.341  0.00  0.00    +0.222 C 
ATOM     24  O   UNL     1       0.031   4.150   0.003  0.00  0.00    -0.275 OA
ATOM     25  H   UNL     1       2.854   3.288   0.901  0.00  0.00    +0.155 HD
BRANCH  23  26
ATOM     26  C   UNL     1       1.775   5.655   0.517  0.00  0.00    +0.102 C 
ATOM     27  C   UNL     1       2.172   5.903   1.990  0.00  0.00    +0.110 C 
ATOM     28  C   UNL     1       0.958   6.575   2.593  0.00  0.00    +0.221 C 
ATOM     29  O   UNL     1       0.744   6.686   3.782  0.00  0.00    -0.275 OA
ATOM     30  N   UNL     1       0.151   7.031   1.620  0.00  0.00    -0.271 N 
ATOM     31  C   UNL     1       0.704   6.745   0.290  0.00  0.00    +0.127 C 
BRANCH  30  32
ATOM     32  C   UNL     1      -1.060   7.695   1.845  0.00  0.00    +0.037 A 
ATOM     33  C   UNL     1      -1.446   8.021   3.139  0.00  0.00    +0.024 A 
ATOM     34  C   UNL     1      -2.639   8.681   3.357  0.00  0.00    +0.005 A 
ATOM     35  C   UNL     1      -3.456   9.006   2.289  0.00  0.00    -0.047 A 
ATOM     36  C   UNL     1      -3.078   8.678   1.000  0.00  0.00    -0.046 A 
ATOM     37  C   UNL     1      -1.883   8.023   0.775  0.00  0.00    +0.027 A 
ATOM     38  C   UNL     1      -3.971   9.035  -0.160  0.00  0.00    +0.044 C 
ATOM     39  C   UNL     1      -4.761   9.720   2.531  0.00  0.00    +0.044 C 
ENDBRANCH  30  32
ENDBRANCH  23  26
ENDBRANCH   2  22
TORSDOF 6
