REMARK  Name = ZINC06149176
REMARK  14 active torsions:
REMARK  status: ('A' for Active; 'I' for Inactive)
REMARK    1  A    between atoms: C_1  and  C_2
REMARK    2  A    between atoms: C_2  and  C_3
REMARK    3  A    between atoms: C_3  and  C_4
REMARK    4  A    between atoms: C_3  and  C_5
REMARK    5  A    between atoms: C_3  and  N_6
REMARK    6  A    between atoms: C_7  and  C_11
REMARK    7  A    between atoms: C_11  and  C_13
REMARK    8  A    between atoms: C_11  and  N_70
REMARK    9  A    between atoms: C_17  and  O_25
REMARK   10  A    between atoms: O_25  and  C_26
REMARK   11  A    between atoms: C_27  and  C_28
REMARK   12  A    between atoms: C_27  and  N_70
REMARK   13  A    between atoms: C_35  and  C_36
REMARK   14  A    between atoms: C_35  and  N_70
REMARK                            x       y       z     vdW  Elec       q    Type
REMARK                         _______ _______ _______ _____ _____    ______ ____
ROOT
ATOM      1  C   UNL     1      -0.492   1.160  -0.638  0.00  0.00    +0.040 C 
ENDROOT
BRANCH   1   2
ATOM      2  C   UNL     1      -0.440   1.255  -2.141  0.00  0.00    +0.011 A 
ATOM      3  C   UNL     1      -1.010   0.286  -2.899  0.00  0.00    +0.017 A 
ATOM      4  C   UNL     1      -0.942   0.408  -4.357  0.00  0.00    +0.002 A 
ATOM      5  C   UNL     1      -1.512  -0.561  -5.190  0.00  0.00    +0.055 A 
ATOM      6  C   UNL     1      -1.431  -0.415  -6.560  0.00  0.00    +0.121 A 
ATOM      7  C   UNL     1      -0.785   0.689  -7.112  0.00  0.00    +0.047 A 
ATOM      8  C   UNL     1      -0.219   1.649  -6.303  0.00  0.00    +0.030 A 
ATOM      9  C   UNL     1      -0.290   1.522  -4.919  0.00  0.00    +0.049 A 
ATOM     10  N   UNL     1       0.269   2.473  -4.091  0.00  0.00    -0.322 N 
ATOM     11  H   UNL     1       0.736   3.262  -4.492  0.00  0.00    +0.169 HD
ATOM     12  C   UNL     1       0.197   2.355  -2.754  0.00  0.00    +0.251 A 
ATOM     13  O   UNL     1       0.698   3.218  -2.053  0.00  0.00    -0.268 OA
BRANCH   6  14
ATOM     14  O   UNL     1      -1.983  -1.353  -7.374  0.00  0.00    -0.495 OA
ATOM     15  C   UNL     1      -1.863  -1.142  -8.782  0.00  0.00    +0.277 C 
ENDBRANCH   6  14
ENDBRANCH   1   2
BRANCH   1  17
ATOM     16  N   UNL     1      -2.506   2.391   0.328  0.00  0.00    -0.225 N 
ATOM     17  C   UNL     1      -1.225   2.354  -0.084  0.00  0.00    +0.143 A 
ATOM     18  N   UNL     1      -0.737   3.558   0.096  0.00  0.00    -0.115 NA
ATOM     19  N   UNL     1      -1.672   4.297   0.585  0.00  0.00    -0.023 NA
ATOM     20  N   UNL     1      -2.741   3.595   0.729  0.00  0.00    -0.043 NA
BRANCH  16  21
ATOM     21  C   UNL     1      -3.455   1.275   0.322  0.00  0.00    +0.061 C 
ATOM     22  C   UNL     1      -3.579   0.719  -1.098  0.00  0.00    +0.036 C 
ATOM     23  C   UNL     1      -2.953   0.174   1.258  0.00  0.00    +0.036 C 
BRANCH  21  25
ATOM     24  C   UNL     1      -5.814   0.600   0.792  0.00  0.00    +0.006 C 
ATOM     25  C   UNL     1      -4.823   1.766   0.798  0.00  0.00    +0.026 C 
ENDBRANCH  21  25
ENDBRANCH  16  21
ENDBRANCH   1  17
BRANCH   1  26
ATOM     26  N   UNL     1       0.886   1.158  -0.104  0.00  0.00    +0.397 N 
ATOM     27  H   UNL     1       1.284   2.099  -0.205  0.00  0.00    -0.079 HD
BRANCH  26  28
ATOM     28  C   UNL     1       1.719   0.200  -0.860  0.00  0.00    -0.041 C 
BRANCH  28  29
ATOM     29  C   UNL     1       3.162   0.399  -0.471  0.00  0.00    -0.064 A 
ATOM     30  C   UNL     1       3.913   1.385  -1.083  0.00  0.00    +0.004 A 
ATOM     31  C   UNL     1       5.234   1.571  -0.724  0.00  0.00    +0.038 A 
ATOM     32  C   UNL     1       5.809   0.762   0.242  0.00  0.00    +0.123 A 
ATOM     33  C   UNL     1       5.057  -0.229   0.850  0.00  0.00    +0.038 A 
ATOM     34  C   UNL     1       3.735  -0.409   0.493  0.00  0.00    +0.004 A 
ATOM     35  F   UNL     1       7.102   0.941   0.591  0.00  0.00    -0.205 F 
ENDBRANCH  28  29
ENDBRANCH  26  28
BRANCH  26  36
ATOM     36  C   UNL     1       0.872   0.795   1.329  0.00  0.00    -0.001 C 
BRANCH  36  37
ATOM     37  C   UNL     1       0.492   2.012   2.131  0.00  0.00    +0.089 A 
ATOM     38  C   UNL     1      -0.741   2.301   2.586  0.00  0.00    +0.042 A 
ATOM     39  C   UNL     1      -0.644   3.527   3.283  0.00  0.00    +0.041 A 
ATOM     40  C   UNL     1       0.643   3.914   3.213  0.00  0.00    +0.195 A 
ATOM     41  O   UNL     1       1.327   2.990   2.519  0.00  0.00    -0.470 OA
ENDBRANCH  36  37
ENDBRANCH  26  36
ENDBRANCH   1  26
TORSDOF 10
