REMARK  Name = ZINC37131145
REMARK  7 active torsions:
REMARK  status: ('A' for Active; 'I' for Inactive)
REMARK    1  A    between atoms: C_1  and  C_2
REMARK    2  A    between atoms: C_4  and  C_21
REMARK    3  A    between atoms: C_5  and  C_9
REMARK    4  A    between atoms: C_6  and  C_8
REMARK    5  A    between atoms: C_9  and  N_10
REMARK    6  A    between atoms: N_10  and  C_11
REMARK    7  A    between atoms: C_14  and  N_18
REMARK                            x       y       z     vdW  Elec       q    Type
REMARK                         _______ _______ _______ _____ _____    ______ ____
ROOT
ATOM      1  N   UNL     1       1.447  -4.746  -0.032  0.00  0.00    -0.339 N 
ATOM      2  H   UNL     1       2.176  -4.106  -0.032  0.00  0.00    +0.146 HD
ENDROOT
BRANCH   1   3
ATOM      3  C   UNL     1       1.720  -6.116  -0.041  0.00  0.00    +0.042 A 
ATOM      4  C   UNL     1       0.677  -7.034  -0.046  0.00  0.00    +0.026 A 
ATOM      5  C   UNL     1       0.950  -8.387  -0.055  0.00  0.00    +0.034 A 
ATOM      6  C   UNL     1       2.260  -8.830  -0.059  0.00  0.00    +0.127 A 
ATOM      7  C   UNL     1       3.301  -7.920  -0.054  0.00  0.00    +0.049 A 
ATOM      8  C   UNL     1       3.035  -6.564  -0.050  0.00  0.00    +0.041 A 
ATOM      9 BR   UNL     1       4.459  -5.320  -0.052  0.00  0.00    -0.048 Br
BRANCH   6  10
ATOM     10  N   UNL     1       2.549 -10.282  -0.068  0.00  0.00    +0.056 N 
ATOM     11  O   UNL     1       1.640 -11.079  -0.072  0.00  0.00    -0.126 OA
ATOM     12  O   UNL     1       3.694 -10.671  -0.071  0.00  0.00    -0.126 OA
ENDBRANCH   6  10
ENDBRANCH   1   3
BRANCH   1  13
ATOM     13  C   UNL     1       0.059  -4.275  -0.021  0.00  0.00    +0.137 C 
BRANCH  13  18
ATOM     14  C   UNL     1      -0.018   1.503   0.010  0.00  0.00    +0.044 C 
ATOM     15  C   UNL     1       0.002  -0.004   0.002  0.00  0.00    -0.050 A 
ATOM     16  C   UNL     1       0.006  -0.689  -1.199  0.00  0.00    +0.007 A 
ATOM     17  C   UNL     1       0.025  -2.071  -1.206  0.00  0.00    -0.045 A 
ATOM     18  C   UNL     1       0.040  -2.768  -0.013  0.00  0.00    -0.025 A 
ATOM     19  C   UNL     1       0.037  -2.084   1.188  0.00  0.00    -0.045 A 
ATOM     20  C   UNL     1       0.023  -0.702   1.195  0.00  0.00    +0.007 A 
ATOM     21  C   UNL     1       0.054  -2.844   2.489  0.00  0.00    +0.044 C 
ATOM     22  C   UNL     1       0.027  -2.817  -2.516  0.00  0.00    +0.044 C 
ENDBRANCH  13  18
ENDBRANCH   1  13
TORSDOF 4
