REMARK  Name = ZINC22413744
REMARK  12 active torsions:
REMARK  status: ('A' for Active; 'I' for Inactive)
REMARK    1  A    between atoms: C_1  and  C_2
REMARK    2  A    between atoms: C_6  and  O_9
REMARK    3  A    between atoms: C_7  and  C_8
REMARK    4  A    between atoms: O_9  and  C_10
REMARK    5  A    between atoms: C_10  and  C_12
REMARK    6  A    between atoms: C_10  and  C_13
REMARK    7  A    between atoms: N_15  and  N_16
REMARK    8  A    between atoms: C_17  and  C_19
REMARK    9  A    between atoms: C_19  and  C_20
REMARK   10  A    between atoms: C_20  and  N_21
REMARK   11  A    between atoms: C_28  and  C_32
REMARK   12  A    between atoms: C_29  and  C_31
REMARK                            x       y       z     vdW  Elec       q    Type
REMARK                         _______ _______ _______ _____ _____    ______ ____
ROOT
ATOM      1  N   UNL     1      -2.167  -4.092  -1.166  0.00  0.00    -0.234 N 
ATOM      2  C   UNL     1      -3.265  -4.868  -1.261  0.00  0.00    +0.231 C 
ATOM      3  O   UNL     1      -4.331  -4.463  -0.848  0.00  0.00    -0.274 OA
ATOM      4  H   UNL     1      -1.200  -4.459  -1.541  0.00  0.00    +0.173 HD
ENDROOT
BRANCH   1   7
ATOM      5  C   UNL     1      -1.159  -2.041  -0.497  0.00  0.00    +0.270 C 
ATOM      6  O   UNL     1      -0.093  -2.446  -0.910  0.00  0.00    -0.270 OA
ATOM      7  N   UNL     1      -2.257  -2.817  -0.592  0.00  0.00    -0.231 N 
ATOM      8  H   UNL     1      -3.224  -2.450  -0.217  0.00  0.00    +0.173 HD
BRANCH   5   9
ATOM      9  C   UNL     1      -1.256  -0.671   0.121  0.00  0.00    +0.257 C 
ATOM     10  C   UNL     1      -1.625  -0.803   1.600  0.00  0.00    +0.062 C 
BRANCH   9  11
ATOM     11  O   UNL     1       0.002  -0.004   0.002  0.00  0.00    -0.480 OA
BRANCH  11  17
ATOM     12  C   UNL     1       2.398   4.222  -0.466  0.00  0.00    +0.044 C 
ATOM     13  C   UNL     1       1.130   3.448  -0.214  0.00  0.00    -0.044 A 
ATOM     14  C   UNL     1      -0.054   4.121   0.025  0.00  0.00    +0.004 A 
ATOM     15  C   UNL     1      -1.219   3.414   0.257  0.00  0.00    +0.004 A 
ATOM     16  C   UNL     1      -1.204   2.032   0.244  0.00  0.00    +0.046 A 
ATOM     17  C   UNL     1      -0.016   1.355   0.010  0.00  0.00    +0.125 A 
ATOM     18  C   UNL     1       1.152   2.067  -0.222  0.00  0.00    -0.006 A 
ATOM     19  C   UNL     1       2.443   1.334  -0.482  0.00  0.00    +0.048 C 
ENDBRANCH  11  17
ENDBRANCH   9  11
ENDBRANCH   5   9
ENDBRANCH   1   7
BRANCH   2  20
ATOM     20  C   UNL     1      -3.168  -6.238  -1.879  0.00  0.00    +0.119 C 
BRANCH  20  21
ATOM     21  C   UNL     1      -4.546  -6.904  -1.864  0.00  0.00    +0.135 C 
BRANCH  21  22
ATOM     22  N   UNL     1      -4.452  -8.236  -2.465  0.00  0.00    -0.298 N 
ATOM     23  C   UNL     1      -4.650  -8.379  -3.800  0.00  0.00    +0.203 A 
ATOM     24  N   UNL     1      -4.570  -9.549  -4.375  0.00  0.00    -0.230 NA
ATOM     25  C   UNL     1      -4.301 -10.643  -3.667  0.00  0.00    +0.116 A 
ATOM     26  C   UNL     1      -4.086 -10.595  -2.277  0.00  0.00    +0.075 A 
ATOM     27  C   UNL     1      -4.175  -9.295  -1.681  0.00  0.00    +0.262 A 
ATOM     28  O   UNL     1      -4.005  -9.151  -0.483  0.00  0.00    -0.267 OA
ATOM     29  C   UNL     1      -3.804 -11.876  -1.656  0.00  0.00    -0.026 A 
ATOM     30  C   UNL     1      -3.769 -12.980  -2.418  0.00  0.00    -0.008 A 
ATOM     31  S   UNL     1      -4.118 -12.364  -4.054  0.00  0.00    -0.073 S 
ATOM     32  C   UNL     1      -3.500 -14.401  -1.993  0.00  0.00    +0.052 C 
ATOM     33  C   UNL     1      -3.554 -11.965  -0.173  0.00  0.00    +0.045 C 
ENDBRANCH  21  22
ENDBRANCH  20  21
ENDBRANCH   2  20
TORSDOF 7
