REMARK  Name = ZINC39431110
REMARK  7 active torsions:
REMARK  status: ('A' for Active; 'I' for Inactive)
REMARK    1  A    between atoms: C_1  and  C_2
REMARK    2  A    between atoms: C_2  and  C_4
REMARK    3  A    between atoms: C_2  and  S_16
REMARK    4  A    between atoms: S_16  and  C_17
REMARK    5  A    between atoms: C_21  and  C_31
REMARK    6  A    between atoms: N_23  and  C_24
REMARK    7  A    between atoms: C_24  and  C_25
REMARK                            x       y       z     vdW  Elec       q    Type
REMARK                         _______ _______ _______ _____ _____    ______ ____
ROOT
ATOM      1  C   UNL     1      -2.281   0.037  -1.414  0.00  0.00    +0.139 C 
ATOM      2  N   UNL     1      -1.611  -0.530  -2.592  0.00  0.00    -0.198 NA
ATOM      3  N   UNL     1      -1.325   0.349  -3.410  0.00  0.00    -0.201 NA
ATOM      4  C   UNL     1      -1.748   1.673  -2.937  0.00  0.00    +0.147 C 
ATOM      5  N   UNL     1      -2.002   1.494  -1.483  0.00  0.00    +0.425 N 
ATOM      6  H   UNL     1      -1.186   1.732  -0.941  0.00  0.00    -0.073 HD
ENDROOT
BRANCH   4   7
ATOM      7  C   UNL     1      -0.654   2.685  -3.160  0.00  0.00    +0.114 A 
ATOM      8  C   UNL     1       0.238   2.669  -4.167  0.00  0.00    +0.045 A 
ATOM      9  C   UNL     1       1.074   3.796  -3.991  0.00  0.00    +0.041 A 
ATOM     10  C   UNL     1       0.643   4.433  -2.887  0.00  0.00    +0.195 A 
ATOM     11  O   UNL     1      -0.408   3.759  -2.392  0.00  0.00    -0.468 OA
ENDBRANCH   4   7
BRANCH   1  12
ATOM     12  S   UNL     1      -1.588  -0.668   0.107  0.00  0.00    -0.140 S 
BRANCH  12  14
ATOM     13  C   UNL     1      -1.943  -3.196  -0.876  0.00  0.00    +0.027 C 
ATOM     14  C   UNL     1      -2.408  -2.279   0.257  0.00  0.00    +0.109 C 
BRANCH  14  15
ATOM     15  C   UNL     1      -2.054  -2.901   1.584  0.00  0.00    +0.123 A 
ATOM     16  N   UNL     1      -2.486  -4.163   1.839  0.00  0.00    -0.309 N 
ATOM     17  H   UNL     1      -3.007  -4.637   1.173  0.00  0.00    +0.170 HD
ATOM     18  C   UNL     1      -2.194  -4.766   3.015  0.00  0.00    +0.259 A 
ATOM     19  O   UNL     1      -2.574  -5.897   3.257  0.00  0.00    -0.267 OA
ATOM     20  C   UNL     1      -1.400  -4.002   3.989  0.00  0.00    +0.065 A 
ATOM     21  C   UNL     1      -1.047  -4.531   5.229  0.00  0.00    +0.015 A 
ATOM     22  C   UNL     1      -0.302  -3.771   6.104  0.00  0.00    +0.001 A 
ATOM     23  C   UNL     1       0.097  -2.486   5.760  0.00  0.00    +0.002 A 
ATOM     24  C   UNL     1      -0.242  -1.945   4.540  0.00  0.00    +0.028 A 
ATOM     25  C   UNL     1      -0.996  -2.696   3.636  0.00  0.00    +0.078 A 
ATOM     26  N   UNL     1      -1.348  -2.204   2.421  0.00  0.00    -0.233 NA
ENDBRANCH  14  15
ENDBRANCH  12  14
ENDBRANCH   1  12
BRANCH   5  27
ATOM     27  C   UNL     1      -3.169   2.274  -1.049  0.00  0.00    -0.035 C 
BRANCH  27  28
ATOM     28  C   UNL     1      -3.417   2.034   0.418  0.00  0.00    -0.064 A 
ATOM     29  C   UNL     1      -4.242   1.000   0.819  0.00  0.00    +0.002 A 
ATOM     30  C   UNL     1      -4.470   0.779   2.165  0.00  0.00    +0.000 A 
ATOM     31  C   UNL     1      -3.871   1.592   3.109  0.00  0.00    +0.000 A 
ATOM     32  C   UNL     1      -3.044   2.625   2.708  0.00  0.00    +0.000 A 
ATOM     33  C   UNL     1      -2.813   2.843   1.363  0.00  0.00    +0.002 A 
ENDBRANCH  27  28
ENDBRANCH   5  27
TORSDOF 6
