REMARK  Name = ZINC12488832
REMARK  15 active torsions:
REMARK  status: ('A' for Active; 'I' for Inactive)
REMARK    1  A    between atoms: C_1  and  C_2
REMARK    2  A    between atoms: C_2  and  C_3
REMARK    3  A    between atoms: C_3  and  C_4
REMARK    4  A    between atoms: C_3  and  C_5
REMARK    5  A    between atoms: C_3  and  N_6
REMARK    6  A    between atoms: C_7  and  C_9
REMARK    7  A    between atoms: C_9  and  C_11
REMARK    8  A    between atoms: C_9  and  N_18
REMARK    9  A    between atoms: C_14  and  C_17
REMARK   10  A    between atoms: N_18  and  C_19
REMARK   11  A    between atoms: C_24  and  C_25
REMARK   12  A    between atoms: C_25  and  C_27
REMARK   13  A    between atoms: C_28  and  C_30
REMARK   14  A    between atoms: C_30  and  N_31
REMARK   15  A    between atoms: C_32  and  C_34
REMARK                            x       y       z     vdW  Elec       q    Type
REMARK                         _______ _______ _______ _____ _____    ______ ____
ROOT
ATOM      1  N   UNL     1      -6.077   2.625   0.298  0.00  0.00    -0.253 N 
ATOM      2  C   UNL     1      -4.988   2.444  -0.474  0.00  0.00    +0.238 C 
ATOM      3  O   UNL     1      -5.073   1.809  -1.504  0.00  0.00    -0.274 OA
ENDROOT
BRANCH   1   4
ATOM      4  C   UNL     1      -5.980   3.354   1.480  0.00  0.00    +0.048 A 
ATOM      5  C   UNL     1      -6.079   4.738   1.456  0.00  0.00    +0.024 A 
ATOM      6  C   UNL     1      -5.983   5.459   2.628  0.00  0.00    +0.002 A 
ATOM      7  C   UNL     1      -5.787   4.811   3.838  0.00  0.00    +0.001 A 
ATOM      8  C   UNL     1      -5.686   3.439   3.884  0.00  0.00    +0.013 A 
ATOM      9  C   UNL     1      -5.786   2.692   2.705  0.00  0.00    +0.039 A 
BRANCH   9  10
ATOM     10  C   UNL     1      -5.685   1.228   2.746  0.00  0.00    +0.162 C 
ATOM     11  O   UNL     1      -5.768   0.585   1.721  0.00  0.00    -0.292 OA
ATOM     12  C   UNL     1      -5.477   0.524   4.062  0.00  0.00    +0.091 C 
ENDBRANCH   9  10
ENDBRANCH   1   4
BRANCH   1  13
ATOM     13  C   UNL     1      -7.364   2.053  -0.105  0.00  0.00    +0.197 C 
BRANCH  13  14
ATOM     14  C   UNL     1      -8.379   2.278   0.986  0.00  0.00    -0.018 A 
ATOM     15  C   UNL     1      -8.703   3.564   1.374  0.00  0.00    +0.006 A 
ATOM     16  C   UNL     1      -9.637   3.771   2.372  0.00  0.00    +0.004 A 
ATOM     17  C   UNL     1     -10.239   2.691   2.989  0.00  0.00    -0.050 A 
ATOM     18  C   UNL     1      -9.911   1.404   2.605  0.00  0.00    +0.004 A 
ATOM     19  C   UNL     1      -8.981   1.198   1.604  0.00  0.00    +0.006 A 
ATOM     20  C   UNL     1     -11.252   2.916   4.082  0.00  0.00    +0.044 C 
ENDBRANCH  13  14
BRANCH  13  22
ATOM     21  N   UNL     1      -9.003   2.351  -1.934  0.00  0.00    -0.308 N 
ATOM     22  C   UNL     1      -7.834   2.719  -1.373  0.00  0.00    +0.239 C 
ATOM     23  O   UNL     1      -7.161   3.586  -1.888  0.00  0.00    -0.273 OA
ATOM     24  H   UNL     1      -9.542   1.658  -1.522  0.00  0.00    +0.149 HD
BRANCH  21  25
ATOM     25  C   UNL     1      -9.460   2.999  -3.166  0.00  0.00    +0.029 C 
ATOM     26  C   UNL     1      -9.623   4.501  -2.923  0.00  0.00    +0.031 C 
ATOM     27  C   UNL     1      -8.431   2.771  -4.274  0.00  0.00    +0.031 C 
BRANCH  25  29
ATOM     28  C   UNL     1     -11.281   3.078  -4.875  0.00  0.00    +0.006 C 
ATOM     29  C   UNL     1     -10.804   2.402  -3.588  0.00  0.00    +0.022 C 
ENDBRANCH  25  29
ENDBRANCH  21  25
ENDBRANCH  13  22
ENDBRANCH   1  13
BRANCH   2  30
ATOM     30  C   UNL     1      -3.664   3.032  -0.059  0.00  0.00    +0.201 C 
BRANCH  30  31
ATOM     31  N   UNL     1      -2.646   2.699  -1.058  0.00  0.00    -0.302 N 
ATOM     32  C   UNL     1      -1.377   3.122  -0.895  0.00  0.00    +0.251 C 
ATOM     33  O   UNL     1      -1.077   3.782   0.083  0.00  0.00    -0.270 OA
ATOM     34  H   UNL     1      -2.886   2.173  -1.837  0.00  0.00    +0.150 HD
BRANCH  32  35
ATOM     35  C   UNL     1      -0.359   2.788  -1.895  0.00  0.00    +0.074 A 
ATOM     36  C   UNL     1       0.985   3.126  -1.920  0.00  0.00    +0.021 A 
ATOM     37  C   UNL     1       1.722   2.682  -2.990  0.00  0.00    +0.008 A 
ATOM     38  C   UNL     1       1.111   1.947  -3.956  0.00  0.00    +0.046 A 
ATOM     39  S   UNL     1      -0.528   1.847  -3.401  0.00  0.00    -0.092 S 
ENDBRANCH  32  35
ENDBRANCH  30  31
ENDBRANCH   2  30
TORSDOF 10
