REMARK  Name = ZINC16647617
REMARK  10 active torsions:
REMARK  status: ('A' for Active; 'I' for Inactive)
REMARK    1  A    between atoms: C_1  and  C_2
REMARK    2  A    between atoms: C_2  and  C_3
REMARK    3  A    between atoms: C_3  and  C_5
REMARK    4  A    between atoms: C_3  and  C_6
REMARK    5  A    between atoms: C_6  and  N_7
REMARK    6  A    between atoms: C_8  and  C_10
REMARK    7  A    between atoms: C_10  and  N_11
REMARK    8  A    between atoms: N_13  and  C_34
REMARK    9  A    between atoms: C_22  and  C_24
REMARK   10  A    between atoms: C_28  and  C_30
REMARK                            x       y       z     vdW  Elec       q    Type
REMARK                         _______ _______ _______ _____ _____    ______ ____
ROOT
ATOM      1  N   UNL     1      -2.230   5.180   9.611  0.00  0.00    -0.275 N 
ATOM      2  C   UNL     1      -1.796   6.564   9.387  0.00  0.00    +0.217 C 
ATOM      3  N   UNL     1      -1.824   6.774   7.920  0.00  0.00    -0.300 N 
ATOM      4  C   UNL     1      -1.622   5.411   7.384  0.00  0.00    +0.115 C 
ATOM      5  C   UNL     1      -2.130   4.482   8.460  0.00  0.00    +0.241 C 
ATOM      6  O   UNL     1      -2.402   3.309   8.314  0.00  0.00    -0.273 OA
ATOM      7  C   UNL     1      -0.138   5.165   7.127  0.00  0.00    +0.054 C 
ATOM      8  C   UNL     1       0.059   3.732   6.622  0.00  0.00    +0.110 C 
ATOM      9  N   UNL     1      -0.812   3.517   5.459  0.00  0.00    -0.297 N 
ATOM     10  C   UNL     1      -2.248   3.801   5.586  0.00  0.00    +0.110 C 
ATOM     11  C   UNL     1      -2.427   5.229   6.101  0.00  0.00    +0.054 C 
ATOM     12  C   UNL     1      -0.302   3.072   4.293  0.00  0.00    +0.247 C 
ATOM     13  O   UNL     1       0.884   2.818   4.206  0.00  0.00    -0.270 OA
ENDROOT
BRANCH  12  14
ATOM     14  C   UNL     1      -1.185   2.893   3.121  0.00  0.00    +0.037 A 
ATOM     15  C   UNL     1      -2.516   2.514   3.297  0.00  0.00    +0.013 A 
ATOM     16  C   UNL     1      -3.334   2.349   2.199  0.00  0.00    +0.001 A 
ATOM     17  C   UNL     1      -2.839   2.563   0.925  0.00  0.00    +0.012 A 
ATOM     18  C   UNL     1      -1.519   2.934   0.743  0.00  0.00    +0.056 A 
ATOM     19  C   UNL     1      -0.690   3.102   1.833  0.00  0.00    +0.025 A 
BRANCH  18  20
ATOM     20  C   UNL     1      -0.987   3.160  -0.649  0.00  0.00    +0.417 C 
ATOM     21  F   UNL     1      -0.470   1.961  -1.151  0.00  0.00    -0.166 F 
ATOM     22  F   UNL     1       0.026   4.124  -0.610  0.00  0.00    -0.166 F 
ATOM     23  F   UNL     1      -2.022   3.605  -1.478  0.00  0.00    -0.166 F 
ENDBRANCH  18  20
ENDBRANCH  12  14
BRANCH   3  24
ATOM     24  C   UNL     1      -0.796   7.629   7.517  0.00  0.00    +0.032 A 
ATOM     25  C   UNL     1      -0.032   8.295   8.466  0.00  0.00    +0.023 A 
ATOM     26  C   UNL     1       0.987   9.136   8.063  0.00  0.00    +0.002 A 
ATOM     27  C   UNL     1       1.241   9.323   6.717  0.00  0.00    +0.000 A 
ATOM     28  C   UNL     1       0.479   8.664   5.769  0.00  0.00    +0.002 A 
ATOM     29  C   UNL     1      -0.538   7.818   6.165  0.00  0.00    +0.023 A 
ENDBRANCH   3  24
BRANCH   1  30
ATOM     30  C   UNL     1      -2.700   4.638  10.888  0.00  0.00    +0.205 C 
BRANCH  30  32
ATOM     31  N   UNL     1      -1.724   3.536  12.876  0.00  0.00    -0.314 N 
ATOM     32  C   UNL     1      -1.530   4.089  11.662  0.00  0.00    +0.230 C 
ATOM     33  O   UNL     1      -0.412   4.144  11.193  0.00  0.00    -0.274 OA
ATOM     34  H   UNL     1      -2.617   3.491  13.251  0.00  0.00    +0.149 HD
BRANCH  31  35
ATOM     35  C   UNL     1      -0.586   3.002  13.628  0.00  0.00    +0.107 C 
BRANCH  35  36
ATOM     36  C   UNL     1      -1.077   2.436  14.962  0.00  0.00    +0.003 C 
ATOM     37  C   UNL     1      -1.989   1.236  14.702  0.00  0.00    +0.009 C 
BRANCH  36  39
ATOM     38  C   UNL     1      -0.357   1.542  17.182  0.00  0.00    +0.004 C 
ATOM     39  C   UNL     1       0.124   1.992  15.800  0.00  0.00    +0.001 C 
ENDBRANCH  36  39
ENDBRANCH  35  36
ENDBRANCH  31  35
ENDBRANCH  30  32
ENDBRANCH   1  30
TORSDOF 8
