REMARK  Name = ZINC65666326
REMARK  7 active torsions:
REMARK  status: ('A' for Active; 'I' for Inactive)
REMARK    1  A    between atoms: C_1  and  C_2
REMARK    2  A    between atoms: C_2  and  C_27
REMARK    3  A    between atoms: C_9  and  O_13
REMARK    4  A    between atoms: O_13  and  C_14
REMARK    5  A    between atoms: C_14  and  C_16
REMARK    6  A    between atoms: C_19  and  C_22
REMARK    7  A    between atoms: C_22  and  N_23
REMARK                            x       y       z     vdW  Elec       q    Type
REMARK                         _______ _______ _______ _____ _____    ______ ____
ROOT
ATOM      1  C   UNL     1       3.485  -5.141   2.709  0.00  0.00    +0.344 C 
ATOM      2  O   UNL     1       3.422  -5.369   1.518  0.00  0.00    -0.245 OA
ENDROOT
BRANCH   1   3
ATOM      3  C   UNL     1       4.488  -5.835   3.542  0.00  0.00    +0.059 A 
ATOM      4  C   UNL     1       4.559  -5.579   4.913  0.00  0.00    +0.015 A 
ATOM      5  C   UNL     1       5.498  -6.231   5.685  0.00  0.00    +0.006 A 
ATOM      6  C   UNL     1       6.368  -7.136   5.104  0.00  0.00    -0.030 A 
ATOM      7  C   UNL     1       6.304  -7.394   3.747  0.00  0.00    +0.006 A 
ATOM      8  C   UNL     1       5.365  -6.754   2.964  0.00  0.00    +0.015 A 
BRANCH   6   9
ATOM      9  C   UNL     1       7.392  -7.845   5.954  0.00  0.00    +0.141 C 
BRANCH   9  10
ATOM     10  N   UNL     1       6.821  -9.093   6.467  0.00  0.00    -0.295 N 
ATOM     11  C   UNL     1       7.560  -9.898   7.256  0.00  0.00    +0.297 C 
ATOM     12  O   UNL     1       8.700  -9.587   7.543  0.00  0.00    -0.253 OA
ATOM     13  N   UNL     1       7.035 -11.046   7.728  0.00  0.00    -0.313 N 
ATOM     14  H   UNL     1       5.912  -9.341   6.238  0.00  0.00    +0.151 HD
ATOM     15  H   UNL     1       6.126 -11.293   7.499  0.00  0.00    +0.146 HD
ATOM     16  H   UNL     1       7.567 -11.625   8.296  0.00  0.00    +0.146 HD
ENDBRANCH   9  10
ENDBRANCH   6   9
ENDBRANCH   1   3
BRANCH   1  17
ATOM     17  O   UNL     1       2.640  -4.254   3.271  0.00  0.00    -0.422 OA
BRANCH  17  26
ATOM     18  C   UNL     1       0.067   1.414  -0.244  0.00  0.00    +0.056 C 
ATOM     19  C   UNL     1       0.032  -0.113  -0.158  0.00  0.00    +0.112 C 
ATOM     20  C   UNL     1      -1.425  -0.588  -0.058  0.00  0.00    +0.127 C 
ATOM     21  C   UNL     1      -1.397  -2.102   0.058  0.00  0.00    +0.170 C 
ATOM     22  O   UNL     1      -2.203  -2.801  -0.520  0.00  0.00    -0.292 OA
ATOM     23  C   UNL     1      -0.343  -2.676   0.908  0.00  0.00    +0.059 A 
ATOM     24  C   UNL     1      -0.382  -4.023   1.281  0.00  0.00    +0.018 A 
ATOM     25  C   UNL     1       0.610  -4.539   2.065  0.00  0.00    +0.047 A 
ATOM     26  C   UNL     1       1.659  -3.729   2.494  0.00  0.00    +0.135 A 
ATOM     27  C   UNL     1       1.708  -2.390   2.135  0.00  0.00    +0.092 A 
ATOM     28  C   UNL     1       0.709  -1.850   1.342  0.00  0.00    +0.135 A 
ATOM     29  O   UNL     1       0.749  -0.541   0.999  0.00  0.00    -0.485 OA
ATOM     30  C   UNL     1       0.679  -0.710  -1.409  0.00  0.00    +0.056 C 
ENDBRANCH  17  26
ENDBRANCH   1  17
TORSDOF 5
