REMARK  Name = ZINC64723079
REMARK  6 active torsions:
REMARK  status: ('A' for Active; 'I' for Inactive)
REMARK    1  A    between atoms: C_7  and  C_10
REMARK    2  A    between atoms: C_10  and  C_12
REMARK    3  A    between atoms: C_10  and  C_29
REMARK    4  A    between atoms: C_12  and  N_13
REMARK    5  A    between atoms: C_17  and  S_20
REMARK    6  A    between atoms: S_20  and  N_23
REMARK                            x       y       z     vdW  Elec       q    Type
REMARK                         _______ _______ _______ _____ _____    ______ ____
ROOT
ATOM      1  C   UNL     1       0.947  -4.042   1.218  0.00  0.00    +0.116 C 
ENDROOT
BRANCH   1   2
ATOM      2  N   UNL     1      -0.044  -5.118   1.282  0.00  0.00    -0.328 N 
ATOM      3  C   UNL     1      -0.013  -6.031   2.330  0.00  0.00    +0.119 A 
ATOM      4  C   UNL     1       0.961  -5.913   3.317  0.00  0.00    +0.045 A 
ATOM      5  C   UNL     1       0.981  -6.828   4.354  0.00  0.00    +0.033 A 
ATOM      6  C   UNL     1       0.023  -7.834   4.369  0.00  0.00    +0.124 A 
ATOM      7  C   UNL     1      -0.913  -7.892   3.357  0.00  0.00    +0.141 A 
ATOM      8  N   UNL     1      -0.912  -7.002   2.382  0.00  0.00    -0.239 NA
ATOM      9  H   UNL     1      -0.723  -5.194   0.593  0.00  0.00    +0.147 HD
BRANCH   6  10
ATOM     10  S   UNL     1       0.005  -9.026   5.667  0.00  0.00    +0.062 S 
ATOM     11  O   UNL     1      -0.650 -10.177   5.152  0.00  0.00    -0.153 OA
ATOM     12  O   UNL     1       1.323  -9.072   6.195  0.00  0.00    -0.153 OA
BRANCH  10  13
ATOM     13  N   UNL     1      -0.965  -8.427   6.868  0.00  0.00    -0.172 NA
ATOM     14  C   UNL     1      -0.410  -7.588   7.942  0.00  0.00    +0.137 C 
ATOM     15  C   UNL     1      -1.264  -6.320   8.056  0.00  0.00    +0.177 C 
ATOM     16  O   UNL     1      -2.639  -6.689   8.184  0.00  0.00    -0.377 OA
ATOM     17  C   UNL     1      -3.164  -7.394   7.057  0.00  0.00    +0.177 C 
ATOM     18  C   UNL     1      -2.408  -8.712   6.889  0.00  0.00    +0.137 C 
ENDBRANCH  10  13
ENDBRANCH   6  10
ENDBRANCH   1   2
BRANCH   1  19
ATOM     19  C   UNL     1       0.691  -3.186  -0.024  0.00  0.00    +0.071 C 
BRANCH  19  26
ATOM     20  C   UNL     1      -0.016   1.348   0.009  0.00  0.00    +0.001 A 
ATOM     21  C   UNL     1       1.166   2.101   0.002  0.00  0.00    +0.002 A 
ATOM     22  C   UNL     1       2.391   1.535  -0.013  0.00  0.00    +0.026 A 
ATOM     23  C   UNL     1       2.529   0.120  -0.022  0.00  0.00    +0.043 A 
ATOM     24  N   UNL     1       3.587  -0.654  -0.037  0.00  0.00    -0.380 N 
ATOM     25  C   UNL     1       3.143  -2.053  -0.041  0.00  0.00    +0.145 C 
ATOM     26  C   UNL     1       1.631  -2.008  -0.025  0.00  0.00    -0.032 C 
ATOM     27  C   UNL     1       1.295  -0.698  -0.014  0.00  0.00    -0.000 A 
ATOM     28  C   UNL     1       0.002  -0.004   0.002  0.00  0.00    +0.010 A 
ATOM     29  H   UNL     1       4.509  -0.353  -0.045  0.00  0.00    +0.160 HD
ENDBRANCH  19  26
BRANCH  19  30
ATOM     30  C   UNL     1       0.920  -4.014  -1.262  0.00  0.00    -0.002 A 
ATOM     31  C   UNL     1       0.053  -4.316  -2.259  0.00  0.00    +0.012 A 
ATOM     32  C   UNL     1       0.488  -5.102  -3.310  0.00  0.00    +0.008 A 
ATOM     33  C   UNL     1       1.769  -5.546  -3.312  0.00  0.00    +0.045 A 
ATOM     34  S   UNL     1       2.406  -4.845  -1.799  0.00  0.00    -0.101 S 
ENDBRANCH  19  30
ENDBRANCH   1  19
TORSDOF 6
