REMARK  Name = ZINC06046542
REMARK  4 active torsions:
REMARK  status: ('A' for Active; 'I' for Inactive)
REMARK    1  A    between atoms: C_1  and  C_2
REMARK    2  A    between atoms: C_5  and  C_9
REMARK    3  A    between atoms: C_6  and  C_8
REMARK    4  A    between atoms: N_11  and  N_12
REMARK                            x       y       z     vdW  Elec       q    Type
REMARK                         _______ _______ _______ _____ _____    ______ ____
ROOT
ATOM      1  C   UNL     1       0.516  -4.205   0.128  0.00  0.00    +0.264 C 
ATOM      2  O   UNL     1       0.603  -4.757   1.208  0.00  0.00    -0.268 OA
ATOM      3  N   UNL     1       0.652  -4.920  -1.007  0.00  0.00    -0.203 N 
ATOM      4  H   UNL     1       0.583  -4.480  -1.868  0.00  0.00    +0.178 HD
ENDROOT
BRANCH   3   5
ATOM      5  N   UNL     1       0.893  -6.298  -0.942  0.00  0.00    -0.184 NA
ATOM      6  C   UNL     1       1.024  -6.986  -2.034  0.00  0.00    +0.067 C 
ATOM      7  C   UNL     1       0.948  -6.441  -3.440  0.00  0.00    +0.062 C 
ATOM      8  C   UNL     1       1.166  -7.653  -4.357  0.00  0.00    +0.042 C 
ATOM      9  C   UNL     1       1.360  -8.844  -3.450  0.00  0.00    -0.038 A 
ATOM     10  C   UNL     1       1.280  -8.437  -2.119  0.00  0.00    +0.001 A 
ATOM     11  C   UNL     1       1.438  -9.386  -1.100  0.00  0.00    +0.010 A 
ATOM     12  C   UNL     1       1.674 -10.706  -1.415  0.00  0.00    +0.001 A 
ATOM     13  C   UNL     1       1.756 -11.100  -2.739  0.00  0.00    +0.000 A 
ATOM     14  C   UNL     1       1.591 -10.173  -3.751  0.00  0.00    +0.004 A 
ENDBRANCH   3   5
BRANCH   1  19
ATOM     15  C   UNL     1      -0.478   1.456  -0.140  0.00  0.00    +0.044 C 
ATOM     16  C   UNL     1      -0.218  -0.026  -0.070  0.00  0.00    -0.050 A 
ATOM     17  C   UNL     1       0.051  -0.734  -1.228  0.00  0.00    +0.004 A 
ATOM     18  C   UNL     1       0.290  -2.091  -1.171  0.00  0.00    +0.013 A 
ATOM     19  C   UNL     1       0.261  -2.751   0.059  0.00  0.00    +0.041 A 
ATOM     20  C   UNL     1      -0.010  -2.031   1.224  0.00  0.00    -0.038 A 
ATOM     21  C   UNL     1      -0.242  -0.673   1.153  0.00  0.00    +0.007 A 
ATOM     22  C   UNL     1      -0.044  -2.735   2.556  0.00  0.00    +0.044 C 
ENDBRANCH   1  19
TORSDOF 2
