REMARK  Name = ZINC13064665
REMARK  15 active torsions:
REMARK  status: ('A' for Active; 'I' for Inactive)
REMARK    1  A    between atoms: C_1  and  C_2
REMARK    2  A    between atoms: C_2  and  C_3
REMARK    3  A    between atoms: C_3  and  C_5
REMARK    4  A    between atoms: C_3  and  N_65
REMARK    5  A    between atoms: N_9  and  C_10
REMARK    6  A    between atoms: C_10  and  C_11
REMARK    7  A    between atoms: C_11  and  O_13
REMARK    8  A    between atoms: O_13  and  C_14
REMARK    9  A    between atoms: C_14  and  C_15
REMARK   10  A    between atoms: C_16  and  C_17
REMARK   11  A    between atoms: C_16  and  N_65
REMARK   12  A    between atoms: C_22  and  C_23
REMARK   13  A    between atoms: C_22  and  N_65
REMARK   14  A    between atoms: C_27  and  C_36
REMARK   15  A    between atoms: C_28  and  C_35
REMARK                            x       y       z     vdW  Elec       q    Type
REMARK                         _______ _______ _______ _____ _____    ______ ____
ROOT
ATOM      1  N   UNL     1      -5.634   3.612  -1.308  0.00  0.00    +0.392 N 
ATOM      2  H   UNL     1      -5.487   2.636  -1.590  0.00  0.00    -0.080 HD
ENDROOT
BRANCH   1   3
ATOM      3  C   UNL     1      -6.946   4.066  -1.816  0.00  0.00    +0.003 C 
BRANCH   3   4
ATOM      4  C   UNL     1      -7.180   3.443  -3.168  0.00  0.00    +0.139 A 
ATOM      5  N   UNL     1      -6.321   3.368  -4.155  0.00  0.00    -0.115 NA
ATOM      6  N   UNL     1      -6.895   2.765  -5.138  0.00  0.00    -0.023 NA
ATOM      7  N   UNL     1      -8.099   2.454  -4.804  0.00  0.00    -0.043 NA
ATOM      8  N   UNL     1      -8.310   2.850  -3.595  0.00  0.00    -0.220 N 
BRANCH   8   9
ATOM      9  C   UNL     1      -9.550   2.689  -2.830  0.00  0.00    +0.267 C 
BRANCH   9  10
ATOM     10  C   UNL     1     -10.443   3.880  -3.063  0.00  0.00    +0.329 C 
ATOM     11  O   UNL     1     -10.080   4.773  -3.792  0.00  0.00    -0.249 OA
BRANCH  10  12
ATOM     12  O   UNL     1     -11.640   3.950  -2.460  0.00  0.00    -0.464 OA
BRANCH  12  13
ATOM     13  C   UNL     1     -12.446   5.127  -2.729  0.00  0.00    +0.229 C 
ATOM     14  C   UNL     1     -13.765   5.029  -1.960  0.00  0.00    +0.048 C 
ENDBRANCH  12  13
ENDBRANCH  10  12
ENDBRANCH   9  10
ENDBRANCH   8   9
ENDBRANCH   3   4
BRANCH   3  16
ATOM     15  C   UNL     1      -6.870   6.222  -0.556  0.00  0.00    +0.002 C 
ATOM     16  C   UNL     1      -6.970   5.590  -1.946  0.00  0.00    -0.011 C 
ENDBRANCH   3  16
ENDBRANCH   1   3
BRANCH   1  17
ATOM     17  C   UNL     1      -4.555   4.445  -1.880  0.00  0.00    -0.034 C 
BRANCH  17  18
ATOM     18  C   UNL     1      -3.244   3.723  -1.708  0.00  0.00    -0.027 A 
ATOM     19  C   UNL     1      -2.632   2.852  -2.547  0.00  0.00    +0.009 A 
ATOM     20  C   UNL     1      -1.417   2.305  -2.177  0.00  0.00    +0.008 A 
ATOM     21  C   UNL     1      -0.874   2.656  -0.986  0.00  0.00    +0.045 A 
ATOM     22  S   UNL     1      -2.090   3.797  -0.347  0.00  0.00    -0.103 S 
ENDBRANCH  17  18
ENDBRANCH   1  17
BRANCH   1  23
ATOM     23  C   UNL     1      -5.607   3.696   0.168  0.00  0.00    -0.036 C 
BRANCH  23  24
ATOM     24  C   UNL     1      -6.334   2.501   0.731  0.00  0.00    +0.001 A 
ATOM     25  C   UNL     1      -5.644   1.374   1.038  0.00  0.00    +0.017 A 
ATOM     26  C   UNL     1      -6.380   0.230   1.579  0.00  0.00    -0.001 A 
ATOM     27  C   UNL     1      -5.727  -0.965   1.898  0.00  0.00    +0.013 A 
ATOM     28  C   UNL     1      -6.442  -2.014   2.401  0.00  0.00    -0.047 A 
ATOM     29  C   UNL     1      -7.812  -1.905   2.599  0.00  0.00    -0.046 A 
ATOM     30  C   UNL     1      -8.477  -0.738   2.292  0.00  0.00    +0.030 A 
ATOM     31  C   UNL     1      -7.770   0.343   1.773  0.00  0.00    +0.049 A 
ATOM     32  N   UNL     1      -8.410   1.521   1.451  0.00  0.00    -0.322 N 
ATOM     33  H   UNL     1      -9.367   1.598   1.589  0.00  0.00    +0.169 HD
ATOM     34  C   UNL     1      -7.726   2.564   0.950  0.00  0.00    +0.251 A 
ATOM     35  O   UNL     1      -8.325   3.591   0.677  0.00  0.00    -0.268 OA
ATOM     36  C   UNL     1      -8.581  -3.076   3.155  0.00  0.00    +0.044 C 
ATOM     37  C   UNL     1      -5.738  -3.301   2.745  0.00  0.00    +0.044 C 
ENDBRANCH  23  24
ENDBRANCH   1  23
TORSDOF 11
