REMARK  Name = ZINC06880294
REMARK  3 active torsions:
REMARK  status: ('A' for Active; 'I' for Inactive)
REMARK    1  A    between atoms: N_12  and  C_16
REMARK    2  A    between atoms: C_16  and  C_17
REMARK    3  A    between atoms: C_17  and  C_19
REMARK                            x       y       z     vdW  Elec       q    Type
REMARK                         _______ _______ _______ _____ _____    ______ ____
ROOT
ATOM      1  C   UNL     1       6.189   3.002  -8.440  0.00  0.00    +0.000 A 
ATOM      2  C   UNL     1       5.580   1.993  -7.718  0.00  0.00    +0.000 A 
ATOM      3  C   UNL     1       4.210   1.828  -7.785  0.00  0.00    +0.006 A 
ATOM      4  C   UNL     1       3.442   2.669  -8.573  0.00  0.00    -0.012 A 
ATOM      5  C   UNL     1       4.054   3.680  -9.295  0.00  0.00    -0.042 A 
ATOM      6  C   UNL     1       5.427   3.842  -9.227  0.00  0.00    +0.004 A 
ATOM      7  C   UNL     1       3.011   4.459 -10.070  0.00  0.00    +0.038 C 
ATOM      8  C   UNL     1       1.756   3.558 -10.080  0.00  0.00    +0.045 C 
ATOM      9  C   UNL     1       1.958   2.707  -8.821  0.00  0.00    +0.138 C 
ATOM     10  C   UNL     1       1.209   3.286  -7.649  0.00  0.00    +0.251 C 
ATOM     11  O   UNL     1       1.345   4.387  -7.161  0.00  0.00    -0.272 OA
ATOM     12  N   UNL     1       0.356   2.315  -7.258  0.00  0.00    -0.216 N 
ATOM     13  C   UNL     1       0.466   1.223  -8.026  0.00  0.00    +0.310 C 
ATOM     14  O   UNL     1      -0.201   0.219  -7.873  0.00  0.00    -0.252 OA
ATOM     15  N   UNL     1       1.401   1.364  -8.988  0.00  0.00    -0.281 N 
ATOM     16  H   UNL     1       1.652   0.708  -9.656  0.00  0.00    +0.152 HD
ENDROOT
BRANCH  12  17
ATOM     17  C   UNL     1      -0.579   2.442  -6.137  0.00  0.00    +0.197 C 
BRANCH  17  18
ATOM     18  C   UNL     1       0.087   1.966  -4.871  0.00  0.00    +0.181 C 
ATOM     19  O   UNL     1       1.229   1.561  -4.903  0.00  0.00    -0.290 OA
BRANCH  18  20
ATOM     20  C   UNL     1      -0.650   1.994  -3.598  0.00  0.00    +0.019 A 
ATOM     21  C   UNL     1      -1.968   2.460  -3.554  0.00  0.00    +0.012 A 
ATOM     22  C   UNL     1      -2.642   2.481  -2.356  0.00  0.00    +0.004 A 
ATOM     23  C   UNL     1      -2.028   2.045  -1.186  0.00  0.00    -0.044 A 
ATOM     24  C   UNL     1      -0.731   1.580  -1.221  0.00  0.00    -0.044 A 
ATOM     25  C   UNL     1      -0.040   1.555  -2.422  0.00  0.00    +0.015 A 
ATOM     26  C   UNL     1      -0.013   1.086   0.008  0.00  0.00    +0.035 C 
ATOM     27  C   UNL     1      -0.717   1.573   1.273  0.00  0.00    +0.005 C 
ATOM     28  C   UNL     1      -2.205   1.224   1.163  0.00  0.00    +0.005 C 
ATOM     29  C   UNL     1      -2.829   2.112   0.089  0.00  0.00    +0.035 C 
ENDBRANCH  18  20
ENDBRANCH  17  18
ENDBRANCH  12  17
TORSDOF 3
