REMARK  Name = ZINC54456885
REMARK  7 active torsions:
REMARK  status: ('A' for Active; 'I' for Inactive)
REMARK    1  A    between atoms: C_1  and  C_2
REMARK    2  A    between atoms: C_4  and  C_14
REMARK    3  A    between atoms: N_16  and  C_17
REMARK    4  A    between atoms: C_17  and  C_18
REMARK    5  A    between atoms: C_18  and  N_24
REMARK    6  A    between atoms: N_24  and  C_25
REMARK    7  A    between atoms: N_24  and  C_26
REMARK                            x       y       z     vdW  Elec       q    Type
REMARK                         _______ _______ _______ _____ _____    ______ ____
ROOT
ATOM      1  C   UNL     1       0.422   0.067  -2.663  0.00  0.00    +0.257 C 
ATOM      2  O   UNL     1      -0.197  -0.743  -3.320  0.00  0.00    -0.272 OA
ATOM      3  N   UNL     1       0.449   1.361  -3.040  0.00  0.00    -0.313 N 
ATOM      4  H   UNL     1       1.001   1.996  -2.556  0.00  0.00    +0.149 HD
ENDROOT
BRANCH   1   7
ATOM      5  C   UNL     1       1.736  -2.558  -2.507  0.00  0.00    +0.056 C 
ATOM      6  C   UNL     1       2.304  -1.319  -1.813  0.00  0.00    +0.220 C 
ATOM      7  C   UNL     1       1.160  -0.373  -1.425  0.00  0.00    +0.298 C 
ATOM      8  O   UNL     1       1.725   0.767  -0.768  0.00  0.00    -0.472 OA
ATOM      9  C   UNL     1       2.660   0.520   0.190  0.00  0.00    +0.163 A 
ATOM     10  C   UNL     1       2.978   1.514   1.103  0.00  0.00    +0.049 A 
ATOM     11  C   UNL     1       3.928   1.280   2.079  0.00  0.00    +0.004 A 
ATOM     12  C   UNL     1       4.564   0.054   2.148  0.00  0.00    +0.004 A 
ATOM     13  C   UNL     1       4.250  -0.942   1.242  0.00  0.00    +0.049 A 
ATOM     14  C   UNL     1       3.296  -0.714   0.261  0.00  0.00    +0.163 A 
ATOM     15  O   UNL     1       2.992  -1.706  -0.619  0.00  0.00    -0.481 OA
ENDBRANCH   1   7
BRANCH   3  16
ATOM     16  C   UNL     1      -0.354   1.809  -4.180  0.00  0.00    +0.092 C 
BRANCH  16  17
ATOM     17  C   UNL     1      -0.251   3.330  -4.311  0.00  0.00    -0.050 C 
ATOM     18  C   UNL     1      -1.190   3.812  -5.418  0.00  0.00    -0.010 C 
ATOM     19  C   UNL     1      -0.795   3.157  -6.743  0.00  0.00    -0.001 C 
ATOM     20  C   UNL     1       0.644   3.542  -7.093  0.00  0.00    -0.000 C 
ATOM     21  C   UNL     1       1.584   3.060  -5.985  0.00  0.00    -0.001 C 
ATOM     22  C   UNL     1       1.189   3.714  -4.660  0.00  0.00    -0.010 C 
BRANCH  17  23
ATOM     23  N   UNL     1      -0.630   3.958  -3.038  0.00  0.00    +0.381 N 
ATOM     24  C   UNL     1      -0.579   5.419  -3.179  0.00  0.00    -0.096 C 
ATOM     25  C   UNL     1      -1.994   3.548  -2.678  0.00  0.00    -0.096 C 
ATOM     26  H   UNL     1       0.011   3.667  -2.315  0.00  0.00    -0.082 HD
ENDBRANCH  17  23
ENDBRANCH  16  17
ENDBRANCH   3  16
TORSDOF 4
