REMARK  Name = ZINC18222962
REMARK  7 active torsions:
REMARK  status: ('A' for Active; 'I' for Inactive)
REMARK    1  A    between atoms: C_1  and  O_2
REMARK    2  A    between atoms: O_2  and  C_3
REMARK    3  A    between atoms: C_5  and  C_13
REMARK    4  A    between atoms: C_7  and  O_11
REMARK    5  A    between atoms: C_8  and  O_9
REMARK    6  A    between atoms: O_9  and  C_10
REMARK    7  A    between atoms: O_11  and  C_12
REMARK                            x       y       z     vdW  Elec       q    Type
REMARK                         _______ _______ _______ _____ _____    ______ ____
ROOT
ATOM      1  C   UNL     1       2.402   0.386  -4.230  0.00  0.00    +0.032 C 
ATOM      2  C   UNL     1       3.896   0.073  -4.338  0.00  0.00    +0.060 C 
ATOM      3  C   UNL     1       4.501   0.877  -5.460  0.00  0.00    +0.021 C 
ATOM      4  C   UNL     1       3.741   1.261  -6.550  0.00  0.00    +0.052 C 
ATOM      5  C   UNL     1       4.322   2.091  -7.609  0.00  0.00    +0.124 C 
ATOM      6  N   UNL     1       5.498   1.994  -8.096  0.00  0.00    -0.253 NA
ATOM      7  C   UNL     1       6.464   1.091  -7.755  0.00  0.00    +0.085 A 
ATOM      8  C   UNL     1       7.260   0.528  -8.754  0.00  0.00    +0.029 A 
ATOM      9  C   UNL     1       8.269  -0.356  -8.421  0.00  0.00    +0.002 A 
ATOM     10  C   UNL     1       8.496  -0.685  -7.098  0.00  0.00    +0.002 A 
ATOM     11  C   UNL     1       7.702  -0.144  -6.100  0.00  0.00    +0.025 A 
ATOM     12  C   UNL     1       6.676   0.728  -6.423  0.00  0.00    +0.057 A 
ATOM     13  N   UNL     1       5.822   1.195  -5.410  0.00  0.00    -0.316 N 
ATOM     14  C   UNL     1       2.388   0.864  -6.657  0.00  0.00    +0.167 C 
ATOM     15  O   UNL     1       1.746   1.179  -7.639  0.00  0.00    -0.292 OA
ATOM     16  C   UNL     1       1.730   0.060  -5.568  0.00  0.00    +0.088 C 
ATOM     17  H   UNL     1       6.170   1.737  -4.684  0.00  0.00    +0.152 HD
ENDROOT
BRANCH   1  20
ATOM     18  C   UNL     1       0.606  -0.608  -1.056  0.00  0.00    +0.165 A 
ATOM     19  C   UNL     1       1.173   0.160  -2.063  0.00  0.00    +0.053 A 
ATOM     20  C   UNL     1       1.787  -0.452  -3.139  0.00  0.00    -0.036 A 
ATOM     21  C   UNL     1       1.839  -1.831  -3.217  0.00  0.00    +0.053 A 
ATOM     22  C   UNL     1       1.275  -2.606  -2.215  0.00  0.00    +0.165 A 
ATOM     23  C   UNL     1       0.661  -1.994  -1.128  0.00  0.00    +0.204 A 
BRANCH  18  25
ATOM     24  C   UNL     1      -0.017   1.425   0.010  0.00  0.00    +0.277 C 
ATOM     25  O   UNL     1       0.002  -0.004   0.002  0.00  0.00    -0.491 OA
ENDBRANCH  18  25
BRANCH  23  26
ATOM     26  O   UNL     1       0.111  -2.751  -0.140  0.00  0.00    -0.488 OA
ATOM     27  C   UNL     1      -1.260  -3.124  -0.295  0.00  0.00    +0.277 C 
ENDBRANCH  23  26
BRANCH  22  28
ATOM     28  O   UNL     1       1.326  -3.963  -2.293  0.00  0.00    -0.491 OA
ATOM     29  C   UNL     1       1.977  -4.523  -3.435  0.00  0.00    +0.277 C 
ENDBRANCH  22  28
ENDBRANCH   1  20
TORSDOF 4
