REMARK  Name = ZINC63229077
REMARK  8 active torsions:
REMARK  status: ('A' for Active; 'I' for Inactive)
REMARK    1  A    between atoms: C_1  and  C_2
REMARK    2  A    between atoms: N_4  and  C_5
REMARK    3  A    between atoms: C_5  and  C_7
REMARK    4  A    between atoms: C_5  and  C_17
REMARK    5  A    between atoms: C_7  and  C_8
REMARK    6  A    between atoms: N_19  and  C_20
REMARK    7  A    between atoms: C_24  and  S_26
REMARK    8  A    between atoms: S_26  and  N_29
REMARK                            x       y       z     vdW  Elec       q    Type
REMARK                         _______ _______ _______ _____ _____    ______ ____
ROOT
ATOM      1  C   UNL     1      -0.406  -2.658   1.221  0.00  0.00    +0.238 C 
ATOM      2  O   UNL     1       0.358  -1.925   1.813  0.00  0.00    -0.273 OA
ATOM      3  N   UNL     1      -0.597  -3.922   1.651  0.00  0.00    -0.284 N 
ATOM      4  H   UNL     1      -1.256  -4.486   1.218  0.00  0.00    +0.155 HD
ENDROOT
BRANCH   3   5
ATOM      5  C   UNL     1       0.157  -4.418   2.720  0.00  0.00    +0.035 A 
ATOM      6  C   UNL     1       0.551  -5.750   2.734  0.00  0.00    +0.023 A 
ATOM      7  C   UNL     1       1.295  -6.238   3.790  0.00  0.00    +0.004 A 
ATOM      8  C   UNL     1       1.647  -5.401   4.834  0.00  0.00    +0.029 A 
ATOM      9  C   UNL     1       1.256  -4.075   4.823  0.00  0.00    +0.114 A 
ATOM     10  C   UNL     1       0.517  -3.580   3.766  0.00  0.00    +0.052 A 
BRANCH   9  11
ATOM     11  S   UNL     1       1.706  -3.014   6.156  0.00  0.00    +0.100 S 
ATOM     12  O   UNL     1       0.756  -1.958   6.173  0.00  0.00    -0.146 OA
ATOM     13  O   UNL     1       1.936  -3.850   7.281  0.00  0.00    -0.146 OA
BRANCH  11  14
ATOM     14  N   UNL     1       3.164  -2.332   5.767  0.00  0.00    -0.118 NA
ATOM     15  C   UNL     1       3.728  -1.502   6.583  0.00  0.00    +0.117 C 
ATOM     16  N   UNL     1       3.220  -1.117   7.795  0.00  0.00    -0.331 N 
ATOM     17  C   UNL     1       4.309  -0.584   8.630  0.00  0.00    +0.103 C 
ATOM     18  C   UNL     1       5.306   0.026   7.620  0.00  0.00    +0.026 C 
ATOM     19  C   UNL     1       5.054  -0.812   6.349  0.00  0.00    +0.074 C 
ATOM     20  H   UNL     1       2.290  -1.185   8.061  0.00  0.00    +0.147 HD
ENDBRANCH  11  14
ENDBRANCH   9  11
ENDBRANCH   3   5
BRANCH   1  21
ATOM     21  C   UNL     1      -1.141  -2.157   0.005  0.00  0.00    +0.163 C 
BRANCH  21  25
ATOM     22  C   UNL     1      -0.012   1.501   0.007  0.00  0.00    +0.109 C 
ATOM     23  C   UNL     1       0.004  -0.006  -0.002  0.00  0.00    +0.211 C 
ATOM     24  O   UNL     1       1.060  -0.601  -0.022  0.00  0.00    -0.276 OA
ATOM     25  N   UNL     1      -1.156  -0.692   0.013  0.00  0.00    -0.304 N 
ATOM     26  H   UNL     1      -2.001  -0.215   0.030  0.00  0.00    +0.149 HD
ENDBRANCH  21  25
BRANCH  21  27
ATOM     27  C   UNL     1      -0.435  -2.652  -1.258  0.00  0.00    +0.065 C 
BRANCH  27  28
ATOM     28  C   UNL     1      -1.237  -2.255  -2.471  0.00  0.00    -0.039 C 
ATOM     29  C   UNL     1      -1.057  -1.158  -3.242  0.00  0.00    -0.001 A 
ATOM     30  C   UNL     1      -0.097  -0.050  -3.184  0.00  0.00    +0.010 A 
ATOM     31  C   UNL     1      -0.166   0.927  -4.117  0.00  0.00    +0.001 A 
ATOM     32  C   UNL     1      -1.129   0.907  -5.135  0.00  0.00    +0.002 A 
ATOM     33  C   UNL     1      -2.044  -0.078  -5.254  0.00  0.00    +0.026 A 
ATOM     34  C   UNL     1      -2.063  -1.157  -4.327  0.00  0.00    +0.043 A 
ATOM     35  N   UNL     1      -2.837  -2.211  -4.231  0.00  0.00    -0.380 N 
ATOM     36  C   UNL     1      -2.403  -3.005  -3.075  0.00  0.00    +0.144 C 
ATOM     37  H   UNL     1      -3.570  -2.431  -4.826  0.00  0.00    +0.160 HD
ENDBRANCH  27  28
ENDBRANCH  21  27
ENDBRANCH   1  21
TORSDOF 7
