REMARK  Name = ZINC06857168
REMARK  3 active torsions:
REMARK  status: ('A' for Active; 'I' for Inactive)
REMARK    1  A    between atoms: C_1  and  C_2
REMARK    2  A    between atoms: C_2  and  C_4
REMARK    3  A    between atoms: C_5  and  N_19
REMARK                            x       y       z     vdW  Elec       q    Type
REMARK                         _______ _______ _______ _____ _____    ______ ____
ROOT
ATOM      1  C   UNL     1      -0.863   2.950   1.479  0.00  0.00    +0.077 A 
ATOM      2  C   UNL     1      -1.479   3.581   2.546  0.00  0.00    +0.052 A 
ATOM      3  C   UNL     1      -1.499   5.035   2.565  0.00  0.00    +0.029 A 
ATOM      4  C   UNL     1      -2.061   5.896   3.542  0.00  0.00    +0.017 A 
ATOM      5  C   UNL     1      -1.967   7.253   3.360  0.00  0.00    -0.025 A 
ATOM      6  C   UNL     1      -1.335   7.767   2.231  0.00  0.00    +0.046 A 
ATOM      7  N   UNL     1      -0.817   6.969   1.327  0.00  0.00    -0.244 NA
ATOM      8  C   UNL     1      -0.879   5.660   1.459  0.00  0.00    +0.111 A 
ATOM      9  S   UNL     1      -0.305   4.305   0.465  0.00  0.00    -0.064 S 
ATOM     10  C   UNL     1      -1.284   9.267   2.096  0.00  0.00    +0.056 C 
ATOM     11  C   UNL     1      -0.155   9.868   2.869  0.00  0.00    +0.006 C 
ATOM     12  C   UNL     1      -0.325  10.052   4.363  0.00  0.00    +0.000 C 
ATOM     13  C   UNL     1      -0.183   8.702   5.092  0.00  0.00    +0.000 C 
ATOM     14  C   UNL     1      -1.597   8.276   5.574  0.00  0.00    +0.005 C 
ATOM     15  C   UNL     1      -2.532   8.218   4.369  0.00  0.00    +0.037 C 
ENDROOT
BRANCH   1  17
ATOM     16  C   UNL     1      -0.013   1.086   0.008  0.00  0.00    +0.092 C 
ATOM     17  C   UNL     1      -0.718   1.572   1.248  0.00  0.00    +0.168 C 
ATOM     18  O   UNL     1      -1.162   0.771   2.048  0.00  0.00    -0.292 OA
ENDBRANCH   1  17
BRANCH   2  19
ATOM     19  N   UNL     1      -2.056   2.849   3.568  0.00  0.00    -0.356 N 
ATOM     20  H   UNL     1      -2.032   1.879   3.544  0.00  0.00    +0.142 HD
ATOM     21  H   UNL     1      -2.484   3.305   4.309  0.00  0.00    +0.142 HD
ENDBRANCH   2  19
TORSDOF 2
