REMARK  Name = ZINC02649134
REMARK  9 active torsions:
REMARK  status: ('A' for Active; 'I' for Inactive)
REMARK    1  A    between atoms: C_7  and  C_11
REMARK    2  A    between atoms: C_11  and  C_12
REMARK    3  A    between atoms: C_12  and  C_14
REMARK    4  A    between atoms: C_12  and  N_31
REMARK    5  A    between atoms: C_14  and  O_16
REMARK    6  A    between atoms: O_16  and  C_17
REMARK    7  A    between atoms: C_17  and  C_18
REMARK    8  A    between atoms: N_20  and  C_21
REMARK    9  A    between atoms: C_32  and  C_34
REMARK                            x       y       z     vdW  Elec       q    Type
REMARK                         _______ _______ _______ _____ _____    ______ ____
ROOT
ATOM      1  C   UNL     1       5.603  -6.460   0.419  0.00  0.00    +0.186 C 
ENDROOT
BRANCH   1   2
ATOM      2  N   UNL     1       6.916  -7.104   0.505  0.00  0.00    -0.298 N 
ATOM      3  C   UNL     1       7.068  -8.381   0.104  0.00  0.00    +0.245 C 
ATOM      4  O   UNL     1       6.115  -8.999  -0.330  0.00  0.00    -0.270 OA
ATOM      5  H   UNL     1       7.676  -6.610   0.852  0.00  0.00    +0.150 HD
BRANCH   3   6
ATOM      6  C   UNL     1       8.393  -9.030   0.192  0.00  0.00    +0.037 A 
ATOM      7  C   UNL     1       9.490  -8.321   0.684  0.00  0.00    +0.014 A 
ATOM      8  C   UNL     1      10.722  -8.934   0.769  0.00  0.00    +0.021 A 
ATOM      9  C   UNL     1      10.875 -10.248   0.356  0.00  0.00    +0.041 A 
ATOM     10  C   UNL     1       9.792 -10.954  -0.140  0.00  0.00    +0.021 A 
ATOM     11  C   UNL     1       8.553 -10.354  -0.224  0.00  0.00    +0.014 A 
ATOM     12 CL   UNL     1      12.431 -11.010   0.459  0.00  0.00    -0.084 Cl
ENDBRANCH   3   6
ENDBRANCH   1   2
BRANCH   1  13
ATOM     13  C   UNL     1       5.781  -4.967   0.321  0.00  0.00    +0.328 C 
ATOM     14  O   UNL     1       6.891  -4.489   0.324  0.00  0.00    -0.249 OA
BRANCH  13  15
ATOM     15  O   UNL     1       4.706  -4.167   0.231  0.00  0.00    -0.454 OA
BRANCH  15  16
ATOM     16  C   UNL     1       4.953  -2.739   0.140  0.00  0.00    +0.328 C 
BRANCH  16  17
ATOM     17  C   UNL     1       3.639  -2.007   0.048  0.00  0.00    +0.255 C 
ATOM     18  O   UNL     1       2.597  -2.628   0.057  0.00  0.00    -0.272 OA
ATOM     19  N   UNL     1       3.621  -0.663  -0.046  0.00  0.00    -0.283 N 
ATOM     20  H   UNL     1       4.453  -0.172  -0.131  0.00  0.00    +0.155 HD
BRANCH  19  21
ATOM     21  C   UNL     1       2.401   0.025  -0.021  0.00  0.00    +0.037 A 
ATOM     22  C   UNL     1       1.346  -0.460   0.740  0.00  0.00    +0.027 A 
ATOM     23  C   UNL     1       0.142   0.217   0.764  0.00  0.00    +0.051 A 
ATOM     24  C   UNL     1      -0.016   1.384   0.030  0.00  0.00    +0.162 A 
ATOM     25  C   UNL     1       1.040   1.873  -0.730  0.00  0.00    +0.164 A 
ATOM     26  C   UNL     1       2.247   1.192  -0.756  0.00  0.00    +0.072 A 
ATOM     27  O   UNL     1       0.906   3.021  -1.451  0.00  0.00    -0.485 OA
ATOM     28  C   UNL     1      -0.429   3.473  -1.699  0.00  0.00    +0.270 C 
ATOM     29  C   UNL     1      -1.216   3.395  -0.384  0.00  0.00    +0.270 C 
ATOM     30  O   UNL     1      -1.213   2.033   0.059  0.00  0.00    -0.485 OA
ENDBRANCH  19  21
ENDBRANCH  16  17
ENDBRANCH  15  16
ENDBRANCH  13  15
ENDBRANCH   1  13
BRANCH   1  31
ATOM     31  C   UNL     1       4.787  -6.796   1.669  0.00  0.00    +0.071 C 
BRANCH  31  38
ATOM     32  C   UNL     1       7.215 -10.491   3.227  0.00  0.00    +0.001 A 
ATOM     33  C   UNL     1       6.545 -11.693   3.046  0.00  0.00    +0.002 A 
ATOM     34  C   UNL     1       5.297 -11.722   2.462  0.00  0.00    +0.026 A 
ATOM     35  C   UNL     1       4.701 -10.535   2.048  0.00  0.00    +0.047 A 
ATOM     36  C   UNL     1       5.387  -9.320   2.228  0.00  0.00    +0.003 A 
ATOM     37  C   UNL     1       6.647  -9.313   2.828  0.00  0.00    +0.010 A 
ATOM     38  C   UNL     1       4.504  -8.275   1.702  0.00  0.00    -0.020 A 
ATOM     39  C   UNL     1       3.398  -8.887   1.250  0.00  0.00    +0.087 A 
ATOM     40  N   UNL     1       3.498 -10.238   1.448  0.00  0.00    -0.360 N 
ATOM     41  H   UNL     1       2.822 -10.888   1.203  0.00  0.00    +0.165 HD
ENDBRANCH  31  38
ENDBRANCH   1  31
TORSDOF 9
