REMARK  Name = ZINC34856464
REMARK  4 active torsions:
REMARK  status: ('A' for Active; 'I' for Inactive)
REMARK    1  A    between atoms: C_1  and  C_2
REMARK    2  A    between atoms: C_2  and  C_3
REMARK    3  A    between atoms: C_2  and  C_4
REMARK    4  A    between atoms: C_2  and  N_5
REMARK                            x       y       z     vdW  Elec       q    Type
REMARK                         _______ _______ _______ _____ _____    ______ ____
ROOT
ATOM      1  N   UNL     1       0.679  -0.594  -1.176  0.00  0.00    +0.384 N 
ATOM      2  C   UNL     1       0.425  -2.031  -1.162  0.00  0.00    -0.069 C 
ATOM      3  C   UNL     1       1.208  -2.762  -2.248  0.00  0.00    +0.018 C 
ATOM      4  C   UNL     1       0.824  -2.254  -3.639  0.00  0.00    +0.007 C 
ATOM      5  C   UNL     1       1.286  -0.846  -3.949  0.00  0.00    +0.002 C 
ATOM      6  C   UNL     1       2.703  -0.494  -3.520  0.00  0.00    +0.020 C 
ATOM      7  C   UNL     1       2.987  -0.966  -2.095  0.00  0.00    +0.070 C 
ATOM      8  C   UNL     1       2.083  -0.232  -1.109  0.00  0.00    -0.056 C 
ATOM      9  C   UNL     1       2.682  -2.442  -2.068  0.00  0.00    +0.030 C 
ATOM     10  N   UNL     1       3.543  -3.340  -1.917  0.00  0.00    -0.266 NA
ATOM     11  C   UNL     1       4.977  -3.119  -1.774  0.00  0.00    +0.126 C 
ATOM     12  C   UNL     1       5.672  -3.547  -3.075  0.00  0.00    +0.050 C 
ATOM     13  C   UNL     1       5.349  -5.016  -3.357  0.00  0.00    +0.004 C 
ATOM     14  C   UNL     1       5.870  -5.882  -2.209  0.00  0.00    +0.000 C 
ATOM     15  C   UNL     1       5.205  -5.451  -0.900  0.00  0.00    +0.004 C 
ATOM     16  C   UNL     1       5.513  -3.979  -0.625  0.00  0.00    +0.050 C 
ATOM     17  N   UNL     1       5.288  -1.717  -1.517  0.00  0.00    -0.290 N 
ATOM     18  C   UNL     1       4.412  -0.725  -1.696  0.00  0.00    +0.225 C 
ATOM     19  O   UNL     1       4.777   0.420  -1.532  0.00  0.00    -0.275 OA
ATOM     20  H   UNL     1       6.179  -1.495  -1.198  0.00  0.00    +0.151 HD
ATOM     21  H   UNL     1       0.247  -0.179  -1.986  0.00  0.00    -0.081 HD
ENDROOT
BRANCH   1  23
ATOM     22  C   UNL     1       0.283   1.499   0.052  0.00  0.00    -0.010 C 
ATOM     23  C   UNL     1       0.002  -0.004   0.002  0.00  0.00    -0.074 C 
ATOM     24  C   UNL     1       0.530  -0.664   1.277  0.00  0.00    -0.010 C 
ATOM     25  C   UNL     1      -1.506  -0.238  -0.106  0.00  0.00    -0.010 C 
ENDBRANCH   1  23
TORSDOF 1
