REMARK  Name = ZINC47323374
REMARK  8 active torsions:
REMARK  status: ('A' for Active; 'I' for Inactive)
REMARK    1  A    between atoms: C_1  and  C_2
REMARK    2  A    between atoms: C_5  and  N_27
REMARK    3  A    between atoms: C_7  and  N_8
REMARK    4  A    between atoms: N_11  and  C_12
REMARK    5  A    between atoms: C_12  and  C_13
REMARK    6  A    between atoms: C_17  and  O_19
REMARK    7  A    between atoms: O_19  and  C_20
REMARK    8  A    between atoms: C_20  and  C_21
REMARK                            x       y       z     vdW  Elec       q    Type
REMARK                         _______ _______ _______ _____ _____    ______ ____
ROOT
ATOM      1  N   UNL     1       0.025  -0.015   2.417  0.00  0.00    -0.269 N 
ATOM      2  C   UNL     1      -0.056  -0.694   3.578  0.00  0.00    +0.304 C 
ATOM      3  O   UNL     1      -0.040  -1.910   3.573  0.00  0.00    -0.252 OA
ATOM      4  N   UNL     1      -0.156  -0.026   4.745  0.00  0.00    -0.295 N 
ATOM      5  H   UNL     1       0.078   0.954   2.425  0.00  0.00    +0.156 HD
ATOM      6  H   UNL     1      -0.169   0.944   4.748  0.00  0.00    +0.151 HD
ENDROOT
BRANCH   1  13
ATOM      7  C   UNL     1      -1.265   1.183   0.181  0.00  0.00    +0.045 C 
ATOM      8  C   UNL     1      -0.584  -0.158   0.084  0.00  0.00    -0.029 A 
ATOM      9  C   UNL     1      -0.569  -0.840  -1.117  0.00  0.00    +0.007 A 
ATOM     10  C   UNL     1       0.056  -2.070  -1.206  0.00  0.00    +0.033 A 
ATOM     11  C   UNL     1       0.667  -2.622  -0.095  0.00  0.00    +0.128 A 
ATOM     12  C   UNL     1       0.655  -1.945   1.108  0.00  0.00    +0.056 A 
ATOM     13  C   UNL     1       0.034  -0.706   1.200  0.00  0.00    +0.040 A 
BRANCH  11  14
ATOM     14  N   UNL     1       1.335  -3.939  -0.196  0.00  0.00    +0.056 N 
ATOM     15  O   UNL     1       1.345  -4.532  -1.249  0.00  0.00    -0.126 OA
ATOM     16  O   UNL     1       1.870  -4.421   0.775  0.00  0.00    -0.126 OA
ENDBRANCH  11  14
ENDBRANCH   1  13
BRANCH   4  17
ATOM     17  C   UNL     1      -0.245  -0.765   6.006  0.00  0.00    +0.141 C 
BRANCH  17  18
ATOM     18  C   UNL     1      -0.347   0.208   7.152  0.00  0.00    -0.027 A 
ATOM     19  C   UNL     1       0.801   0.674   7.767  0.00  0.00    +0.005 A 
ATOM     20  C   UNL     1       0.711   1.567   8.818  0.00  0.00    +0.004 A 
ATOM     21  C   UNL     1      -0.527   1.996   9.258  0.00  0.00    +0.045 A 
ATOM     22  C   UNL     1      -1.680   1.530   8.643  0.00  0.00    +0.121 A 
ATOM     23  C   UNL     1      -1.586   0.638   7.584  0.00  0.00    +0.050 A 
BRANCH  22  24
ATOM     24  O   UNL     1      -2.898   1.950   9.074  0.00  0.00    -0.489 OA
BRANCH  24  25
ATOM     25  C   UNL     1      -2.918   2.873  10.165  0.00  0.00    +0.260 C 
BRANCH  25  26
ATOM     26  C   UNL     1      -4.367   3.228  10.506  0.00  0.00    +0.156 C 
ATOM     27  C   UNL     1      -4.395   4.314  11.602  0.00  0.00    +0.037 C 
ATOM     28  C   UNL     1      -5.586   3.858  12.488  0.00  0.00    +0.031 C 
ATOM     29  C   UNL     1      -5.465   2.318  12.373  0.00  0.00    +0.160 C 
ATOM     30  O   UNL     1      -5.042   2.074  11.021  0.00  0.00    -0.373 OA
ENDBRANCH  25  26
ENDBRANCH  24  25
ENDBRANCH  22  24
ENDBRANCH  17  18
ENDBRANCH   4  17
TORSDOF 7
