REMARK  Name = ZINC57719922
REMARK  7 active torsions:
REMARK  status: ('A' for Active; 'I' for Inactive)
REMARK    1  A    between atoms: C_1  and  O_2
REMARK    2  A    between atoms: O_2  and  C_3
REMARK    3  A    between atoms: N_14  and  C_16
REMARK    4  A    between atoms: C_16  and  C_17
REMARK    5  A    between atoms: C_17  and  C_18
REMARK    6  A    between atoms: C_18  and  C_19
REMARK    7  A    between atoms: C_19  and  N_20
REMARK                            x       y       z     vdW  Elec       q    Type
REMARK                         _______ _______ _______ _____ _____    ______ ____
ROOT
ATOM      1  C   UNL     1      -1.201  -0.638   0.010  0.00  0.00    +0.122 A 
ATOM      2  C   UNL     1      -2.373   0.105   0.019  0.00  0.00    +0.048 A 
ATOM      3  C   UNL     1      -3.599  -0.535   0.038  0.00  0.00    +0.031 A 
ATOM      4  C   UNL     1      -3.654  -1.915   0.049  0.00  0.00    +0.067 A 
ATOM      5  C   UNL     1      -2.476  -2.670   0.017  0.00  0.00    +0.055 A 
ATOM      6  C   UNL     1      -1.251  -2.023   0.003  0.00  0.00    +0.070 A 
ATOM      7  N   UNL     1      -2.540  -4.068  -0.040  0.00  0.00    -0.333 N 
ATOM      8  C   UNL     1      -3.680  -4.782   0.552  0.00  0.00    +0.058 C 
ATOM      9  C   UNL     1      -3.457  -4.949   2.055  0.00  0.00    +0.028 C 
ATOM     10  C   UNL     1      -2.231  -5.838   2.285  0.00  0.00    -0.016 C 
ATOM     11  C   UNL     1      -2.436  -7.175   1.570  0.00  0.00    -0.079 C 
ATOM     12  N   UNL     1      -2.609  -6.944   0.131  0.00  0.00    +0.381 N 
ATOM     13  C   UNL     1      -3.824  -6.154  -0.104  0.00  0.00    -0.047 C 
ATOM     14  C   UNL     1      -4.924  -3.965   0.308  0.00  0.00    +0.045 A 
ATOM     15  N   UNL     1      -4.876  -2.606   0.089  0.00  0.00    -0.316 N 
ATOM     16  C   UNL     1      -6.141  -2.148  -0.072  0.00  0.00    +0.091 A 
ATOM     17  C   UNL     1      -6.985  -3.201   0.023  0.00  0.00    +0.020 A 
ATOM     18  C   UNL     1      -6.203  -4.353   0.261  0.00  0.00    +0.025 A 
ATOM     19  H   UNL     1      -1.829  -4.567  -0.473  0.00  0.00    +0.147 HD
ATOM     20  H   UNL     1      -1.809  -6.443  -0.226  0.00  0.00    -0.082 HD
ENDROOT
BRANCH   1  22
ATOM     21  C   UNL     1      -0.017   1.425   0.010  0.00  0.00    +0.277 C 
ATOM     22  O   UNL     1       0.002  -0.004   0.002  0.00  0.00    -0.495 OA
ENDBRANCH   1  22
BRANCH  12  23
ATOM     23  C   UNL     1      -2.724  -8.234  -0.561  0.00  0.00    -0.079 C 
BRANCH  23  24
ATOM     24  C   UNL     1      -1.407  -9.003  -0.428  0.00  0.00    -0.017 C 
BRANCH  24  25
ATOM     25  C   UNL     1      -1.527 -10.347  -1.149  0.00  0.00    +0.018 C 
BRANCH  25  26
ATOM     26  C   UNL     1      -0.211 -11.116  -1.017  0.00  0.00    +0.117 C 
BRANCH  26  27
ATOM     27  N   UNL     1      -0.325 -12.403  -1.707  0.00  0.00    -0.234 N 
ATOM     28  C   UNL     1      -0.758 -13.539  -1.131  0.00  0.00    +0.254 C 
ATOM     29  O   UNL     1      -1.110 -13.659   0.025  0.00  0.00    -0.270 OA
ATOM     30  C   UNL     1      -0.734 -14.618  -2.142  0.00  0.00    +0.049 A 
ATOM     31  C   UNL     1      -1.060 -15.965  -2.127  0.00  0.00    +0.014 A 
ATOM     32  C   UNL     1      -0.918 -16.718  -3.282  0.00  0.00    +0.001 A 
ATOM     33  C   UNL     1      -0.453 -16.136  -4.446  0.00  0.00    +0.001 A 
ATOM     34  C   UNL     1      -0.123 -14.790  -4.475  0.00  0.00    +0.014 A 
ATOM     35  C   UNL     1      -0.260 -14.024  -3.329  0.00  0.00    +0.049 A 
ATOM     36  C   UNL     1      -0.017 -12.603  -3.001  0.00  0.00    +0.254 C 
ATOM     37  O   UNL     1       0.394 -11.758  -3.770  0.00  0.00    -0.270 OA
ENDBRANCH  26  27
ENDBRANCH  25  26
ENDBRANCH  24  25
ENDBRANCH  23  24
ENDBRANCH  12  23
TORSDOF 6
