REMARK  Name = ZINC20643155
REMARK  14 active torsions:
REMARK  status: ('A' for Active; 'I' for Inactive)
REMARK    1  A    between atoms: C_1  and  C_2
REMARK    2  A    between atoms: C_2  and  C_3
REMARK    3  A    between atoms: C_3  and  C_4
REMARK    4  A    between atoms: C_4  and  N_5
REMARK    5  A    between atoms: C_6  and  C_8
REMARK    6  A    between atoms: C_8  and  C_9
REMARK    7  A    between atoms: C_23  and  S_24
REMARK    8  A    between atoms: S_24  and  C_25
REMARK    9  A    between atoms: C_25  and  C_27
REMARK   10  A    between atoms: C_25  and  C_29
REMARK   11  A    between atoms: C_27  and  C_28
REMARK   12  A    between atoms: N_31  and  C_32
REMARK   13  A    between atoms: C_32  and  C_33
REMARK   14  A    between atoms: C_36  and  C_39
REMARK                            x       y       z     vdW  Elec       q    Type
REMARK                         _______ _______ _______ _____ _____    ______ ____
ROOT
ATOM      1  C   UNL     1      -0.415   1.103   4.789  0.00  0.00    +0.202 C 
ATOM      2  C   UNL     1      -1.066   1.625   6.052  0.00  0.00    +0.252 C 
ATOM      3  O   UNL     1      -1.259   2.784   6.353  0.00  0.00    -0.272 OA
ATOM      4  N   UNL     1      -1.385   0.527   6.774  0.00  0.00    -0.200 N 
ATOM      5  C   UNL     1      -1.005  -0.620   6.098  0.00  0.00    +0.139 C 
ATOM      6  N   UNL     1      -0.443  -0.357   4.952  0.00  0.00    -0.255 NA
ATOM      7  C   UNL     1      -1.285  -1.916   6.754  0.00  0.00    +0.041 A 
ATOM      8  C   UNL     1      -0.940  -3.122   6.153  0.00  0.00    +0.013 A 
ATOM      9  C   UNL     1      -1.220  -4.308   6.800  0.00  0.00    +0.001 A 
ATOM     10  C   UNL     1      -1.840  -4.303   8.041  0.00  0.00    +0.002 A 
ATOM     11  C   UNL     1      -2.189  -3.119   8.651  0.00  0.00    +0.028 A 
ATOM     12  C   UNL     1      -1.915  -1.905   8.015  0.00  0.00    +0.077 A 
ATOM     13  N   UNL     1      -2.245  -0.720   8.586  0.00  0.00    -0.225 NA
ATOM     14  C   UNL     1      -1.998   0.424   8.006  0.00  0.00    +0.170 C 
ENDROOT
BRANCH   1  15
ATOM     15  C   UNL     1      -1.223   1.520   3.558  0.00  0.00    +0.132 C 
BRANCH  15  17
ATOM     16  N   UNL     1      -1.077   1.260   1.102  0.00  0.00    -0.315 N 
ATOM     17  C   UNL     1      -0.542   1.011   2.314  0.00  0.00    +0.216 C 
ATOM     18  O   UNL     1       0.488   0.376   2.403  0.00  0.00    -0.276 OA
ATOM     19  H   UNL     1      -2.011   1.835   1.022  0.00  0.00    +0.149 HD
BRANCH  16  20
ATOM     20  C   UNL     1      -0.415   0.764  -0.107  0.00  0.00    +0.104 C 
BRANCH  20  21
ATOM     21  C   UNL     1      -1.223   1.181  -1.338  0.00  0.00    +0.018 C 
BRANCH  21  23
ATOM     22  C   UNL     1      -1.339   1.081  -3.832  0.00  0.00    +0.004 C 
ATOM     23  C   UNL     1      -0.531   0.664  -2.601  0.00  0.00    -0.002 C 
ENDBRANCH  21  23
ENDBRANCH  20  21
ENDBRANCH  16  20
ENDBRANCH  15  17
ENDBRANCH   1  15
BRANCH  14  24
ATOM     24  S   UNL     1      -2.468   1.905   8.837  0.00  0.00    -0.077 S 
BRANCH  24  25
ATOM     25  C   UNL     1      -3.308   1.203  10.279  0.00  0.00    +0.139 C 
BRANCH  25  26
ATOM     26  C   UNL     1      -2.297   0.527  11.169  0.00  0.00    +0.227 C 
ATOM     27  O   UNL     1      -1.136   0.877  11.142  0.00  0.00    -0.275 OA
ATOM     28  N   UNL     1      -2.683  -0.465  11.995  0.00  0.00    -0.310 N 
ATOM     29  H   UNL     1      -3.737  -0.781  12.020  0.00  0.00    +0.149 HD
BRANCH  28  30
ATOM     30  C   UNL     1      -1.701  -1.122  12.861  0.00  0.00    +0.139 C 
BRANCH  30  31
ATOM     31  C   UNL     1      -2.385  -2.187  13.679  0.00  0.00    -0.030 A 
ATOM     32  C   UNL     1      -2.915  -1.874  14.916  0.00  0.00    +0.005 A 
ATOM     33  C   UNL     1      -3.545  -2.851  15.665  0.00  0.00    +0.003 A 
ATOM     34  C   UNL     1      -3.639  -4.141  15.179  0.00  0.00    -0.050 A 
ATOM     35  C   UNL     1      -3.104  -4.455  13.944  0.00  0.00    +0.003 A 
ATOM     36  C   UNL     1      -2.477  -3.478  13.194  0.00  0.00    +0.005 A 
ATOM     37  C   UNL     1      -4.323  -5.207  15.996  0.00  0.00    +0.044 C 
ENDBRANCH  30  31
ENDBRANCH  28  30
ENDBRANCH  25  26
BRANCH  25  38
ATOM     38  C   UNL     1      -4.006   2.321  11.056  0.00  0.00    +0.020 C 
ATOM     39  C   UNL     1      -5.127   2.914  10.200  0.00  0.00    +0.005 C 
ENDBRANCH  25  38
ENDBRANCH  24  25
ENDBRANCH  14  24
TORSDOF 11
