REMARK  Name = ZINC14654233
REMARK  11 active torsions:
REMARK  status: ('A' for Active; 'I' for Inactive)
REMARK    1  A    between atoms: C_1  and  C_2
REMARK    2  A    between atoms: C_2  and  C_3
REMARK    3  A    between atoms: C_2  and  C_4
REMARK    4  A    between atoms: C_4  and  O_5
REMARK    5  A    between atoms: O_5  and  C_6
REMARK    6  A    between atoms: C_9  and  C_13
REMARK    7  A    between atoms: N_15  and  C_16
REMARK    8  A    between atoms: C_16  and  N_18
REMARK    9  A    between atoms: N_18  and  N_19
REMARK   10  A    between atoms: C_20  and  C_22
REMARK   11  A    between atoms: C_27  and  N_28
REMARK                            x       y       z     vdW  Elec       q    Type
REMARK                         _______ _______ _______ _____ _____    ______ ____
ROOT
ATOM      1  C   UNL     1      -5.165   3.632  -1.843  0.00  0.00    +0.153 C 
ATOM      2  S   UNL     1      -5.241   5.307  -2.189  0.00  0.00    -0.017 S 
ENDROOT
BRANCH   1   5
ATOM      3  C   UNL     1      -2.962   3.573  -2.610  0.00  0.00    +0.250 C 
ATOM      4  O   UNL     1      -3.015   4.762  -2.855  0.00  0.00    -0.270 OA
ATOM      5  N   UNL     1      -4.034   2.943  -2.090  0.00  0.00    -0.263 N 
ATOM      6  H   UNL     1      -3.991   1.994  -1.894  0.00  0.00    +0.157 HD
BRANCH   3  10
ATOM      7  C   UNL     1       0.603   1.401  -3.390  0.00  0.00    +0.134 A 
ATOM      8  C   UNL     1      -0.502   0.750  -2.854  0.00  0.00    +0.047 A 
ATOM      9  C   UNL     1      -1.661   1.450  -2.604  0.00  0.00    +0.017 A 
ATOM     10  C   UNL     1      -1.723   2.819  -2.880  0.00  0.00    +0.038 A 
ATOM     11  C   UNL     1      -0.610   3.470  -3.419  0.00  0.00    +0.032 A 
ATOM     12  C   UNL     1       0.545   2.761  -3.671  0.00  0.00    +0.060 A 
ATOM     13 BR   UNL     1       2.052   3.640  -4.400  0.00  0.00    -0.046 Br
BRANCH   7  14
ATOM     14  O   UNL     1       1.742   0.706  -3.640  0.00  0.00    -0.491 OA
BRANCH  14  15
ATOM     15  C   UNL     1       1.733  -0.688  -3.328  0.00  0.00    +0.232 C 
BRANCH  15  17
ATOM     16  C   UNL     1       4.170  -0.688  -2.775  0.00  0.00    +0.010 C 
ATOM     17  C   UNL     1       3.093  -1.298  -3.676  0.00  0.00    +0.020 C 
ATOM     18  C   UNL     1       3.044  -2.811  -3.459  0.00  0.00    +0.010 C 
ENDBRANCH  15  17
ENDBRANCH  14  15
ENDBRANCH   7  14
ENDBRANCH   3  10
ENDBRANCH   1   5
BRANCH   1  19
ATOM     19  N   UNL     1      -6.238   3.003  -1.323  0.00  0.00    -0.245 N 
ATOM     20  H   UNL     1      -7.052   3.499  -1.145  0.00  0.00    +0.172 HD
BRANCH  19  21
ATOM     21  N   UNL     1      -6.176   1.632  -1.040  0.00  0.00    -0.231 N 
ATOM     22  C   UNL     1      -7.248   1.002  -0.520  0.00  0.00    +0.262 C 
ATOM     23  O   UNL     1      -8.269   1.624  -0.297  0.00  0.00    -0.269 OA
ATOM     24  H   UNL     1      -5.362   1.136  -1.218  0.00  0.00    +0.173 HD
BRANCH  22  25
ATOM     25  C   UNL     1      -7.183  -0.444  -0.221  0.00  0.00    +0.068 A 
ATOM     26  C   UNL     1      -5.975  -1.131  -0.343  0.00  0.00    +0.015 A 
ATOM     27  C   UNL     1      -5.920  -2.480  -0.059  0.00  0.00    +0.001 A 
ATOM     28  C   UNL     1      -7.062  -3.154   0.338  0.00  0.00    +0.002 A 
ATOM     29  C   UNL     1      -8.264  -2.479   0.456  0.00  0.00    +0.033 A 
ATOM     30  C   UNL     1      -8.331  -1.129   0.179  0.00  0.00    +0.138 A 
BRANCH  30  31
ATOM     31  N   UNL     1      -9.619  -0.409   0.306  0.00  0.00    +0.057 N 
ATOM     32  O   UNL     1     -10.272  -0.506   1.329  0.00  0.00    -0.126 OA
ATOM     33  O   UNL     1     -10.024   0.280  -0.613  0.00  0.00    -0.126 OA
ENDBRANCH  30  31
ENDBRANCH  22  25
ENDBRANCH  19  21
ENDBRANCH   1  19
TORSDOF 9
