REMARK  Name = ZINC33578879
REMARK  10 active torsions:
REMARK  status: ('A' for Active; 'I' for Inactive)
REMARK    1  A    between atoms: C_1  and  C_2
REMARK    2  A    between atoms: C_2  and  C_3
REMARK    3  A    between atoms: C_5  and  C_9
REMARK    4  A    between atoms: C_11  and  C_14
REMARK    5  A    between atoms: C_16  and  C_26
REMARK    6  A    between atoms: C_17  and  C_25
REMARK    7  A    between atoms: N_18  and  C_19
REMARK    8  A    between atoms: C_19  and  C_20
REMARK    9  A    between atoms: N_28  and  C_29
REMARK   10  A    between atoms: C_29  and  C_30
REMARK                            x       y       z     vdW  Elec       q    Type
REMARK                         _______ _______ _______ _____ _____    ______ ____
ROOT
ATOM      1  C   UNL     1      -1.610   7.797   1.437  0.00  0.00    +0.069 A 
ATOM      2  C   UNL     1      -1.187   6.577   1.019  0.00  0.00    +0.042 A 
ATOM      3  C   UNL     1      -1.347   5.684   2.111  0.00  0.00    +0.058 A 
ATOM      4  C   UNL     1      -1.872   6.415   3.154  0.00  0.00    +0.029 A 
ATOM      5  N   UNL     1      -2.022   7.691   2.741  0.00  0.00    -0.335 N 
ATOM      6  C   UNL     1      -2.215   5.882   4.521  0.00  0.00    +0.064 C 
ENDROOT
BRANCH   1   9
ATOM      7  C   UNL     1      -1.092  10.136  -1.329  0.00  0.00    +0.109 A 
ATOM      8  N   UNL     1      -1.087   9.043  -0.582  0.00  0.00    -0.238 NA
ATOM      9  C   UNL     1      -1.623   9.033   0.623  0.00  0.00    +0.095 A 
ATOM     10  C   UNL     1      -2.189  10.182   1.117  0.00  0.00    +0.077 A 
ATOM     11  S   UNL     1      -1.920  11.299  -0.254  0.00  0.00    -0.075 S 
BRANCH   7  14
ATOM     12  C   UNL     1      -0.130  11.734  -4.592  0.00  0.00    +0.042 A 
ATOM     13  C   UNL     1      -0.648  11.586  -3.322  0.00  0.00    +0.034 A 
ATOM     14  C   UNL     1      -0.551  10.341  -2.690  0.00  0.00    +0.010 A 
ATOM     15  C   UNL     1       0.076   9.297  -3.380  0.00  0.00    +0.030 A 
ATOM     16  C   UNL     1       0.561   9.531  -4.650  0.00  0.00    +0.111 A 
ATOM     17  N   UNL     1       0.449  10.722  -5.209  0.00  0.00    -0.260 NA
BRANCH  12  19
ATOM     18  C   UNL     1       1.170  13.521  -5.716  0.00  0.00    +0.010 C 
ATOM     19  C   UNL     1      -0.226  13.069  -5.284  0.00  0.00    +0.052 C 
ENDBRANCH  12  19
ENDBRANCH   7  14
ENDBRANCH   1   9
BRANCH   3  20
ATOM     20  C   UNL     1      -1.018   4.248   2.125  0.00  0.00    +0.246 C 
ATOM     21  O   UNL     1      -1.204   3.591   3.132  0.00  0.00    -0.270 OA
ATOM     22  N   UNL     1      -0.512   3.662   1.022  0.00  0.00    -0.309 N 
ATOM     23  H   UNL     1      -0.344   4.255   0.112  0.00  0.00    +0.149 HD
BRANCH  22  24
ATOM     24  C   UNL     1      -0.186   2.233   1.036  0.00  0.00    +0.136 C 
BRANCH  24  25
ATOM     25  C   UNL     1       0.367   1.823  -0.330  0.00  0.00    +0.135 C 
ATOM     26  C   UNL     1       0.601   0.297  -0.380  0.00  0.00    +0.035 C 
ATOM     27  C   UNL     1       1.895   0.142  -1.209  0.00  0.00    +0.031 C 
ATOM     28  C   UNL     1       2.291   1.593  -1.562  0.00  0.00    +0.160 C 
ATOM     29  O   UNL     1       1.673   2.404  -0.538  0.00  0.00    -0.375 OA
ENDBRANCH  24  25
ENDBRANCH  22  24
ENDBRANCH   3  20
BRANCH   5  30
ATOM     30  C   UNL     1      -2.550   8.789   3.556  0.00  0.00    +0.196 C 
BRANCH  30  31
ATOM     31  C   UNL     1      -4.028   8.938   3.302  0.00  0.00    +0.124 A 
ATOM     32  C   UNL     1      -5.009   8.315   3.978  0.00  0.00    +0.046 A 
ATOM     33  C   UNL     1      -6.232   8.742   3.412  0.00  0.00    +0.041 A 
ATOM     34  C   UNL     1      -5.925   9.601   2.424  0.00  0.00    +0.195 A 
ATOM     35  O   UNL     1      -4.588   9.720   2.365  0.00  0.00    -0.466 OA
ENDBRANCH  30  31
ENDBRANCH   5  30
TORSDOF 8
