REMARK  Name = ZINC10243513
REMARK  8 active torsions:
REMARK  status: ('A' for Active; 'I' for Inactive)
REMARK    1  A    between atoms: C_1  and  C_2
REMARK    2  A    between atoms: C_5  and  N_9
REMARK    3  A    between atoms: C_6  and  C_8
REMARK    4  A    between atoms: C_13  and  C_15
REMARK    5  A    between atoms: C_15  and  S_16
REMARK    6  A    between atoms: S_16  and  C_17
REMARK    7  A    between atoms: N_21  and  C_22
REMARK    8  A    between atoms: C_27  and  C_28
REMARK                            x       y       z     vdW  Elec       q    Type
REMARK                         _______ _______ _______ _____ _____    ______ ____
ROOT
ATOM      1  N   UNL     1      -7.457   2.110  -7.216  0.00  0.00    -0.269 N 
ATOM      2  C   UNL     1      -6.352   2.361  -6.487  0.00  0.00    +0.310 C 
ATOM      3  O   UNL     1      -5.494   3.104  -6.922  0.00  0.00    -0.252 OA
ATOM      4  N   UNL     1      -6.199   1.790  -5.276  0.00  0.00    -0.239 N 
ATOM      5  C   UNL     1      -5.094   2.042  -4.547  0.00  0.00    +0.231 C 
ATOM      6  O   UNL     1      -4.238   2.783  -4.980  0.00  0.00    -0.274 OA
ATOM      7  H   UNL     1      -8.103   1.455  -6.908  0.00  0.00    +0.156 HD
ATOM      8  H   UNL     1      -6.884   1.198  -4.929  0.00  0.00    +0.159 HD
ENDROOT
BRANCH   1  13
ATOM      9  C   UNL     1      -8.330   4.875 -12.092  0.00  0.00    +0.044 C 
ATOM     10  C   UNL     1      -8.098   4.141 -10.797  0.00  0.00    -0.050 A 
ATOM     11  C   UNL     1      -7.306   4.707  -9.815  0.00  0.00    +0.005 A 
ATOM     12  C   UNL     1      -7.091   4.036  -8.627  0.00  0.00    +0.024 A 
ATOM     13  C   UNL     1      -7.673   2.792  -8.419  0.00  0.00    +0.038 A 
ATOM     14  C   UNL     1      -8.464   2.224  -9.409  0.00  0.00    -0.029 A 
ATOM     15  C   UNL     1      -8.679   2.903 -10.593  0.00  0.00    +0.008 A 
ATOM     16  C   UNL     1      -9.092   0.872  -9.190  0.00  0.00    +0.045 C 
ENDBRANCH   1  13
BRANCH   5  17
ATOM     17  C   UNL     1      -4.923   1.403  -3.193  0.00  0.00    +0.173 C 
BRANCH  17  18
ATOM     18  S   UNL     1      -3.351   1.933  -2.470  0.00  0.00    -0.076 S 
BRANCH  18  19
ATOM     19  C   UNL     1      -3.409   1.063  -0.939  0.00  0.00    +0.196 A 
ATOM     20  N   UNL     1      -4.370   0.269  -0.528  0.00  0.00    -0.122 NA
ATOM     21  N   UNL     1      -4.089  -0.192   0.638  0.00  0.00    -0.137 NA
ATOM     22  C   UNL     1      -2.938   0.270   1.037  0.00  0.00    +0.230 A 
ATOM     23  N   UNL     1      -2.459   1.084   0.045  0.00  0.00    -0.277 N 
BRANCH  23  24
ATOM     24  C   UNL     1      -1.251   1.796   0.043  0.00  0.00    +0.053 A 
ATOM     25  C   UNL     1      -0.042   1.114   0.043  0.00  0.00    +0.026 A 
ATOM     26  C   UNL     1       1.147   1.817   0.034  0.00  0.00    +0.002 A 
ATOM     27  C   UNL     1       1.133   3.200   0.030  0.00  0.00    +0.000 A 
ATOM     28  C   UNL     1      -0.070   3.882   0.035  0.00  0.00    +0.005 A 
ATOM     29  C   UNL     1      -1.261   3.184   0.045  0.00  0.00    -0.027 A 
ATOM     30  C   UNL     1      -2.572   3.928   0.051  0.00  0.00    +0.046 C 
ENDBRANCH  23  24
ENDBRANCH  18  19
ENDBRANCH  17  18
ENDBRANCH   5  17
TORSDOF 5
