REMARK  Name = ZINC02655229
REMARK  6 active torsions:
REMARK  status: ('A' for Active; 'I' for Inactive)
REMARK    1  A    between atoms: C_1  and  C_2
REMARK    2  A    between atoms: C_5  and  N_9
REMARK    3  A    between atoms: C_7  and  C_8
REMARK    4  A    between atoms: C_13  and  S_15
REMARK    5  A    between atoms: S_15  and  C_16
REMARK    6  A    between atoms: C_16  and  C_17
REMARK                            x       y       z     vdW  Elec       q    Type
REMARK                         _______ _______ _______ _____ _____    ______ ____
ROOT
ATOM      1  N   UNL     1       1.402  -2.013  -0.022  0.00  0.00    -0.292 N 
ATOM      2  C   UNL     1       1.146  -0.658  -0.199  0.00  0.00    +0.187 A 
ATOM      3  N   UNL     1      -0.005  -0.015  -0.181  0.00  0.00    -0.125 NA
ATOM      4  N   UNL     1      -0.034   1.345  -0.381  0.00  0.00    -0.133 NA
ATOM      5  C   UNL     1       1.092   2.001  -0.591  0.00  0.00    +0.160 A 
ATOM      6  S   UNL     1       2.290   0.678  -0.512  0.00  0.00    -0.024 S 
ATOM      7  H   UNL     1       2.317  -2.332   0.024  0.00  0.00    +0.154 HD
ENDROOT
BRANCH   1  12
ATOM      8  C   UNL     1      -2.904  -5.676   0.427  0.00  0.00    +0.044 C 
ATOM      9  C   UNL     1      -1.760  -4.703   0.308  0.00  0.00    -0.047 A 
ATOM     10  C   UNL     1      -1.934  -3.514  -0.378  0.00  0.00    +0.005 A 
ATOM     11  C   UNL     1      -0.888  -2.620  -0.490  0.00  0.00    +0.023 A 
ATOM     12  C   UNL     1       0.341  -2.916   0.088  0.00  0.00    +0.033 A 
ATOM     13  C   UNL     1       0.514  -4.112   0.772  0.00  0.00    +0.027 A 
ATOM     14  C   UNL     1      -0.539  -5.000   0.884  0.00  0.00    -0.046 A 
ATOM     15  C   UNL     1      -0.354  -6.296   1.630  0.00  0.00    +0.044 C 
ENDBRANCH   1  12
BRANCH   5  16
ATOM     16  S   UNL     1       1.345   3.722  -0.874  0.00  0.00    -0.094 S 
BRANCH  16  17
ATOM     17  C   UNL     1      -0.325   4.427  -0.813  0.00  0.00    +0.108 C 
BRANCH  17  18
ATOM     18  C   UNL     1      -0.249   5.938  -1.047  0.00  0.00    +0.128 C 
ATOM     19  C   UNL     1      -1.641   6.551  -0.873  0.00  0.00    +0.032 C 
ATOM     20  C   UNL     1      -1.568   8.053  -1.167  0.00  0.00    +0.005 C 
ATOM     21  C   UNL     1      -1.015   8.259  -2.580  0.00  0.00    +0.028 C 
ATOM     22  C   UNL     1       0.353   7.579  -2.689  0.00  0.00    +0.160 C 
ATOM     23  O   UNL     1       0.220   6.192  -2.373  0.00  0.00    -0.376 OA
ENDBRANCH  17  18
ENDBRANCH  16  17
ENDBRANCH   5  16
TORSDOF 4
