REMARK  Name = ZINC12805179
REMARK  3 active torsions:
REMARK  status: ('A' for Active; 'I' for Inactive)
REMARK    1  A    between atoms: C_3  and  C_6
REMARK    2  A    between atoms: N_8  and  C_9
REMARK    3  A    between atoms: C_12  and  C_14
REMARK                            x       y       z     vdW  Elec       q    Type
REMARK                         _______ _______ _______ _____ _____    ______ ____
ROOT
ATOM      1  C   UNL     1      -2.226   4.349   0.037  0.00  0.00    +0.073 A 
ATOM      2  C   UNL     1      -2.303   5.726   0.045  0.00  0.00    +0.032 A 
ATOM      3  C   UNL     1      -3.538   6.316   0.054  0.00  0.00    +0.022 A 
ATOM      4  C   UNL     1      -4.645   5.477   0.055  0.00  0.00    +0.076 A 
ATOM      5  S   UNL     1      -3.889   3.861   0.035  0.00  0.00    -0.069 S 
ENDROOT
BRANCH   4   6
ATOM      6  C   UNL     1      -6.021   5.818   0.064  0.00  0.00    +0.256 C 
ATOM      7  O   UNL     1      -6.359   6.988   0.072  0.00  0.00    -0.269 OA
ATOM      8  N   UNL     1      -6.955   4.846   0.063  0.00  0.00    -0.260 N 
ATOM      9  C   UNL     1      -8.303   5.180   0.072  0.00  0.00    +0.165 A 
ATOM     10  N   UNL     1      -8.862   6.373   0.088  0.00  0.00    -0.229 NA
ATOM     11  C   UNL     1     -10.189   6.538   0.099  0.00  0.00    +0.054 A 
ATOM     12  C   UNL     1     -10.915   5.406   0.081  0.00  0.00    +0.014 A 
ATOM     13  S   UNL     1      -9.690   4.130   0.073  0.00  0.00    -0.057 S 
ATOM     14  C   UNL     1     -12.417   5.293   0.025  0.00  0.00    +0.044 C 
ATOM     15  C   UNL     1     -12.959   5.824   1.366  0.00  0.00    +0.005 C 
ATOM     16  C   UNL     1     -12.961   7.334   1.365  0.00  0.00    +0.001 C 
ATOM     17  C   UNL     1     -11.619   8.013   1.462  0.00  0.00    +0.006 C 
ATOM     18  C   UNL     1     -10.838   7.923   0.148  0.00  0.00    +0.056 C 
ATOM     19  H   UNL     1      -6.686   3.914   0.057  0.00  0.00    +0.157 HD
ENDBRANCH   4   6
BRANCH   1  22
ATOM     20  C   UNL     1      -1.214   2.207   0.020  0.00  0.00    +0.284 C 
ATOM     21  O   UNL     1      -2.319   1.697   0.023  0.00  0.00    -0.266 OA
ATOM     22  N   UNL     1      -1.092   3.549   0.027  0.00  0.00    -0.273 N 
ATOM     23  H   UNL     1      -0.211   3.956   0.025  0.00  0.00    +0.156 HD
BRANCH  20  26
ATOM     24  C   UNL     1       1.352  -0.389  -0.013  0.00  0.00    +0.042 A 
ATOM     25  C   UNL     1       0.002  -0.004   0.002  0.00  0.00    +0.054 A 
ATOM     26  C   UNL     1      -0.016   1.362   0.009  0.00  0.00    +0.189 A 
ATOM     27  O   UNL     1       1.261   1.796  -0.000  0.00  0.00    -0.458 OA
ATOM     28  C   UNL     1       2.089   0.744  -0.014  0.00  0.00    +0.196 A 
ENDBRANCH  20  26
ENDBRANCH   1  22
TORSDOF 3
