REMARK  Name = ZINC63899657
REMARK  8 active torsions:
REMARK  status: ('A' for Active; 'I' for Inactive)
REMARK    1  A    between atoms: C_1  and  C_2
REMARK    2  A    between atoms: C_5  and  C_9
REMARK    3  A    between atoms: C_7  and  C_8
REMARK    4  A    between atoms: C_11  and  C_23
REMARK    5  A    between atoms: N_14  and  C_15
REMARK    6  A    between atoms: N_25  and  C_26
REMARK    7  A    between atoms: C_26  and  C_27
REMARK    8  A    between atoms: C_27  and  C_28
REMARK                            x       y       z     vdW  Elec       q    Type
REMARK                         _______ _______ _______ _____ _____    ______ ____
ROOT
ATOM      1  C   UNL     1       0.264  -4.268  -0.047  0.00  0.00    +0.050 C 
ATOM      2  C   UNL     1       0.316  -5.019   1.051  0.00  0.00    +0.027 C 
ATOM      3  C   UNL     1       0.025  -6.440   0.620  0.00  0.00    +0.183 C 
ATOM      4  N   UNL     1      -0.186  -6.347  -0.838  0.00  0.00    -0.224 NA
ATOM      5  N   UNL     1      -0.036  -5.031  -1.167  0.00  0.00    -0.261 N 
ATOM      6  H   UNL     1       0.473  -6.926  -1.336  0.00  0.00    +0.146 HD
ENDROOT
BRANCH   1  11
ATOM      7  C   UNL     1       1.144   1.420  -0.138  0.00  0.00    +0.044 C 
ATOM      8  C   UNL     1       0.914  -0.069  -0.114  0.00  0.00    -0.048 A 
ATOM      9  C   UNL     1       1.552  -0.879  -1.036  0.00  0.00    +0.004 A 
ATOM     10  C   UNL     1       1.345  -2.243  -1.019  0.00  0.00    +0.010 A 
ATOM     11  C   UNL     1       0.491  -2.805  -0.070  0.00  0.00    -0.003 A 
ATOM     12  C   UNL     1      -0.149  -1.982   0.857  0.00  0.00    +0.013 A 
ATOM     13  C   UNL     1       0.070  -0.620   0.833  0.00  0.00    -0.047 A 
ATOM     14  C   UNL     1      -0.616   0.269   1.837  0.00  0.00    +0.044 C 
ENDBRANCH   1  11
BRANCH   5  15
ATOM     15  C   UNL     1      -0.169  -4.496  -2.524  0.00  0.00    +0.113 C 
ATOM     16  C   UNL     1      -1.521  -4.922  -3.120  0.00  0.00    +0.048 C 
ATOM     17  C   UNL     1      -1.539  -4.641  -4.642  0.00  0.00    +0.168 C 
ATOM     18  S   UNL     1       0.239  -4.771  -5.097  0.00  0.00    -0.029 S 
ATOM     19  O   UNL     1       0.428  -5.932  -5.895  0.00  0.00    -0.174 OA
ATOM     20  O   UNL     1       0.686  -3.511  -5.578  0.00  0.00    -0.174 OA
ATOM     21  C   UNL     1       0.960  -5.068  -3.428  0.00  0.00    +0.189 C 
ENDBRANCH   5  15
BRANCH   3  22
ATOM     22  C   UNL     1       1.199  -7.334   0.929  0.00  0.00    +0.236 C 
ATOM     23  O   UNL     1       1.778  -7.906   0.030  0.00  0.00    -0.274 OA
ATOM     24  N   UNL     1       1.605  -7.498   2.203  0.00  0.00    -0.313 N 
ATOM     25  H   UNL     1       1.141  -7.040   2.922  0.00  0.00    +0.149 HD
BRANCH  24  26
ATOM     26  C   UNL     1       2.745  -8.367   2.503  0.00  0.00    +0.108 C 
BRANCH  26  27
ATOM     27  C   UNL     1       2.996  -8.377   4.012  0.00  0.00    +0.052 C 
BRANCH  27  28
ATOM     28  C   UNL     1       4.169  -9.271   4.321  0.00  0.00    -0.040 C 
ATOM     29  C   UNL     1       5.459  -8.895   4.480  0.00  0.00    -0.001 A 
ATOM     30  C   UNL     1       6.129  -7.590   4.414  0.00  0.00    +0.010 A 
ATOM     31  C   UNL     1       7.464  -7.528   4.622  0.00  0.00    +0.001 A 
ATOM     32  C   UNL     1       8.222  -8.674   4.896  0.00  0.00    +0.002 A 
ATOM     33  C   UNL     1       7.677  -9.907   4.972  0.00  0.00    +0.026 A 
ATOM     34  C   UNL     1       6.281 -10.090   4.772  0.00  0.00    +0.043 A 
ATOM     35  N   UNL     1       5.530 -11.164   4.792  0.00  0.00    -0.380 N 
ATOM     36  C   UNL     1       4.143 -10.770   4.521  0.00  0.00    +0.144 C 
ATOM     37  H   UNL     1       5.838 -12.068   4.962  0.00  0.00    +0.160 HD
ENDBRANCH  27  28
ENDBRANCH  26  27
ENDBRANCH  24  26
ENDBRANCH   3  22
TORSDOF 6
