REMARK  Name = ZINC05520421
REMARK  3 active torsions:
REMARK  status: ('A' for Active; 'I' for Inactive)
REMARK    1  A    between atoms: C_1  and  N_2
REMARK    2  A    between atoms: C_6  and  C_7
REMARK    3  A    between atoms: N_13  and  C_14
REMARK                            x       y       z     vdW  Elec       q    Type
REMARK                         _______ _______ _______ _____ _____    ______ ____
ROOT
ATOM      1  C   UNL     1       0.200  -0.512   2.495  0.00  0.00    +0.046 C 
ATOM      2  C   UNL     1       0.097   0.796   2.863  0.00  0.00    +0.079 C 
ATOM      3  C   UNL     1      -0.219   1.976   2.042  0.00  0.00    +0.256 C 
ATOM      4  O   UNL     1      -0.436   1.879   0.848  0.00  0.00    -0.269 OA
ATOM      5  N   UNL     1      -0.256   3.145   2.658  0.00  0.00    -0.260 N 
ATOM      6  C   UNL     1      -0.007   3.235   4.009  0.00  0.00    +0.166 C 
ATOM      7  N   UNL     1      -0.004   4.307   4.771  0.00  0.00    -0.226 NA
ATOM      8  S   UNL     1       0.301   1.539   4.476  0.00  0.00    -0.049 S 
ATOM      9  H   UNL     1      -0.461   3.948   2.152  0.00  0.00    +0.157 HD
ENDROOT
BRANCH   7  10
ATOM     10  C   UNL     1       0.269   4.196   6.107  0.00  0.00    +0.067 A 
ATOM     11  C   UNL     1      -0.332   3.169   6.859  0.00  0.00    +0.028 A 
ATOM     12  C   UNL     1      -0.077   3.038   8.185  0.00  0.00    +0.010 A 
ATOM     13  C   UNL     1       0.798   3.935   8.826  0.00  0.00    -0.018 A 
ATOM     14  C   UNL     1       1.077   3.819  10.198  0.00  0.00    +0.008 A 
ATOM     15  C   UNL     1       1.928   4.701  10.791  0.00  0.00    +0.001 A 
ATOM     16  C   UNL     1       2.530   5.722  10.057  0.00  0.00    +0.001 A 
ATOM     17  C   UNL     1       2.284   5.866   8.727  0.00  0.00    +0.008 A 
ATOM     18  C   UNL     1       1.410   4.974   8.079  0.00  0.00    -0.016 A 
ATOM     19  C   UNL     1       1.139   5.091   6.708  0.00  0.00    +0.036 A 
ENDBRANCH   7  10
BRANCH   1  25
ATOM     20  C   UNL     1       1.961   0.638   0.260  0.00  0.00    +0.149 C 
ATOM     21  N   UNL     1       0.905  -0.366   0.110  0.00  0.00    -0.350 N 
ATOM     22  C   UNL     1       0.535  -0.962  -1.055  0.00  0.00    +0.086 A 
ATOM     23  C   UNL     1      -0.471  -1.832  -0.802  0.00  0.00    +0.020 A 
ATOM     24  C   UNL     1      -0.747  -1.786   0.568  0.00  0.00    +0.027 A 
ATOM     25  C   UNL     1       0.125  -0.870   1.127  0.00  0.00    +0.043 A 
ENDBRANCH   1  25
TORSDOF 2
