REMARK  Name = ZINC12599783
REMARK  7 active torsions:
REMARK  status: ('A' for Active; 'I' for Inactive)
REMARK    1  A    between atoms: C_1  and  C_2
REMARK    2  A    between atoms: C_4  and  C_13
REMARK    3  A    between atoms: C_5  and  C_12
REMARK    4  A    between atoms: C_13  and  C_15
REMARK    5  A    between atoms: C_15  and  N_16
REMARK    6  A    between atoms: C_19  and  C_23
REMARK    7  A    between atoms: C_19  and  C_29
REMARK                            x       y       z     vdW  Elec       q    Type
REMARK                         _______ _______ _______ _____ _____    ______ ____
ROOT
ATOM      1  N   UNL     1      -1.028   2.035  -0.850  0.00  0.00    -0.216 N 
ATOM      2  C   UNL     1      -1.032   3.191  -1.541  0.00  0.00    +0.256 C 
ATOM      3  O   UNL     1      -0.775   4.298  -1.119  0.00  0.00    -0.272 OA
ATOM      4  C   UNL     1      -1.423   2.820  -2.958  0.00  0.00    +0.164 C 
ATOM      5  N   UNL     1      -1.612   1.361  -2.894  0.00  0.00    -0.278 N 
ATOM      6  C   UNL     1      -1.354   0.995  -1.625  0.00  0.00    +0.310 C 
ATOM      7  O   UNL     1      -1.414  -0.152  -1.228  0.00  0.00    -0.252 OA
ATOM      8  H   UNL     1      -1.868   0.777  -3.625  0.00  0.00    +0.152 HD
ENDROOT
BRANCH   4   9
ATOM      9  C   UNL     1      -2.707   3.505  -3.350  0.00  0.00    -0.011 A 
ATOM     10  C   UNL     1      -2.864   4.860  -3.128  0.00  0.00    +0.006 A 
ATOM     11  C   UNL     1      -4.040   5.488  -3.491  0.00  0.00    +0.000 A 
ATOM     12  C   UNL     1      -5.064   4.760  -4.068  0.00  0.00    +0.000 A 
ATOM     13  C   UNL     1      -4.909   3.403  -4.285  0.00  0.00    +0.000 A 
ATOM     14  C   UNL     1      -3.731   2.776  -3.926  0.00  0.00    +0.006 A 
ENDBRANCH   4   9
BRANCH   4  15
ATOM     15  C   UNL     1      -0.320   3.174  -3.922  0.00  0.00    -0.011 A 
ATOM     16  C   UNL     1       0.219   4.447  -3.919  0.00  0.00    +0.006 A 
ATOM     17  C   UNL     1       1.234   4.769  -4.801  0.00  0.00    +0.000 A 
ATOM     18  C   UNL     1       1.702   3.822  -5.692  0.00  0.00    +0.000 A 
ATOM     19  C   UNL     1       1.159   2.551  -5.699  0.00  0.00    +0.000 A 
ATOM     20  C   UNL     1       0.148   2.227  -4.814  0.00  0.00    +0.006 A 
ENDBRANCH   4  15
BRANCH   1  21
ATOM     21  C   UNL     1      -0.701   1.929   0.574  0.00  0.00    +0.197 C 
BRANCH  21  22
ATOM     22  C   UNL     1      -1.957   2.084   1.391  0.00  0.00    +0.183 C 
ATOM     23  O   UNL     1      -3.022   2.266   0.838  0.00  0.00    -0.290 OA
BRANCH  22  27
ATOM     24  C   UNL     1      -0.221   1.633   6.161  0.00  0.00    +0.064 C 
ATOM     25  C   UNL     1      -1.108   1.814   4.956  0.00  0.00    +0.023 A 
ATOM     26  C   UNL     1      -0.696   1.804   3.677  0.00  0.00    +0.034 A 
ATOM     27  C   UNL     1      -1.894   2.016   2.853  0.00  0.00    +0.040 A 
ATOM     28  C   UNL     1      -2.947   2.144   3.739  0.00  0.00    +0.033 A 
ATOM     29  N   UNL     1      -2.461   2.015   4.989  0.00  0.00    -0.296 N 
ATOM     30  C   UNL     1      -3.226   2.083   6.152  0.00  0.00    +0.178 A 
ATOM     31  N   UNL     1      -4.524   2.278   6.278  0.00  0.00    -0.231 NA
ATOM     32  C   UNL     1      -5.098   2.311   7.464  0.00  0.00    +0.121 A 
ATOM     33  C   UNL     1      -4.319   2.151   8.563  0.00  0.00    +0.068 A 
ATOM     34  S   UNL     1      -2.715   1.940   7.805  0.00  0.00    -0.058 S 
ATOM     35  C   UNL     1      -4.388   2.383   3.370  0.00  0.00    +0.064 C 
ENDBRANCH  22  27
ENDBRANCH  21  22
ENDBRANCH   1  21
TORSDOF 5
