REMARK  Name = ZINC12777741
REMARK  14 active torsions:
REMARK  status: ('A' for Active; 'I' for Inactive)
REMARK    1  A    between atoms: C_1  and  C_2
REMARK    2  A    between atoms: C_3  and  C_11
REMARK    3  A    between atoms: C_4  and  C_10
REMARK    4  A    between atoms: C_6  and  S_8
REMARK    5  A    between atoms: S_8  and  C_9
REMARK    6  A    between atoms: C_11  and  C_12
REMARK    7  A    between atoms: C_12  and  C_13
REMARK    8  A    between atoms: N_15  and  C_16
REMARK    9  A    between atoms: N_15  and  C_17
REMARK   10  A    between atoms: C_17  and  C_18
REMARK   11  A    between atoms: C_21  and  C_24
REMARK   12  A    between atoms: C_24  and  C_25
REMARK   13  A    between atoms: C_24  and  C_26
REMARK   14  A    between atoms: C_24  and  C_27
REMARK                            x       y       z     vdW  Elec       q    Type
REMARK                         _______ _______ _______ _____ _____    ______ ____
ROOT
ATOM      1  C   UNL     1      -1.708   0.832  -1.724  0.00  0.00    +0.216 C 
ATOM      2  O   UNL     1      -2.010  -0.234  -1.231  0.00  0.00    -0.276 OA
ATOM      3  N   UNL     1      -0.721   1.571  -1.179  0.00  0.00    -0.300 N 
ATOM      4  C   UNL     1      -0.357   2.860  -1.774  0.00  0.00    +0.132 C 
ENDROOT
BRANCH   1   5
ATOM      5  C   UNL     1      -2.437   1.331  -2.945  0.00  0.00    +0.101 C 
BRANCH   5   6
ATOM      6  C   UNL     1      -3.500   0.311  -3.356  0.00  0.00    +0.048 C 
BRANCH   6   9
ATOM      7  C   UNL     1      -2.544  -0.349  -6.033  0.00  0.00    +0.066 C 
ATOM      8  C   UNL     1      -3.776   0.498  -5.849  0.00  0.00    +0.046 A 
ATOM      9  C   UNL     1      -4.229   0.811  -4.577  0.00  0.00    -0.005 A 
ATOM     10  C   UNL     1      -5.370   1.588  -4.452  0.00  0.00    +0.046 A 
ATOM     11  N   UNL     1      -5.983   2.014  -5.544  0.00  0.00    -0.227 NA
ATOM     12  C   UNL     1      -5.524   1.698  -6.746  0.00  0.00    +0.188 A 
ATOM     13  N   UNL     1      -4.439   0.952  -6.900  0.00  0.00    -0.227 NA
ATOM     14  C   UNL     1      -5.903   1.947  -3.089  0.00  0.00    +0.066 C 
BRANCH  12  15
ATOM     15  S   UNL     1      -6.376   2.281  -8.174  0.00  0.00    -0.089 S 
ATOM     16  C   UNL     1      -7.718   3.204  -7.383  0.00  0.00    +0.093 C 
ENDBRANCH  12  15
ENDBRANCH   6   9
ENDBRANCH   5   6
ENDBRANCH   1   5
BRANCH   3  17
ATOM     17  C   UNL     1      -0.013   1.086   0.008  0.00  0.00    +0.142 C 
BRANCH  17  18
ATOM     18  C   UNL     1      -0.718   1.572   1.248  0.00  0.00    -0.030 A 
ATOM     19  C   UNL     1      -0.360   2.779   1.819  0.00  0.00    +0.005 A 
ATOM     20  C   UNL     1      -1.010   3.227   2.953  0.00  0.00    +0.004 A 
ATOM     21  C   UNL     1      -2.012   2.463   3.523  0.00  0.00    -0.042 A 
ATOM     22  C   UNL     1      -2.366   1.254   2.955  0.00  0.00    +0.004 A 
ATOM     23  C   UNL     1      -1.719   0.808   1.818  0.00  0.00    +0.005 A 
BRANCH  21  24
ATOM     24  C   UNL     1      -2.717   2.949   4.763  0.00  0.00    -0.013 C 
ATOM     25  C   UNL     1      -2.517   1.937   5.893  0.00  0.00    +0.015 C 
ATOM     26  C   UNL     1      -2.138   4.302   5.182  0.00  0.00    +0.015 C 
ATOM     27  C   UNL     1      -4.212   3.101   4.473  0.00  0.00    +0.015 C 
ENDBRANCH  21  24
ENDBRANCH  17  18
ENDBRANCH   3  17
TORSDOF 7
