REMARK  Name = ZINC62524719
REMARK  7 active torsions:
REMARK  status: ('A' for Active; 'I' for Inactive)
REMARK    1  A    between atoms: C_1  and  C_2
REMARK    2  A    between atoms: C_2  and  C_3
REMARK    3  A    between atoms: C_3  and  C_4
REMARK    4  A    between atoms: C_3  and  N_5
REMARK    5  A    between atoms: C_6  and  C_8
REMARK    6  A    between atoms: C_8  and  C_9
REMARK    7  A    between atoms: C_8  and  N_10
REMARK                            x       y       z     vdW  Elec       q    Type
REMARK                         _______ _______ _______ _____ _____    ______ ____
ROOT
ATOM      1  N   UNL     1      -5.543   0.374   2.440  0.00  0.00    -0.288 N 
ATOM      2  C   UNL     1      -6.302   1.150   3.239  0.00  0.00    +0.303 C 
ATOM      3  O   UNL     1      -5.796   1.738   4.175  0.00  0.00    -0.253 OA
ATOM      4  N   UNL     1      -7.623   1.275   2.998  0.00  0.00    -0.282 N 
ATOM      5  C   UNL     1      -8.204   0.484   1.952  0.00  0.00    +0.113 C 
ATOM      6  C   UNL     1      -9.320   1.184   1.239  0.00  0.00    +0.007 C 
ATOM      7  C   UNL     1      -8.981   2.621   0.878  0.00  0.00    +0.008 C 
ATOM      8  C   UNL     1      -9.300   3.629   1.965  0.00  0.00    -0.009 C 
ATOM      9  C   UNL     1     -10.728   3.444   2.484  0.00  0.00    +0.007 C 
ATOM     10  C   UNL     1     -10.829   2.020   3.035  0.00  0.00    -0.009 C 
ATOM     11  C   UNL     1     -10.677   1.042   1.869  0.00  0.00    +0.008 C 
ATOM     12  C   UNL     1      -9.795   1.762   4.106  0.00  0.00    +0.026 C 
ATOM     13  C   UNL     1      -8.389   2.200   3.815  0.00  0.00    +0.078 C 
ATOM     14  C   UNL     1      -8.339   3.579   3.144  0.00  0.00    +0.026 C 
ATOM     15  H   UNL     1      -5.957  -0.154   1.740  0.00  0.00    +0.151 HD
ENDROOT
BRANCH   1  16
ATOM     16  C   UNL     1      -4.091   0.327   2.631  0.00  0.00    +0.157 C 
ATOM     17  C   UNL     1      -3.751  -0.703   3.710  0.00  0.00    +0.038 C 
BRANCH  16  19
ATOM     18  N   UNL     1      -2.085  -0.171   1.272  0.00  0.00    -0.311 N 
ATOM     19  C   UNL     1      -3.427  -0.064   1.336  0.00  0.00    +0.233 C 
ATOM     20  O   UNL     1      -4.100  -0.282   0.351  0.00  0.00    -0.274 OA
ATOM     21  H   UNL     1      -1.546   0.003   2.060  0.00  0.00    +0.149 HD
BRANCH  18  22
ATOM     22  C   UNL     1      -1.439  -0.551   0.013  0.00  0.00    +0.070 C 
ATOM     23  C   UNL     1      -1.420  -2.076  -0.110  0.00  0.00    +0.028 C 
BRANCH  22  25
ATOM     24  C   UNL     1      -0.027   1.510  -0.008  0.00  0.00    +0.005 C 
ATOM     25  C   UNL     1      -0.005  -0.020  -0.005  0.00  0.00    +0.018 C 
ENDBRANCH  22  25
ENDBRANCH  18  22
ENDBRANCH  16  19
ENDBRANCH   1  16
TORSDOF 4
