REMARK  Name = ZINC00732608
REMARK  9 active torsions:
REMARK  status: ('A' for Active; 'I' for Inactive)
REMARK    1  A    between atoms: C_1  and  C_2
REMARK    2  A    between atoms: C_2  and  C_3
REMARK    3  A    between atoms: C_3  and  N_4
REMARK    4  A    between atoms: N_4  and  C_5
REMARK    5  A    between atoms: C_5  and  C_6
REMARK    6  A    between atoms: N_8  and  C_9
REMARK    7  A    between atoms: C_11  and  C_21
REMARK    8  A    between atoms: N_13  and  C_14
REMARK    9  A    between atoms: C_27  and  C_29
REMARK                            x       y       z     vdW  Elec       q    Type
REMARK                         _______ _______ _______ _____ _____    ______ ____
ROOT
ATOM      1  C   UNL     1       1.972   2.534  -0.158  0.00  0.00    +0.129 A 
ATOM      2  C   UNL     1       2.465   1.268  -0.188  0.00  0.00    +0.074 A 
ATOM      3  C   UNL     1       3.869   1.353  -0.241  0.00  0.00    +0.095 A 
ATOM      4  N   UNL     1       4.204   2.626  -0.243  0.00  0.00    -0.165 NA
ATOM      5  N   UNL     1       3.031   3.390  -0.197  0.00  0.00    -0.218 N 
ENDROOT
BRANCH   5   6
ATOM      6  C   UNL     1       2.959   4.790  -0.190  0.00  0.00    +0.068 A 
ATOM      7  C   UNL     1       1.916   5.436  -0.841  0.00  0.00    +0.030 A 
ATOM      8  C   UNL     1       1.845   6.815  -0.829  0.00  0.00    +0.040 A 
ATOM      9  C   UNL     1       2.817   7.554  -0.176  0.00  0.00    +0.124 A 
ATOM     10  C   UNL     1       3.860   6.912   0.469  0.00  0.00    +0.040 A 
ATOM     11  C   UNL     1       3.933   5.533   0.464  0.00  0.00    +0.030 A 
ATOM     12  F   UNL     1       2.748   8.903  -0.170  0.00  0.00    -0.205 F 
ENDBRANCH   5   6
BRANCH   3  13
ATOM     13  C   UNL     1       4.809   0.206  -0.287  0.00  0.00    +0.002 A 
ATOM     14  C   UNL     1       4.321  -1.099  -0.273  0.00  0.00    +0.010 A 
ATOM     15  C   UNL     1       5.200  -2.163  -0.321  0.00  0.00    +0.001 A 
ATOM     16  C   UNL     1       6.563  -1.935  -0.371  0.00  0.00    +0.000 A 
ATOM     17  C   UNL     1       7.053  -0.641  -0.380  0.00  0.00    +0.001 A 
ATOM     18  C   UNL     1       6.183   0.429  -0.338  0.00  0.00    +0.010 A 
ENDBRANCH   3  13
BRANCH   1  21
ATOM     19  C   UNL     1      -0.325   1.937  -0.074  0.00  0.00    +0.236 C 
ATOM     20  O   UNL     1      -0.009   0.766  -0.096  0.00  0.00    -0.274 OA
ATOM     21  N   UNL     1       0.626   2.892  -0.102  0.00  0.00    -0.269 N 
ATOM     22  H   UNL     1       0.339   3.954  -0.083  0.00  0.00    +0.156 HD
BRANCH  19  23
ATOM     23  C   UNL     1      -1.780   2.324  -0.021  0.00  0.00    +0.204 C 
BRANCH  23  24
ATOM     24  N   UNL     1      -2.607   1.115  -0.004  0.00  0.00    -0.286 N 
ATOM     25  C   UNL     1      -2.952   0.518  -1.162  0.00  0.00    +0.282 C 
ATOM     26  O   UNL     1      -3.717  -0.427  -1.155  0.00  0.00    -0.267 OA
BRANCH  25  27
ATOM     27  C   UNL     1      -2.404   1.009  -2.431  0.00  0.00    +0.189 A 
ATOM     28  C   UNL     1      -2.751   0.572  -3.677  0.00  0.00    +0.054 A 
ATOM     29  C   UNL     1      -1.985   1.311  -4.592  0.00  0.00    +0.042 A 
ATOM     30  C   UNL     1      -1.214   2.157  -3.873  0.00  0.00    +0.196 A 
ATOM     31  O   UNL     1      -1.473   1.976  -2.572  0.00  0.00    -0.458 OA
ENDBRANCH  25  27
BRANCH  24  32
ATOM     32  C   UNL     1      -3.059   0.554   1.272  0.00  0.00    +0.108 C 
BRANCH  32  34
ATOM     33  C   UNL     1      -4.872   0.597   2.991  0.00  0.00    +0.005 C 
ATOM     34  C   UNL     1      -4.400   1.182   1.659  0.00  0.00    +0.016 C 
ENDBRANCH  32  34
ENDBRANCH  24  32
ENDBRANCH  23  24
ENDBRANCH  19  23
ENDBRANCH   1  21
TORSDOF 8
