REMARK  Name = ZINC42015222
REMARK  5 active torsions:
REMARK  status: ('A' for Active; 'I' for Inactive)
REMARK    1  A    between atoms: C_1  and  C_2
REMARK    2  A    between atoms: C_4  and  C_9
REMARK    3  A    between atoms: C_7  and  N_8
REMARK    4  A    between atoms: N_13  and  C_14
REMARK    5  A    between atoms: C_18  and  C_20
REMARK                            x       y       z     vdW  Elec       q    Type
REMARK                         _______ _______ _______ _____ _____    ______ ____
ROOT
ATOM      1  C   UNL     1       0.008  -2.823  -2.482  0.00  0.00    +0.187 A 
ATOM      2  N   UNL     1      -0.352  -2.350  -3.657  0.00  0.00    -0.108 NA
ATOM      3  N   UNL     1      -0.200  -3.243  -4.567  0.00  0.00    -0.022 NA
ATOM      4  N   UNL     1       0.260  -4.334  -4.060  0.00  0.00    -0.039 NA
ATOM      5  N   UNL     1       0.421  -4.108  -2.681  0.00  0.00    -0.193 N 
ENDROOT
BRANCH   5   6
ATOM      6  C   UNL     1       0.899  -5.009  -1.720  0.00  0.00    +0.070 A 
ATOM      7  C   UNL     1       0.254  -5.128  -0.496  0.00  0.00    +0.029 A 
ATOM      8  C   UNL     1       0.727  -6.016   0.449  0.00  0.00    +0.017 A 
ATOM      9  C   UNL     1       1.844  -6.788   0.177  0.00  0.00    +0.021 A 
ATOM     10  C   UNL     1       2.488  -6.671  -1.041  0.00  0.00    -0.034 A 
ATOM     11  C   UNL     1       2.016  -5.788  -1.992  0.00  0.00    +0.032 A 
ATOM     12  C   UNL     1       3.704  -7.513  -1.334  0.00  0.00    +0.045 C 
ATOM     13 BR   UNL     1       2.490  -8.003   1.474  0.00  0.00    -0.050 Br
ENDBRANCH   5   6
BRANCH   1  17
ATOM     14  C   UNL     1      -2.067   0.608   0.486  0.00  0.00    +0.045 C 
ATOM     15  C   UNL     1      -1.020  -0.447   0.237  0.00  0.00    -0.029 A 
ATOM     16  C   UNL     1      -0.993  -1.121  -0.964  0.00  0.00    +0.016 A 
ATOM     17  C   UNL     1      -0.023  -2.098  -1.194  0.00  0.00    +0.021 A 
ATOM     18  C   UNL     1       0.918  -2.389  -0.204  0.00  0.00    +0.013 A 
ATOM     19  C   UNL     1       0.887  -1.712   0.995  0.00  0.00    +0.023 A 
ATOM     20  C   UNL     1      -0.078  -0.736   1.219  0.00  0.00    +0.028 A 
BRANCH  20  21
ATOM     21  N   UNL     1      -0.103  -0.048   2.432  0.00  0.00    -0.358 N 
ATOM     22  H   UNL     1      -0.778   0.631   2.590  0.00  0.00    +0.142 HD
ATOM     23  H   UNL     1       0.553  -0.249   3.117  0.00  0.00    +0.142 HD
ENDBRANCH  20  21
ENDBRANCH   1  17
TORSDOF 3
