REMARK  Name = ZINC21531648
REMARK  4 active torsions:
REMARK  status: ('A' for Active; 'I' for Inactive)
REMARK    1  A    between atoms: C_4  and  N_7
REMARK    2  A    between atoms: C_22  and  C_23
REMARK    3  A    between atoms: C_23  and  N_24
REMARK    4  A    between atoms: N_27  and  C_30
REMARK                            x       y       z     vdW  Elec       q    Type
REMARK                         _______ _______ _______ _____ _____    ______ ____
ROOT
ATOM      1  N   UNL     1       2.138   1.472   1.171  0.00  0.00    -0.327 N 
ATOM      2  C   UNL     1       1.419   1.992  -0.001  0.00  0.00    +0.124 C 
ATOM      3  C   UNL     1      -0.018   1.465   0.010  0.00  0.00    +0.126 C 
ATOM      4  N   UNL     1       0.002  -0.004   0.002  0.00  0.00    -0.305 N 
ATOM      5  C   UNL     1       0.721  -0.525   1.173  0.00  0.00    +0.126 C 
ATOM      6  C   UNL     1       2.158   0.003   1.162  0.00  0.00    +0.124 C 
ATOM      7  C   UNL     1      -1.286  -0.519  -0.060  0.00  0.00    +0.186 A 
ATOM      8  N   UNL     1      -2.452   0.108  -0.105  0.00  0.00    -0.124 NA
ATOM      9  N   UNL     1      -3.545  -0.520  -0.163  0.00  0.00    -0.121 NA
ATOM     10  C   UNL     1      -3.594  -1.842  -0.174  0.00  0.00    +0.202 A 
ATOM     11  S   UNL     1      -1.846  -2.219  -0.097  0.00  0.00    -0.013 S 
ATOM     12  N   UNL     1      -4.695  -2.698  -0.229  0.00  0.00    -0.300 N 
ATOM     13  C   UNL     1      -4.643  -4.063  -0.241  0.00  0.00    +0.093 A 
ATOM     14  C   UNL     1      -5.907  -4.532  -0.295  0.00  0.00    +0.020 A 
ATOM     15  C   UNL     1      -6.770  -3.419  -0.328  0.00  0.00    +0.021 A 
ATOM     16  C   UNL     1      -6.004  -2.310  -0.286  0.00  0.00    +0.009 A 
ENDROOT
BRANCH   1  20
ATOM     17  C   UNL     1       6.000   3.016   1.359  0.00  0.00    +0.000 A 
ATOM     18  C   UNL     1       4.916   3.873   1.314  0.00  0.00    +0.002 A 
ATOM     19  C   UNL     1       3.634   3.364   1.251  0.00  0.00    +0.023 A 
ATOM     20  C   UNL     1       3.433   1.990   1.233  0.00  0.00    +0.030 A 
ATOM     21  C   UNL     1       4.524   1.131   1.284  0.00  0.00    +0.023 A 
ATOM     22  C   UNL     1       5.804   1.647   1.342  0.00  0.00    +0.002 A 
ENDBRANCH   1  20
BRANCH  16  23
ATOM     23  C   UNL     1      -6.505  -0.889  -0.301  0.00  0.00    -0.024 C 
BRANCH  23  24
ATOM     24  N   UNL     1      -6.616  -0.395   1.078  0.00  0.00    +0.385 N 
ATOM     25  C   UNL     1      -7.659  -1.122   1.815  0.00  0.00    -0.059 C 
ATOM     26  C   UNL     1      -7.689  -0.634   3.266  0.00  0.00    +0.086 C 
ATOM     27  N   UNL     1      -7.945   0.813   3.288  0.00  0.00    -0.333 N 
ATOM     28  C   UNL     1      -6.902   1.540   2.551  0.00  0.00    +0.086 C 
ATOM     29  C   UNL     1      -6.871   1.052   1.101  0.00  0.00    -0.059 C 
ATOM     30  H   UNL     1      -5.655  -0.578   1.581  0.00  0.00    -0.081 HD
BRANCH  27  31
ATOM     31  C   UNL     1      -8.051   1.282   4.601  0.00  0.00    +0.030 A 
ATOM     32  C   UNL     1      -7.221   2.305   5.043  0.00  0.00    +0.026 A 
ATOM     33  C   UNL     1      -7.331   2.771   6.338  0.00  0.00    +0.040 A 
ATOM     34  C   UNL     1      -8.260   2.212   7.199  0.00  0.00    +0.124 A 
ATOM     35  C   UNL     1      -9.085   1.189   6.762  0.00  0.00    +0.040 A 
ATOM     36  C   UNL     1      -8.982   0.724   5.466  0.00  0.00    +0.026 A 
ATOM     37  F   UNL     1      -8.363   2.666   8.468  0.00  0.00    -0.205 F 
ENDBRANCH  27  31
ENDBRANCH  23  24
ENDBRANCH  16  23
TORSDOF 4
