REMARK  Name = ZINC12913493
REMARK  12 active torsions:
REMARK  status: ('A' for Active; 'I' for Inactive)
REMARK    1  A    between atoms: C_1  and  C_2
REMARK    2  A    between atoms: C_2  and  C_3
REMARK    3  A    between atoms: C_2  and  C_4
REMARK    4  A    between atoms: C_4  and  C_6
REMARK    5  A    between atoms: C_4  and  N_61
REMARK    6  A    between atoms: C_17  and  C_18
REMARK    7  A    between atoms: C_17  and  N_61
REMARK    8  A    between atoms: C_21  and  C_23
REMARK    9  A    between atoms: C_26  and  O_31
REMARK   10  A    between atoms: C_27  and  O_29
REMARK   11  A    between atoms: O_29  and  C_30
REMARK   12  A    between atoms: O_31  and  C_32
REMARK                            x       y       z     vdW  Elec       q    Type
REMARK                         _______ _______ _______ _____ _____    ______ ____
ROOT
ATOM      1  N   UNL     1      -4.662   1.377   0.944  0.00  0.00    +0.387 N 
ATOM      2  H   UNL     1      -4.141   0.982   1.735  0.00  0.00    -0.084 HD
ATOM      3  H   UNL     1      -5.123   0.619   0.426  0.00  0.00    -0.084 HD
ENDROOT
BRANCH   1   4
ATOM      4  C   UNL     1      -3.727   2.081   0.047  0.00  0.00    -0.038 C 
BRANCH   4   5
ATOM      5  C   UNL     1      -2.410   1.348   0.031  0.00  0.00    -0.057 A 
ATOM      6  C   UNL     1      -2.391  -0.035   0.024  0.00  0.00    +0.006 A 
ATOM      7  C   UNL     1      -1.187  -0.714   0.009  0.00  0.00    +0.049 A 
ATOM      8  C   UNL     1       0.002  -0.004   0.002  0.00  0.00    +0.162 A 
ATOM      9  C   UNL     1      -0.017   1.383   0.010  0.00  0.00    +0.162 A 
ATOM     10  C   UNL     1      -1.224   2.061   0.019  0.00  0.00    +0.051 A 
ATOM     11  O   UNL     1       1.160   2.074   0.002  0.00  0.00    -0.488 OA
ATOM     12  C   UNL     1       1.951   1.973   1.188  0.00  0.00    +0.232 C 
ATOM     13  C   UNL     1       2.814   0.721   1.157  0.00  0.00    +0.082 C 
ATOM     14  C   UNL     1       1.985  -0.554   1.175  0.00  0.00    +0.232 C 
ATOM     15  O   UNL     1       1.197  -0.662  -0.013  0.00  0.00    -0.488 OA
ENDBRANCH   4   5
BRANCH   4  17
ATOM     16  C   UNL     1      -3.332   2.841  -2.300  0.00  0.00    +0.006 C 
ATOM     17  C   UNL     1      -4.307   2.118  -1.369  0.00  0.00    -0.027 C 
ATOM     18  C   UNL     1      -4.525   0.688  -1.868  0.00  0.00    +0.006 C 
ENDBRANCH   4  17
ENDBRANCH   1   4
BRANCH   1  19
ATOM     19  C   UNL     1      -5.685   2.310   1.452  0.00  0.00    -0.025 C 
BRANCH  19  20
ATOM     20  C   UNL     1      -6.625   1.565   2.364  0.00  0.00    +0.032 A 
ATOM     21  C   UNL     1      -6.416   1.568   3.707  0.00  0.00    +0.068 A 
ATOM     22  S   UNL     1      -7.788   0.562   4.257  0.00  0.00    -0.075 S 
ATOM     23  C   UNL     1      -8.489   0.248   2.643  0.00  0.00    +0.109 A 
ATOM     24  N   UNL     1      -7.650   0.915   1.863  0.00  0.00    -0.246 NA
BRANCH  23  25
ATOM     25  C   UNL     1      -9.685  -0.540   2.276  0.00  0.00    +0.011 A 
ATOM     26  C   UNL     1     -10.060  -0.660   0.937  0.00  0.00    +0.014 A 
ATOM     27  C   UNL     1     -11.176  -1.395   0.597  0.00  0.00    +0.050 A 
ATOM     28  C   UNL     1     -11.928  -2.018   1.582  0.00  0.00    +0.162 A 
ATOM     29  C   UNL     1     -11.558  -1.903   2.921  0.00  0.00    +0.162 A 
ATOM     30  C   UNL     1     -10.438  -1.172   3.268  0.00  0.00    +0.060 A 
BRANCH  29  31
ATOM     31  O   UNL     1     -12.297  -2.515   3.885  0.00  0.00    -0.491 OA
ATOM     32  C   UNL     1     -11.860  -2.355   5.236  0.00  0.00    +0.277 C 
ENDBRANCH  29  31
BRANCH  28  33
ATOM     33  O   UNL     1     -13.026  -2.743   1.242  0.00  0.00    -0.491 OA
ATOM     34  C   UNL     1     -13.347  -2.820  -0.149  0.00  0.00    +0.277 C 
ENDBRANCH  28  33
ENDBRANCH  23  25
ENDBRANCH  19  20
ENDBRANCH   1  19
TORSDOF 8
