REMARK  Name = ZINC01409516
REMARK  3 active torsions:
REMARK  status: ('A' for Active; 'I' for Inactive)
REMARK    1  A    between atoms: C_4  and  C_7
REMARK    2  A    between atoms: C_14  and  C_25
REMARK    3  A    between atoms: N_16  and  C_19
REMARK                            x       y       z     vdW  Elec       q    Type
REMARK                         _______ _______ _______ _____ _____    ______ ____
ROOT
ATOM      1  C   UNL     1      -2.385   0.195   2.591  0.00  0.00    +0.050 C 
ATOM      2  N   UNL     1      -2.992  -0.880   3.054  0.00  0.00    -0.382 N 
ATOM      3  C   UNL     1      -4.314  -1.236   2.552  0.00  0.00    +0.131 C 
ATOM      4  C   UNL     1      -5.448  -0.405   3.160  0.00  0.00    +0.122 C 
ATOM      5  N   UNL     1      -5.067   1.013   3.186  0.00  0.00    -0.338 N 
ATOM      6  C   UNL     1      -4.399   1.527   2.085  0.00  0.00    +0.098 C 
ATOM      7  C   UNL     1      -3.147   1.123   1.752  0.00  0.00    +0.027 C 
ATOM      8  C   UNL     1      -2.773   1.819   0.480  0.00  0.00    +0.146 C 
ATOM      9  N   UNL     1      -3.921   2.678   0.143  0.00  0.00    -0.255 N 
ATOM     10  C   UNL     1      -4.864   2.503   1.091  0.00  0.00    +0.266 C 
ATOM     11  O   UNL     1      -5.939   3.069   1.120  0.00  0.00    -0.268 OA
ATOM     12  H   UNL     1      -5.313   1.633   4.061  0.00  0.00    +0.146 HD
ATOM     13  H   UNL     1      -2.500  -1.504   3.815  0.00  0.00    +0.160 HD
ENDROOT
BRANCH   8  14
ATOM     14  C   UNL     1      -1.539   2.658   0.688  0.00  0.00    -0.022 A 
ATOM     15  C   UNL     1      -0.316   2.216   0.220  0.00  0.00    +0.007 A 
ATOM     16  C   UNL     1       0.816   2.987   0.405  0.00  0.00    +0.020 A 
ATOM     17  C   UNL     1       0.725   4.200   1.065  0.00  0.00    +0.041 A 
ATOM     18  C   UNL     1      -0.498   4.639   1.538  0.00  0.00    +0.020 A 
ATOM     19  C   UNL     1      -1.629   3.867   1.352  0.00  0.00    +0.007 A 
ATOM     20 CL   UNL     1       2.146   5.170   1.298  0.00  0.00    -0.084 Cl
ENDBRANCH   8  14
BRANCH   1  24
ATOM     21  C   UNL     1       1.695   0.951   3.514  0.00  0.00    +0.000 A 
ATOM     22  C   UNL     1       0.774   1.982   3.567  0.00  0.00    +0.001 A 
ATOM     23  C   UNL     1      -0.551   1.742   3.268  0.00  0.00    +0.010 A 
ATOM     24  C   UNL     1      -0.962   0.458   2.913  0.00  0.00    -0.002 A 
ATOM     25  C   UNL     1      -0.031  -0.578   2.868  0.00  0.00    +0.010 A 
ATOM     26  C   UNL     1       1.293  -0.326   3.162  0.00  0.00    +0.001 A 
ENDBRANCH   1  24
BRANCH   9  27
ATOM     27  C   UNL     1      -4.016   3.526  -0.964  0.00  0.00    +0.038 A 
ATOM     28  C   UNL     1      -2.962   3.616  -1.865  0.00  0.00    +0.023 A 
ATOM     29  C   UNL     1      -3.061   4.451  -2.961  0.00  0.00    +0.002 A 
ATOM     30  C   UNL     1      -4.203   5.205  -3.156  0.00  0.00    +0.000 A 
ATOM     31  C   UNL     1      -5.252   5.123  -2.258  0.00  0.00    +0.002 A 
ATOM     32  C   UNL     1      -5.162   4.285  -1.163  0.00  0.00    +0.023 A 
ENDBRANCH   9  27
TORSDOF 3
