REMARK  Name = ZINC09713490
REMARK  5 active torsions:
REMARK  status: ('A' for Active; 'I' for Inactive)
REMARK    1  A    between atoms: C_3  and  N_15
REMARK    2  A    between atoms: C_5  and  S_7
REMARK    3  A    between atoms: S_7  and  N_10
REMARK    4  A    between atoms: N_15  and  S_16
REMARK    5  A    between atoms: S_16  and  C_19
REMARK                            x       y       z     vdW  Elec       q    Type
REMARK                         _______ _______ _______ _____ _____    ______ ____
ROOT
ATOM      1  C   UNL     1       2.579   2.421  -3.839  0.00  0.00    +0.004 A 
ATOM      2  C   UNL     1       3.452   1.356  -3.951  0.00  0.00    +0.024 A 
ATOM      3  C   UNL     1       3.703   0.547  -2.851  0.00  0.00    +0.050 A 
ATOM      4  C   UNL     1       3.079   0.814  -1.639  0.00  0.00    +0.053 A 
ATOM      5  C   UNL     1       2.203   1.877  -1.534  0.00  0.00    +0.110 A 
ATOM      6  C   UNL     1       1.955   2.681  -2.632  0.00  0.00    +0.029 A 
ENDROOT
BRANCH   5   7
ATOM      7  S   UNL     1       1.406   2.213   0.001  0.00  0.00    +0.073 S 
ATOM      8  O   UNL     1       1.058   3.591  -0.016  0.00  0.00    -0.150 OA
ATOM      9  O   UNL     1       2.223   1.646   1.015  0.00  0.00    -0.150 OA
BRANCH   7  10
ATOM     10  N   UNL     1      -0.017   1.366   0.010  0.00  0.00    -0.205 N 
ATOM     11  C   UNL     1       0.002  -0.004   0.002  0.00  0.00    +0.088 C 
ATOM     12  C   UNL     1       0.783  -2.157  -0.014  0.00  0.00    +0.114 C 
ATOM     13  C   UNL     1      -0.706  -2.269  -0.419  0.00  0.00    +0.028 C 
ATOM     14  C   UNL     1      -1.233  -0.878   0.015  0.00  0.00    +0.072 C 
ATOM     15  H   UNL     1      -0.863   1.839   0.016  0.00  0.00    +0.175 HD
ATOM     16  N   UNL     1       1.090  -0.711  -0.012  0.00  0.00    -0.375 N 
ATOM     17  H   UNL     1       2.038  -0.318  -0.020  0.00  0.00    +0.161 HD
ENDBRANCH   7  10
ENDBRANCH   5   7
BRANCH   3  18
ATOM     18  N   UNL     1       4.585  -0.531  -2.961  0.00  0.00    -0.216 N 
ATOM     19  H   UNL     1       4.347  -1.393  -2.585  0.00  0.00    +0.174 HD
BRANCH  18  20
ATOM     20  S   UNL     1       6.037  -0.336  -3.733  0.00  0.00    +0.072 S 
ATOM     21  O   UNL     1       6.708  -1.586  -3.657  0.00  0.00    -0.150 OA
ATOM     22  O   UNL     1       5.756   0.303  -4.971  0.00  0.00    -0.150 OA
BRANCH  20  23
ATOM     23  C   UNL     1       6.985   0.803  -2.781  0.00  0.00    +0.109 A 
ATOM     24  C   UNL     1       7.814   0.340  -1.776  0.00  0.00    +0.030 A 
ATOM     25  C   UNL     1       8.559   1.231  -1.027  0.00  0.00    +0.025 A 
ATOM     26  C   UNL     1       8.473   2.592  -1.285  0.00  0.00    +0.037 A 
ATOM     27  C   UNL     1       7.640   3.054  -2.295  0.00  0.00    -0.024 A 
ATOM     28  C   UNL     1       6.902   2.159  -3.044  0.00  0.00    +0.034 A 
ATOM     29  C   UNL     1       7.548   4.532  -2.575  0.00  0.00    +0.046 C 
ATOM     30  C   UNL     1       7.699   5.310  -1.267  0.00  0.00    +0.101 C 
ATOM     31  C   UNL     1       8.893   4.803  -0.504  0.00  0.00    +0.218 C 
ATOM     32  O   UNL     1       9.564   5.579   0.143  0.00  0.00    -0.275 OA
ATOM     33  N   UNL     1       9.225   3.499  -0.531  0.00  0.00    -0.285 N 
ATOM     34  H   UNL     1       9.990   3.186  -0.024  0.00  0.00    +0.155 HD
ENDBRANCH  20  23
ENDBRANCH  18  20
ENDBRANCH   3  18
TORSDOF 5
