REMARK  Name = ZINC24647057
REMARK  13 active torsions:
REMARK  status: ('A' for Active; 'I' for Inactive)
REMARK    1  A    between atoms: C_1  and  C_2
REMARK    2  A    between atoms: C_5  and  S_8
REMARK    3  A    between atoms: S_8  and  N_11
REMARK    4  A    between atoms: N_11  and  C_12
REMARK    5  A    between atoms: N_11  and  C_18
REMARK    6  A    between atoms: C_12  and  C_13
REMARK    7  A    between atoms: C_18  and  C_19
REMARK    8  A    between atoms: N_21  and  C_22
REMARK    9  A    between atoms: C_22  and  C_23
REMARK   10  A    between atoms: C_28  and  C_29
REMARK   11  A    between atoms: C_29  and  N_30
REMARK   12  A    between atoms: N_30  and  C_31
REMARK   13  A    between atoms: N_30  and  C_32
REMARK                            x       y       z     vdW  Elec       q    Type
REMARK                         _______ _______ _______ _____ _____    ______ ____
ROOT
ATOM      1  N   UNL     1       3.387   2.967   0.342  0.00  0.00    -0.160 NA
ENDROOT
BRANCH   1   2
ATOM      2  S   UNL     1       4.165   3.027   1.802  0.00  0.00    +0.062 S 
ATOM      3  O   UNL     1       4.618   4.364   1.966  0.00  0.00    -0.153 OA
ATOM      4  O   UNL     1       3.311   2.392   2.744  0.00  0.00    -0.153 OA
BRANCH   2   9
ATOM      5  C   UNL     1       9.094  -0.421   1.343  0.00  0.00    +0.044 C 
ATOM      6  C   UNL     1       7.863   0.440   1.458  0.00  0.00    -0.050 A 
ATOM      7  C   UNL     1       7.926   1.783   1.136  0.00  0.00    +0.005 A 
ATOM      8  C   UNL     1       6.797   2.573   1.242  0.00  0.00    +0.029 A 
ATOM      9  C   UNL     1       5.604   2.020   1.668  0.00  0.00    +0.106 A 
ATOM     10  C   UNL     1       5.542   0.678   1.994  0.00  0.00    +0.029 A 
ATOM     11  C   UNL     1       6.670  -0.113   1.885  0.00  0.00    +0.005 A 
ENDBRANCH   2   9
ENDBRANCH   1   2
BRANCH   1  12
ATOM     12  C   UNL     1       3.709   3.945  -0.700  0.00  0.00    +0.184 C 
BRANCH  12  13
ATOM     13  C   UNL     1       2.732   5.091  -0.634  0.00  0.00    +0.120 A 
ATOM     14  C   UNL     1       2.881   6.211   0.096  0.00  0.00    +0.046 A 
ATOM     15  C   UNL     1       1.737   7.008  -0.137  0.00  0.00    +0.041 A 
ATOM     16  C   UNL     1       0.956   6.326  -0.995  0.00  0.00    +0.195 A 
ATOM     17  O   UNL     1       1.566   5.169  -1.296  0.00  0.00    -0.466 OA
ENDBRANCH  12  13
ENDBRANCH   1  12
BRANCH   1  18
ATOM     18  C   UNL     1       2.377   1.936   0.092  0.00  0.00    +0.205 C 
BRANCH  18  19
ATOM     19  C   UNL     1       1.008   2.491   0.391  0.00  0.00    +0.229 C 
ATOM     20  O   UNL     1       0.888   3.635   0.776  0.00  0.00    -0.274 OA
ATOM     21  N   UNL     1      -0.083   1.715   0.232  0.00  0.00    -0.310 N 
ATOM     22  H   UNL     1       0.026   0.676  -0.113  0.00  0.00    +0.149 HD
BRANCH  21  23
ATOM     23  C   UNL     1      -1.414   2.256   0.518  0.00  0.00    +0.139 C 
BRANCH  23  24
ATOM     24  C   UNL     1      -2.454   1.197   0.255  0.00  0.00    -0.029 A 
ATOM     25  C   UNL     1      -3.164   1.205  -0.931  0.00  0.00    +0.005 A 
ATOM     26  C   UNL     1      -4.114   0.231  -1.174  0.00  0.00    +0.000 A 
ATOM     27  C   UNL     1      -4.361  -0.746  -0.226  0.00  0.00    +0.000 A 
ATOM     28  C   UNL     1      -3.655  -0.750   0.962  0.00  0.00    +0.002 A 
ATOM     29  C   UNL     1      -2.700   0.221   1.202  0.00  0.00    -0.059 A 
BRANCH  29  30
ATOM     30  C   UNL     1      -1.930   0.216   2.498  0.00  0.00    -0.043 C 
BRANCH  30  31
ATOM     31  N   UNL     1      -0.583  -0.320   2.264  0.00  0.00    +0.379 N 
ATOM     32  C   UNL     1       0.313   0.002   3.383  0.00  0.00    -0.096 C 
ATOM     33  C   UNL     1      -0.627  -1.769   2.025  0.00  0.00    -0.096 C 
ATOM     34  H   UNL     1      -0.180   0.160   1.360  0.00  0.00    -0.082 HD
ENDBRANCH  30  31
ENDBRANCH  29  30
ENDBRANCH  23  24
ENDBRANCH  21  23
ENDBRANCH  18  19
ENDBRANCH   1  18
TORSDOF 10
