REMARK  Name = ZINC13100546
REMARK  7 active torsions:
REMARK  status: ('A' for Active; 'I' for Inactive)
REMARK    1  A    between atoms: C_1  and  C_2
REMARK    2  A    between atoms: C_2  and  C_4
REMARK    3  A    between atoms: C_2  and  N_21
REMARK    4  A    between atoms: C_10  and  C_15
REMARK    5  A    between atoms: N_21  and  C_22
REMARK    6  A    between atoms: N_25  and  C_28
REMARK    7  A    between atoms: C_28  and  C_29
REMARK                            x       y       z     vdW  Elec       q    Type
REMARK                         _______ _______ _______ _____ _____    ______ ____
ROOT
ATOM      1  C   UNL     1      -0.019   1.526   0.010  0.00  0.00    -0.006 C 
ATOM      2  C   UNL     1       0.002  -0.004   0.002  0.00  0.00    -0.007 C 
ENDROOT
BRANCH   2   3
ATOM      3  C   UNL     1       0.731  -0.503   1.223  0.00  0.00    +0.097 A 
ATOM      4  N   UNL     1       0.322  -0.103   2.454  0.00  0.00    -0.312 N 
ATOM      5  H   UNL     1      -0.434   0.500   2.531  0.00  0.00    +0.170 HD
ATOM      6  C   UNL     1       0.946  -0.526   3.570  0.00  0.00    +0.260 A 
ATOM      7  O   UNL     1       0.566  -0.158   4.668  0.00  0.00    -0.267 OA
ATOM      8  C   UNL     1       2.061  -1.415   3.446  0.00  0.00    +0.080 A 
ATOM      9  C   UNL     1       2.889  -2.005   4.491  0.00  0.00    +0.004 A 
ATOM     10  C   UNL     1       3.903  -2.829   4.130  0.00  0.00    +0.056 A 
ATOM     11  S   UNL     1       3.799  -2.858   2.351  0.00  0.00    -0.076 S 
ATOM     12  C   UNL     1       2.411  -1.774   2.135  0.00  0.00    +0.116 A 
ATOM     13  N   UNL     1       1.742  -1.318   1.079  0.00  0.00    -0.228 NA
BRANCH   9  14
ATOM     14  C   UNL     1       2.629  -1.710   5.920  0.00  0.00    -0.017 A 
ATOM     15  C   UNL     1       2.480  -0.390   6.345  0.00  0.00    +0.008 A 
ATOM     16  C   UNL     1       2.237  -0.121   7.676  0.00  0.00    +0.001 A 
ATOM     17  C   UNL     1       2.141  -1.157   8.588  0.00  0.00    +0.000 A 
ATOM     18  C   UNL     1       2.288  -2.468   8.172  0.00  0.00    +0.001 A 
ATOM     19  C   UNL     1       2.526  -2.750   6.842  0.00  0.00    +0.008 A 
ENDBRANCH   9  14
ENDBRANCH   2   3
BRANCH   2  20
ATOM     20  N   UNL     1       0.690  -0.478  -1.207  0.00  0.00    +0.387 N 
ATOM     21  H   UNL     1       1.608  -0.063  -1.256  0.00  0.00    -0.085 HD
ATOM     22  H   UNL     1       0.776  -1.482  -1.172  0.00  0.00    -0.085 HD
BRANCH  20  23
ATOM     23  C   UNL     1      -0.086  -0.093  -2.394  0.00  0.00    -0.069 C 
ATOM     24  C   UNL     1      -1.429  -0.827  -2.387  0.00  0.00    -0.000 C 
ATOM     25  C   UNL     1      -2.207  -0.469  -3.656  0.00  0.00    +0.083 C 
ATOM     26  N   UNL     1      -1.423  -0.856  -4.837  0.00  0.00    -0.298 NA
ATOM     27  C   UNL     1      -0.149  -0.128  -4.889  0.00  0.00    +0.083 C 
ATOM     28  C   UNL     1       0.690  -0.476  -3.657  0.00  0.00    -0.000 C 
BRANCH  26  29
ATOM     29  C   UNL     1      -2.196  -0.654  -6.070  0.00  0.00    +0.119 C 
BRANCH  29  30
ATOM     30  C   UNL     1      -1.466  -1.284  -7.228  0.00  0.00    -0.033 A 
ATOM     31  C   UNL     1      -0.548  -0.544  -7.950  0.00  0.00    +0.005 A 
ATOM     32  C   UNL     1       0.122  -1.121  -9.013  0.00  0.00    +0.000 A 
ATOM     33  C   UNL     1      -0.125  -2.438  -9.353  0.00  0.00    +0.000 A 
ATOM     34  C   UNL     1      -1.042  -3.178  -8.630  0.00  0.00    +0.000 A 
ATOM     35  C   UNL     1      -1.709  -2.602  -7.565  0.00  0.00    +0.005 A 
ENDBRANCH  29  30
ENDBRANCH  26  29
ENDBRANCH  20  23
ENDBRANCH   2  20
TORSDOF 6
