REMARK  Name = ZINC05516547
REMARK  3 active torsions:
REMARK  status: ('A' for Active; 'I' for Inactive)
REMARK    1  A    between atoms: C_1  and  C_2
REMARK    2  A    between atoms: C_10  and  C_13
REMARK    3  A    between atoms: C_20  and  C_28
REMARK                            x       y       z     vdW  Elec       q    Type
REMARK                         _______ _______ _______ _____ _____    ______ ____
ROOT
ATOM      1  C   UNL     1      -0.018   1.503   0.010  0.00  0.00    +0.044 C 
ATOM      2  C   UNL     1       0.002  -0.004   0.002  0.00  0.00    -0.050 A 
ATOM      3  C   UNL     1       0.006  -0.687  -1.202  0.00  0.00    +0.007 A 
ATOM      4  C   UNL     1       0.023  -2.069  -1.225  0.00  0.00    +0.046 A 
ATOM      5  C   UNL     1       0.037  -2.778  -0.037  0.00  0.00    +0.131 A 
ATOM      6  C   UNL     1       0.036  -2.087   1.182  0.00  0.00    +0.043 A 
ATOM      7  C   UNL     1       0.023  -0.699   1.196  0.00  0.00    +0.017 A 
ATOM      8  C   UNL     1       0.057  -2.877   2.438  0.00  0.00    +0.083 C 
ATOM      9  C   UNL     1       0.405  -4.178   2.350  0.00  0.00    +0.028 C 
ATOM     10  C   UNL     1       0.764  -4.785   1.025  0.00  0.00    +0.234 C 
ATOM     11  O   UNL     1       0.051  -4.136  -0.030  0.00  0.00    -0.479 OA
ATOM     12  C   UNL     1       0.420  -4.997   3.621  0.00  0.00    +0.164 C 
ATOM     13  N   UNL     1       0.050  -4.284   4.853  0.00  0.00    -0.182 N 
ATOM     14  C   UNL     1      -0.271  -2.959   4.773  0.00  0.00    +0.209 C 
ATOM     15  N   UNL     1      -0.261  -2.313   3.629  0.00  0.00    -0.216 NA
ATOM     16  N   UNL     1      -0.567  -2.558   6.050  0.00  0.00    -0.275 N 
ATOM     17  C   UNL     1      -0.424  -3.640   6.884  0.00  0.00    +0.208 C 
ATOM     18  N   UNL     1      -0.059  -4.670   6.189  0.00  0.00    -0.169 NA
ATOM     19  H   UNL     1      -0.831  -1.664   6.318  0.00  0.00    +0.156 HD
ENDROOT
BRANCH  10  20
ATOM     20  C   UNL     1       2.244  -4.631   0.791  0.00  0.00    -0.000 A 
ATOM     21  C   UNL     1       2.752  -3.425   0.345  0.00  0.00    +0.008 A 
ATOM     22  C   UNL     1       4.110  -3.282   0.130  0.00  0.00    +0.003 A 
ATOM     23  C   UNL     1       4.962  -4.345   0.361  0.00  0.00    +0.038 A 
ATOM     24  C   UNL     1       4.455  -5.554   0.807  0.00  0.00    +0.124 A 
ATOM     25  C   UNL     1       3.095  -5.694   1.028  0.00  0.00    +0.046 A 
ATOM     26  F   UNL     1       5.287  -6.594   1.032  0.00  0.00    -0.205 F 
ENDBRANCH  10  20
BRANCH  12  27
ATOM     27  C   UNL     1       1.808  -5.554   3.804  0.00  0.00    -0.003 A 
ATOM     28  C   UNL     1       2.091  -6.864   3.447  0.00  0.00    +0.009 A 
ATOM     29  C   UNL     1       3.382  -7.334   3.633  0.00  0.00    +0.020 A 
ATOM     30  C   UNL     1       4.337  -6.488   4.165  0.00  0.00    +0.111 A 
ATOM     31  N   UNL     1       4.031  -5.248   4.495  0.00  0.00    -0.263 NA
ATOM     32  C   UNL     1       2.816  -4.766   4.326  0.00  0.00    +0.116 A 
ENDBRANCH  12  27
TORSDOF 2
