REMARK  Name = ZINC00530390
REMARK  8 active torsions:
REMARK  status: ('A' for Active; 'I' for Inactive)
REMARK    1  A    between atoms: C_1  and  C_2
REMARK    2  A    between atoms: C_2  and  O_3
REMARK    3  A    between atoms: O_3  and  C_4
REMARK    4  A    between atoms: C_4  and  C_6
REMARK    5  A    between atoms: C_7  and  N_23
REMARK    6  A    between atoms: C_16  and  C_20
REMARK    7  A    between atoms: C_20  and  C_21
REMARK    8  A    between atoms: C_20  and  C_22
REMARK                            x       y       z     vdW  Elec       q    Type
REMARK                         _______ _______ _______ _____ _____    ______ ____
ROOT
ATOM      1  C   UNL     1      -2.797  -2.398   0.016  0.00  0.00    +0.119 A 
ATOM      2  C   UNL     1      -3.155  -3.729   0.018  0.00  0.00    +0.055 A 
ATOM      3  C   UNL     1      -4.571  -4.062   0.029  0.00  0.00    +0.029 A 
ATOM      4  C   UNL     1      -5.181  -5.340   0.029  0.00  0.00    +0.020 A 
ATOM      5  C   UNL     1      -6.557  -5.433   0.042  0.00  0.00    +0.000 A 
ATOM      6  C   UNL     1      -7.331  -4.284   0.058  0.00  0.00    +0.050 A 
ATOM      7  N   UNL     1      -6.755  -3.093   0.053  0.00  0.00    -0.244 NA
ATOM      8  C   UNL     1      -5.449  -2.955   0.039  0.00  0.00    +0.111 A 
ATOM      9  S   UNL     1      -4.364  -1.549   0.036  0.00  0.00    -0.060 S 
ATOM     10  C   UNL     1      -8.837  -4.355   0.089  0.00  0.00    +0.087 C 
ATOM     11  C   UNL     1      -9.298  -5.753  -0.328  0.00  0.00    +0.127 C 
ATOM     12  O   UNL     1      -8.556  -6.719   0.425  0.00  0.00    -0.371 OA
ATOM     13  C   UNL     1      -7.186  -6.803   0.036  0.00  0.00    +0.197 C 
ENDROOT
BRANCH  11  14
ATOM     14  C   UNL     1     -10.793  -5.908  -0.042  0.00  0.00    +0.012 C 
ATOM     15  C   UNL     1     -11.249  -7.307  -0.461  0.00  0.00    +0.010 C 
ATOM     16  C   UNL     1     -11.048  -5.715   1.454  0.00  0.00    +0.010 C 
ENDBRANCH  11  14
BRANCH   2  17
ATOM     17  N   UNL     1      -2.190  -4.725   0.009  0.00  0.00    -0.356 N 
ATOM     18  H   UNL     1      -1.249  -4.489   0.002  0.00  0.00    +0.142 HD
ATOM     19  H   UNL     1      -2.456  -5.658   0.010  0.00  0.00    +0.142 HD
ENDBRANCH   2  17
BRANCH   1  20
ATOM     20  C   UNL     1      -1.497  -1.839   0.006  0.00  0.00    +0.348 C 
ATOM     21  O   UNL     1      -0.522  -2.567  -0.007  0.00  0.00    -0.244 OA
BRANCH  20  22
ATOM     22  O   UNL     1      -1.339  -0.499   0.012  0.00  0.00    -0.461 OA
BRANCH  22  24
ATOM     23  C   UNL     1      -0.019   1.526   0.010  0.00  0.00    +0.048 C 
ATOM     24  C   UNL     1       0.002  -0.004   0.002  0.00  0.00    +0.229 C 
ENDBRANCH  22  24
ENDBRANCH  20  22
ENDBRANCH   1  20
TORSDOF 5
