REMARK  Name = ZINC03331244
REMARK  7 active torsions:
REMARK  status: ('A' for Active; 'I' for Inactive)
REMARK    1  A    between atoms: C_1  and  C_2
REMARK    2  A    between atoms: C_3  and  C_27
REMARK    3  A    between atoms: C_8  and  C_10
REMARK    4  A    between atoms: C_10  and  C_11
REMARK    5  A    between atoms: C_11  and  C_12
REMARK    6  A    between atoms: C_30  and  O_33
REMARK    7  A    between atoms: O_33  and  C_34
REMARK                            x       y       z     vdW  Elec       q    Type
REMARK                         _______ _______ _______ _____ _____    ______ ____
ROOT
ATOM      1  C   UNL     1       2.378  11.798   0.041  0.00  0.00    +0.054 C 
ATOM      2  C   UNL     1       2.917  10.391   0.029  0.00  0.00    +0.016 A 
ATOM      3  C   UNL     1       4.212   9.953   0.015  0.00  0.00    +0.083 A 
ATOM      4  N   UNL     1       4.457   8.652   0.006  0.00  0.00    -0.224 NA
ATOM      5  C   UNL     1       3.476   7.769   0.011  0.00  0.00    +0.165 A 
ATOM      6  S   UNL     1       2.040   8.833   0.023  0.00  0.00    -0.057 S 
ATOM      7  N   UNL     1       3.542   6.381   0.003  0.00  0.00    -0.265 N 
ATOM      8  C   UNL     1       2.408   5.652   0.010  0.00  0.00    +0.219 C 
ATOM      9  O   UNL     1       1.330   6.208   0.023  0.00  0.00    -0.275 OA
ATOM     10  H   UNL     1       4.404   5.936  -0.008  0.00  0.00    +0.157 HD
ENDROOT
BRANCH   3  11
ATOM     11  C   UNL     1       5.331  10.926   0.010  0.00  0.00    +0.001 A 
ATOM     12  C   UNL     1       5.206  12.131  -0.679  0.00  0.00    +0.013 A 
ATOM     13  C   UNL     1       6.247  13.036  -0.677  0.00  0.00    +0.046 A 
ATOM     14  C   UNL     1       7.422  12.743   0.000  0.00  0.00    +0.120 A 
ATOM     15  C   UNL     1       7.552  11.541   0.683  0.00  0.00    +0.046 A 
ATOM     16  C   UNL     1       6.513  10.635   0.690  0.00  0.00    +0.013 A 
BRANCH  14  17
ATOM     17  O   UNL     1       8.448  13.634  -0.005  0.00  0.00    -0.495 OA
ATOM     18  C   UNL     1       8.248  14.851  -0.727  0.00  0.00    +0.277 C 
ENDBRANCH  14  17
ENDBRANCH   3  11
BRANCH   8  19
ATOM     19  C   UNL     1       2.479   4.147   0.001  0.00  0.00    +0.104 C 
BRANCH  19  20
ATOM     20  C   UNL     1       1.062   3.569   0.011  0.00  0.00    +0.083 C 
BRANCH  20  21
ATOM     21  C   UNL     1       1.134   2.064   0.002  0.00  0.00    +0.111 A 
ATOM     22  N   UNL     1      -0.016   1.342   0.009  0.00  0.00    -0.310 N 
ATOM     23  H   UNL     1      -0.868   1.805   0.016  0.00  0.00    +0.170 HD
ATOM     24  C   UNL     1       0.002  -0.004   0.002  0.00  0.00    +0.260 A 
ATOM     25  O   UNL     1      -1.039  -0.638   0.008  0.00  0.00    -0.267 OA
ATOM     26  C   UNL     1       1.266  -0.679  -0.014  0.00  0.00    +0.075 A 
ATOM     27  C   UNL     1       1.527  -2.118  -0.024  0.00  0.00    -0.023 A 
ATOM     28  C   UNL     1       2.820  -2.506  -0.038  0.00  0.00    -0.004 A 
ATOM     29  S   UNL     1       3.752  -0.998  -0.039  0.00  0.00    -0.073 S 
ATOM     30  C   UNL     1       2.398   0.151  -0.020  0.00  0.00    +0.116 A 
ATOM     31  N   UNL     1       2.301   1.477  -0.012  0.00  0.00    -0.227 NA
ATOM     32  C   UNL     1       3.347  -3.908  -0.049  0.00  0.00    +0.043 C 
ATOM     33  C   UNL     1       2.203  -4.859   0.333  0.00  0.00    +0.005 C 
ATOM     34  C   UNL     1       0.965  -4.493  -0.491  0.00  0.00    +0.005 C 
ATOM     35  C   UNL     1       0.404  -3.151  -0.019  0.00  0.00    +0.037 C 
ENDBRANCH  20  21
ENDBRANCH  19  20
ENDBRANCH   8  19
TORSDOF 5
