REMARK  Name = ZINC10834776
REMARK  9 active torsions:
REMARK  status: ('A' for Active; 'I' for Inactive)
REMARK    1  A    between atoms: C_1  and  C_2
REMARK    2  A    between atoms: C_9  and  N_14
REMARK    3  A    between atoms: C_15  and  C_17
REMARK    4  A    between atoms: C_17  and  C_19
REMARK    5  A    between atoms: C_17  and  N_22
REMARK    6  A    between atoms: C_19  and  C_20
REMARK    7  A    between atoms: C_19  and  C_21
REMARK    8  A    between atoms: N_22  and  S_23
REMARK    9  A    between atoms: S_23  and  C_26
REMARK                            x       y       z     vdW  Elec       q    Type
REMARK                         _______ _______ _______ _____ _____    ______ ____
ROOT
ATOM      1  C   UNL     1      -1.233  -2.349  -2.507  0.00  0.00    +0.165 C 
ENDROOT
BRANCH   1   3
ATOM      2  N   UNL     1      -1.865  -2.527  -4.892  0.00  0.00    -0.284 N 
ATOM      3  C   UNL     1      -2.247  -2.569  -3.600  0.00  0.00    +0.236 C 
ATOM      4  O   UNL     1      -3.407  -2.783  -3.318  0.00  0.00    -0.274 OA
ATOM      5  H   UNL     1      -0.928  -2.411  -5.117  0.00  0.00    +0.155 HD
BRANCH   2  13
ATOM      6  C   UNL     1      -4.753  -1.538 -10.608  0.00  0.00    +0.062 C 
ATOM      7  C   UNL     1      -5.143  -2.974 -10.252  0.00  0.00    +0.256 C 
ATOM      8  C   UNL     1      -3.935  -3.868 -10.374  0.00  0.00    +0.258 C 
ATOM      9  O   UNL     1      -3.698  -4.431 -11.422  0.00  0.00    -0.271 OA
ATOM     10  N   UNL     1      -3.118  -4.038  -9.313  0.00  0.00    -0.279 N 
ATOM     11  C   UNL     1      -3.433  -3.402  -8.103  0.00  0.00    +0.077 A 
ATOM     12  C   UNL     1      -2.486  -3.283  -7.100  0.00  0.00    +0.050 A 
ATOM     13  C   UNL     1      -2.820  -2.651  -5.909  0.00  0.00    +0.035 A 
ATOM     14  C   UNL     1      -4.101  -2.148  -5.724  0.00  0.00    +0.027 A 
ATOM     15  C   UNL     1      -5.044  -2.262  -6.728  0.00  0.00    +0.049 A 
ATOM     16  C   UNL     1      -4.717  -2.890  -7.917  0.00  0.00    +0.143 A 
ATOM     17  O   UNL     1      -5.637  -3.014  -8.911  0.00  0.00    -0.478 OA
ATOM     18  H   UNL     1      -2.325  -4.591  -9.386  0.00  0.00    +0.155 HD
ENDBRANCH   2  13
ENDBRANCH   1   3
BRANCH   1  19
ATOM     19  C   UNL     1      -1.032  -0.848  -2.292  0.00  0.00    +0.010 C 
ATOM     20  C   UNL     1      -2.364  -0.206  -1.898  0.00  0.00    +0.009 C 
ATOM     21  C   UNL     1      -0.010  -0.625  -1.176  0.00  0.00    +0.009 C 
ENDBRANCH   1  19
BRANCH   1  22
ATOM     22  N   UNL     1      -1.714  -2.960  -1.265  0.00  0.00    -0.178 NA
ATOM     23  H   UNL     1      -2.318  -2.470  -0.685  0.00  0.00    +0.149 HD
BRANCH  22  24
ATOM     24  S   UNL     1      -1.228  -4.488  -0.852  0.00  0.00    +0.059 S 
ATOM     25  O   UNL     1      -1.481  -5.314  -1.980  0.00  0.00    -0.153 OA
ATOM     26  O   UNL     1      -1.780  -4.758   0.429  0.00  0.00    -0.153 OA
BRANCH  24  27
ATOM     27  C   UNL     1       0.522  -4.440  -0.646  0.00  0.00    +0.109 A 
ATOM     28  C   UNL     1       1.349  -4.781  -1.699  0.00  0.00    +0.032 A 
ATOM     29  C   UNL     1       2.724  -4.746  -1.545  0.00  0.00    +0.051 A 
ATOM     30  C   UNL     1       3.268  -4.366  -0.330  0.00  0.00    +0.162 A 
ATOM     31  C   UNL     1       2.438  -4.023   0.727  0.00  0.00    +0.164 A 
ATOM     32  C   UNL     1       1.063  -4.060   0.570  0.00  0.00    +0.078 A 
ATOM     33  O   UNL     1       2.985  -3.651   1.921  0.00  0.00    -0.488 OA
ATOM     34  C   UNL     1       3.661  -4.680   2.647  0.00  0.00    +0.232 C 
ATOM     35  C   UNL     1       5.095  -4.828   2.163  0.00  0.00    +0.082 C 
ATOM     36  C   UNL     1       5.173  -5.302   0.721  0.00  0.00    +0.232 C 
ATOM     37  O   UNL     1       4.622  -4.325  -0.165  0.00  0.00    -0.488 OA
ENDBRANCH  24  27
ENDBRANCH  22  24
ENDBRANCH   1  22
TORSDOF 6
