REMARK  Name = ZINC09891457
REMARK  13 active torsions:
REMARK  status: ('A' for Active; 'I' for Inactive)
REMARK    1  A    between atoms: C_1  and  C_2
REMARK    2  A    between atoms: C_3  and  C_14
REMARK    3  A    between atoms: C_4  and  C_13
REMARK    4  A    between atoms: C_9  and  S_11
REMARK    5  A    between atoms: S_11  and  C_12
REMARK    6  A    between atoms: C_14  and  C_15
REMARK    7  A    between atoms: C_15  and  C_16
REMARK    8  A    between atoms: N_18  and  C_19
REMARK    9  A    between atoms: C_19  and  C_20
REMARK   10  A    between atoms: C_20  and  N_21
REMARK   11  A    between atoms: N_21  and  C_22
REMARK   12  A    between atoms: C_25  and  C_31
REMARK   13  A    between atoms: C_27  and  N_28
REMARK                            x       y       z     vdW  Elec       q    Type
REMARK                         _______ _______ _______ _____ _____    ______ ____
ROOT
ATOM      1  C   UNL     1       6.295   5.724  -1.458  0.00  0.00    +0.213 C 
ATOM      2  O   UNL     1       6.599   6.272  -0.420  0.00  0.00    -0.276 OA
ATOM      3  N   UNL     1       6.345   6.405  -2.620  0.00  0.00    -0.314 N 
ATOM      4  H   UNL     1       6.102   5.966  -3.450  0.00  0.00    +0.149 HD
ENDROOT
BRANCH   1   5
ATOM      5  C   UNL     1       5.860   4.281  -1.448  0.00  0.00    +0.100 C 
BRANCH   5   6
ATOM      6  C   UNL     1       5.890   3.748  -0.014  0.00  0.00    +0.048 C 
BRANCH   6   9
ATOM      7  C   UNL     1       7.856   1.622  -0.324  0.00  0.00    +0.066 C 
ATOM      8  C   UNL     1       6.398   1.281  -0.154  0.00  0.00    +0.047 A 
ATOM      9  C   UNL     1       5.456   2.306  -0.005  0.00  0.00    -0.005 A 
ATOM     10  C   UNL     1       4.144   1.984   0.148  0.00  0.00    +0.048 A 
ATOM     11  N   UNL     1       3.783   0.674   0.153  0.00  0.00    -0.200 N 
ATOM     12  C   UNL     1       4.727  -0.302   0.005  0.00  0.00    +0.254 A 
ATOM     13  N   UNL     1       6.016   0.024  -0.145  0.00  0.00    -0.216 NA
ATOM     14  N   UNL     1       4.098  -1.472   0.047  0.00  0.00    -0.183 NA
ATOM     15  C   UNL     1       2.793  -1.274   0.216  0.00  0.00    +0.211 A 
ATOM     16  N   UNL     1       2.551   0.020   0.286  0.00  0.00    -0.137 NA
ATOM     17  C   UNL     1       3.106   3.064   0.310  0.00  0.00    +0.066 C 
BRANCH  15  18
ATOM     18  S   UNL     1       1.577  -2.544   0.326  0.00  0.00    -0.088 S 
ATOM     19  C   UNL     1       2.529  -4.079   0.161  0.00  0.00    +0.093 C 
ENDBRANCH  15  18
ENDBRANCH   6   9
ENDBRANCH   5   6
ENDBRANCH   1   5
BRANCH   3  20
ATOM     20  C   UNL     1       6.768   7.808  -2.629  0.00  0.00    +0.123 C 
BRANCH  20  21
ATOM     21  C   UNL     1       6.737   8.340  -4.063  0.00  0.00    +0.120 C 
BRANCH  21  22
ATOM     22  N   UNL     1       7.160   9.743  -4.072  0.00  0.00    -0.341 N 
ATOM     23  H   UNL     1       7.404  10.181  -3.241  0.00  0.00    +0.146 HD
BRANCH  22  24
ATOM     24  C   UNL     1       7.213  10.449  -5.276  0.00  0.00    +0.058 A 
ATOM     25  C   UNL     1       6.983   9.792  -6.478  0.00  0.00    +0.026 A 
ATOM     26  C   UNL     1       7.036  10.493  -7.667  0.00  0.00    +0.014 A 
ATOM     27  C   UNL     1       7.317  11.847  -7.661  0.00  0.00    +0.057 A 
ATOM     28  C   UNL     1       7.546  12.504  -6.466  0.00  0.00    +0.047 A 
ATOM     29  C   UNL     1       7.489  11.810  -5.273  0.00  0.00    +0.147 A 
BRANCH  27  30
ATOM     30  C   UNL     1       7.373  12.609  -8.960  0.00  0.00    +0.417 C 
ATOM     31  F   UNL     1       7.109  11.738 -10.023  0.00  0.00    -0.166 F 
ATOM     32  F   UNL     1       6.415  13.629  -8.945  0.00  0.00    -0.166 F 
ATOM     33  F   UNL     1       8.646  13.167  -9.119  0.00  0.00    -0.166 F 
ENDBRANCH  27  30
BRANCH  29  34
ATOM     34  N   UNL     1       7.728  12.515  -3.994  0.00  0.00    +0.058 N 
ATOM     35  O   UNL     1       7.082  12.218  -3.005  0.00  0.00    -0.126 OA
ATOM     36  O   UNL     1       8.571  13.392  -3.930  0.00  0.00    -0.126 OA
ENDBRANCH  29  34
ENDBRANCH  22  24
ENDBRANCH  21  22
ENDBRANCH  20  21
ENDBRANCH   3  20
TORSDOF 10
