REMARK  Name = ZINC02639325
REMARK  9 active torsions:
REMARK  status: ('A' for Active; 'I' for Inactive)
REMARK    1  A    between atoms: C_1  and  C_2
REMARK    2  A    between atoms: C_5  and  C_21
REMARK    3  A    between atoms: C_7  and  O_8
REMARK    4  A    between atoms: O_8  and  C_9
REMARK    5  A    between atoms: C_9  and  C_10
REMARK    6  A    between atoms: N_12  and  C_13
REMARK    7  A    between atoms: C_14  and  C_18
REMARK    8  A    between atoms: C_21  and  C_22
REMARK    9  A    between atoms: C_21  and  C_23
REMARK                            x       y       z     vdW  Elec       q    Type
REMARK                         _______ _______ _______ _____ _____    ______ ____
ROOT
ATOM      1  C   UNL     1       3.609   5.889   0.000  0.00  0.00    +0.255 C 
ATOM      2  O   UNL     1       4.582   5.165  -0.013  0.00  0.00    -0.272 OA
ATOM      3  N   UNL     1       3.766   7.228   0.006  0.00  0.00    -0.277 N 
ATOM      4  H   UNL     1       2.988   7.807   0.016  0.00  0.00    +0.155 HD
ENDROOT
BRANCH   3   5
ATOM      5  C   UNL     1       5.039   7.777  -0.003  0.00  0.00    +0.084 A 
ATOM      6  C   UNL     1       5.400   9.119  -0.005  0.00  0.00    +0.065 A 
ATOM      7  C   UNL     1       6.814   9.411  -0.011  0.00  0.00    +0.022 A 
ATOM      8  C   UNL     1       7.657   8.363  -0.025  0.00  0.00    +0.048 A 
ATOM      9  S   UNL     1       6.564   6.957  -0.022  0.00  0.00    -0.081 S 
BRANCH   6  10
ATOM     10  C   UNL     1       4.395  10.186   0.003  0.00  0.00    +0.244 C 
ATOM     11  O   UNL     1       3.210   9.906   0.011  0.00  0.00    -0.270 OA
ATOM     12  N   UNL     1       4.782  11.477   0.001  0.00  0.00    -0.325 N 
ATOM     13  H   UNL     1       5.726  11.700  -0.005  0.00  0.00    +0.145 HD
ATOM     14  H   UNL     1       4.117  12.183   0.006  0.00  0.00    +0.145 HD
ENDBRANCH   6  10
ENDBRANCH   3   5
BRANCH   1  15
ATOM     15  C   UNL     1       2.226   5.292   0.010  0.00  0.00    +0.324 C 
BRANCH  15  16
ATOM     16  O   UNL     1       2.322   3.866   0.001  0.00  0.00    -0.482 OA
BRANCH  16  23
ATOM     17  C   UNL     1       2.490   1.047  -0.017  0.00  0.00    +0.047 C 
ATOM     18  C   UNL     1       1.175   1.782   0.000  0.00  0.00    -0.009 A 
ATOM     19  C   UNL     1      -0.013   1.076   0.008  0.00  0.00    +0.007 A 
ATOM     20  C   UNL     1      -1.219   1.750   0.017  0.00  0.00    +0.004 A 
ATOM     21  C   UNL     1      -1.242   3.133   0.031  0.00  0.00    -0.041 A 
ATOM     22  C   UNL     1      -0.057   3.844   0.023  0.00  0.00    +0.049 A 
ATOM     23  C   UNL     1       1.155   3.169   0.008  0.00  0.00    +0.124 A 
BRANCH  21  24
ATOM     24  C   UNL     1      -2.559   3.865   0.048  0.00  0.00    +0.013 C 
ATOM     25  C   UNL     1      -3.367   3.489  -1.196  0.00  0.00    +0.012 C 
ATOM     26  C   UNL     1      -3.343   3.475   1.302  0.00  0.00    +0.012 C 
ENDBRANCH  21  24
ENDBRANCH  16  23
ENDBRANCH  15  16
ENDBRANCH   1  15
TORSDOF 6
