REMARK  Name = ZINC67555317
REMARK  4 active torsions:
REMARK  status: ('A' for Active; 'I' for Inactive)
REMARK    1  A    between atoms: C_1  and  C_2
REMARK    2  A    between atoms: C_7  and  C_10
REMARK    3  A    between atoms: N_18  and  C_19
REMARK    4  A    between atoms: C_23  and  N_25
REMARK                            x       y       z     vdW  Elec       q    Type
REMARK                         _______ _______ _______ _____ _____    ______ ____
ROOT
ATOM      1  C   UNL     1      -0.432   0.372  -1.234  0.00  0.00    +0.039 C 
ATOM      2  C   UNL     1       0.042  -1.016  -0.799  0.00  0.00    +0.133 C 
ATOM      3  C   UNL     1       1.232  -1.445  -1.665  0.00  0.00    +0.140 C 
ATOM      4  N   UNL     1       2.375  -0.574  -1.347  0.00  0.00    -0.280 N 
ATOM      5  C   UNL     1       2.739  -0.399   0.068  0.00  0.00    +0.145 C 
ATOM      6  C   UNL     1       1.475  -0.021   0.849  0.00  0.00    +0.166 C 
ATOM      7  O   UNL     1       0.446  -0.975   0.572  0.00  0.00    -0.366 OA
ATOM      8  C   UNL     1       3.068   0.045  -2.323  0.00  0.00    +0.307 C 
ATOM      9  O   UNL     1       2.812  -0.184  -3.490  0.00  0.00    -0.252 OA
ATOM     10  N   UNL     1       4.044   0.918  -2.006  0.00  0.00    -0.269 N 
ATOM     11  H   UNL     1       4.319   1.024  -1.082  0.00  0.00    +0.156 HD
ENDROOT
BRANCH   6  12
ATOM     12  C   UNL     1       1.777  -0.021   2.326  0.00  0.00    -0.017 A 
ATOM     13  C   UNL     1       1.816  -1.214   3.023  0.00  0.00    +0.006 A 
ATOM     14  C   UNL     1       2.093  -1.214   4.378  0.00  0.00    +0.000 A 
ATOM     15  C   UNL     1       2.332  -0.021   5.034  0.00  0.00    +0.000 A 
ATOM     16  C   UNL     1       2.294   1.172   4.336  0.00  0.00    +0.000 A 
ATOM     17  C   UNL     1       2.021   1.171   2.981  0.00  0.00    +0.006 A 
ENDBRANCH   6  12
BRANCH  10  18
ATOM     18  C   UNL     1       4.662   1.672  -3.011  0.00  0.00    +0.037 A 
ATOM     19  C   UNL     1       3.932   2.087  -4.117  0.00  0.00    +0.023 A 
ATOM     20  C   UNL     1       4.544   2.832  -5.107  0.00  0.00    +0.004 A 
ATOM     21  C   UNL     1       5.882   3.163  -4.997  0.00  0.00    +0.033 A 
ATOM     22  C   UNL     1       6.611   2.751  -3.897  0.00  0.00    +0.128 A 
ATOM     23  C   UNL     1       6.004   2.011  -2.901  0.00  0.00    +0.056 A 
BRANCH  22  24
ATOM     24  N   UNL     1       8.043   3.108  -3.783  0.00  0.00    +0.056 N 
ATOM     25  O   UNL     1       8.575   3.759  -4.652  0.00  0.00    -0.126 OA
ATOM     26  O   UNL     1       8.682   2.748  -2.822  0.00  0.00    -0.126 OA
ENDBRANCH  22  24
ENDBRANCH  10  18
TORSDOF 3
