REMARK  Name = ZINC02066645
REMARK  2 active torsions:
REMARK  status: ('A' for Active; 'I' for Inactive)
REMARK    1  A    between atoms: C_4  and  C_7
REMARK    2  A    between atoms: N_13  and  N_14
REMARK                            x       y       z     vdW  Elec       q    Type
REMARK                         _______ _______ _______ _____ _____    ______ ____
ROOT
ATOM      1  C   UNL     1      -0.999  -1.940  -0.588  0.00  0.00    +0.161 A 
ATOM      2  N   UNL     1      -1.091  -0.677  -0.229  0.00  0.00    -0.227 NA
ATOM      3  C   UNL     1      -0.068  -0.055   0.367  0.00  0.00    +0.083 A 
ATOM      4  C   UNL     1       1.114  -0.740   0.608  0.00  0.00    +0.051 A 
ATOM      5  C   UNL     1       1.205  -2.087   0.224  0.00  0.00    +0.275 A 
ATOM      6  O   UNL     1       2.227  -2.724   0.421  0.00  0.00    -0.266 OA
ATOM      7  N   UNL     1       0.137  -2.662  -0.370  0.00  0.00    -0.214 N 
ATOM      8  C   UNL     1       2.269  -0.040   1.262  0.00  0.00    +0.007 C 
ATOM      9  C   UNL     1       3.584  -0.761   0.908  0.00  0.00    +0.012 C 
ATOM     10  C   UNL     1       4.425  -0.675   2.207  0.00  0.00    +0.001 C 
ATOM     11  C   UNL     1       3.361  -0.864   3.317  0.00  0.00    +0.001 C 
ATOM     12  C   UNL     1       2.126  -0.104   2.791  0.00  0.00    +0.012 C 
ATOM     13  C   UNL     1       2.345   1.417   0.809  0.00  0.00    +0.047 C 
ATOM     14  C   UNL     1       1.009   2.086   0.997  0.00  0.00    -0.037 A 
ATOM     15  C   UNL     1      -0.165   1.363   0.782  0.00  0.00    +0.004 A 
ATOM     16  C   UNL     1      -1.403   1.976   0.954  0.00  0.00    +0.010 A 
ATOM     17  C   UNL     1      -1.462   3.299   1.346  0.00  0.00    +0.001 A 
ATOM     18  C   UNL     1      -0.295   4.013   1.555  0.00  0.00    +0.000 A 
ATOM     19  C   UNL     1       0.937   3.409   1.381  0.00  0.00    +0.004 A 
ENDROOT
BRANCH   1  23
ATOM     20  C   UNL     1      -4.316  -3.808  -2.470  0.00  0.00    +0.000 A 
ATOM     21  C   UNL     1      -4.510  -3.042  -1.335  0.00  0.00    +0.001 A 
ATOM     22  C   UNL     1      -3.437  -2.432  -0.719  0.00  0.00    +0.011 A 
ATOM     23  C   UNL     1      -2.153  -2.590  -1.243  0.00  0.00    +0.019 A 
ATOM     24  C   UNL     1      -1.965  -3.361  -2.391  0.00  0.00    +0.011 A 
ATOM     25  C   UNL     1      -3.046  -3.969  -2.995  0.00  0.00    +0.001 A 
ENDBRANCH   1  23
BRANCH   7  26
ATOM     26  N   UNL     1       0.194  -3.972  -0.752  0.00  0.00    -0.294 N 
ATOM     27  H   UNL     1      -0.701  -4.289  -1.092  0.00  0.00    +0.163 HD
ATOM     28  H   UNL     1       0.915  -4.116  -1.443  0.00  0.00    +0.163 HD
ENDBRANCH   7  26
TORSDOF 2
