REMARK  Name = ZINC39351865
REMARK  9 active torsions:
REMARK  status: ('A' for Active; 'I' for Inactive)
REMARK    1  A    between atoms: C_1  and  C_2
REMARK    2  A    between atoms: C_6  and  C_7
REMARK    3  A    between atoms: C_7  and  C_9
REMARK    4  A    between atoms: C_7  and  C_28
REMARK    5  A    between atoms: C_18  and  O_19
REMARK    6  A    between atoms: O_19  and  C_20
REMARK    7  A    between atoms: C_20  and  C_21
REMARK    8  A    between atoms: C_29  and  C_35
REMARK    9  A    between atoms: C_32  and  O_34
REMARK                            x       y       z     vdW  Elec       q    Type
REMARK                         _______ _______ _______ _____ _____    ______ ____
ROOT
ATOM      1  C   UNL     1      -1.333  -0.704   2.974  0.00  0.00    +0.014 A 
ATOM      2  C   UNL     1      -2.268   0.276   3.343  0.00  0.00    -0.010 A 
ATOM      3  C   UNL     1      -2.139   1.607   2.910  0.00  0.00    +0.009 A 
ATOM      4  C   UNL     1      -3.064   2.531   3.287  0.00  0.00    +0.001 A 
ATOM      5  C   UNL     1      -4.141   2.178   4.099  0.00  0.00    +0.001 A 
ATOM      6  C   UNL     1      -4.298   0.899   4.537  0.00  0.00    +0.008 A 
ATOM      7  C   UNL     1      -3.364  -0.083   4.168  0.00  0.00    -0.017 A 
ATOM      8  C   UNL     1      -3.495  -1.414   4.602  0.00  0.00    +0.012 A 
ATOM      9  C   UNL     1      -2.572  -2.340   4.227  0.00  0.00    +0.046 A 
ATOM     10  C   UNL     1      -1.494  -1.989   3.409  0.00  0.00    +0.126 A 
ENDROOT
BRANCH   1  11
ATOM     11  C   UNL     1      -0.162  -0.342   2.097  0.00  0.00    +0.092 C 
BRANCH  11  17
ATOM     12  C   UNL     1       2.236  -0.711   0.144  0.00  0.00    +0.065 C 
ATOM     13  C   UNL     1       0.907  -1.416   0.052  0.00  0.00    +0.039 A 
ATOM     14  N   UNL     1       0.551  -2.329  -0.899  0.00  0.00    -0.301 N 
ATOM     15  N   UNL     1      -0.759  -2.748  -0.635  0.00  0.00    -0.266 N 
ATOM     16  C   UNL     1      -1.186  -2.092   0.463  0.00  0.00    +0.269 A 
ATOM     17  C   UNL     1      -0.131  -1.255   0.898  0.00  0.00    +0.050 A 
ATOM     18  O   UNL     1      -2.279  -2.202   0.988  0.00  0.00    -0.266 OA
ATOM     19  H   UNL     1       1.110  -2.635  -1.631  0.00  0.00    +0.186 HD
ATOM     20  H   UNL     1      -1.269  -3.393  -1.150  0.00  0.00    +0.190 HD
ENDBRANCH  11  17
BRANCH  11  21
ATOM     21  C   UNL     1       1.117  -0.495   2.878  0.00  0.00    +0.017 C 
ATOM     22  C   UNL     1       1.958   0.462   3.276  0.00  0.00    +0.065 C 
ATOM     23  N   UNL     1       2.999  -0.066   3.957  0.00  0.00    -0.156 NA
ATOM     24  N   UNL     1       2.967  -1.293   4.072  0.00  0.00    -0.151 NA
ATOM     25  C   UNL     1       1.746  -1.774   3.402  0.00  0.00    +0.284 C 
ATOM     26  C   UNL     1       1.771   1.932   3.003  0.00  0.00    +0.067 C 
BRANCH  25  27
ATOM     27  O   UNL     1       2.077  -2.653   2.325  0.00  0.00    -0.366 OA
ATOM     28  H   UNL     1       2.482  -3.485   2.606  0.00  0.00    +0.212 HD
ENDBRANCH  25  27
ENDBRANCH  11  21
ENDBRANCH   1  11
BRANCH  10  29
ATOM     29  O   UNL     1      -0.591  -2.938   3.046  0.00  0.00    -0.487 OA
BRANCH  29  30
ATOM     30  C   UNL     1      -0.878  -4.285   3.426  0.00  0.00    +0.264 C 
BRANCH  30  31
ATOM     31  C   UNL     1       0.226  -5.189   2.942  0.00  0.00    -0.010 A 
ATOM     32  C   UNL     1       0.146  -5.765   1.687  0.00  0.00    +0.008 A 
ATOM     33  C   UNL     1       1.158  -6.595   1.242  0.00  0.00    +0.020 A 
ATOM     34  C   UNL     1       2.251  -6.849   2.052  0.00  0.00    +0.041 A 
ATOM     35  C   UNL     1       2.330  -6.273   3.307  0.00  0.00    +0.020 A 
ATOM     36  C   UNL     1       1.320  -5.439   3.749  0.00  0.00    +0.008 A 
ATOM     37 CL   UNL     1       3.522  -7.891   1.494  0.00  0.00    -0.084 Cl
ENDBRANCH  30  31
ENDBRANCH  29  30
ENDBRANCH  10  29
TORSDOF 7
