REMARK  Name = ZINC40046569
REMARK  16 active torsions:
REMARK  status: ('A' for Active; 'I' for Inactive)
REMARK    1  A    between atoms: C_1  and  C_2
REMARK    2  A    between atoms: C_2  and  C_3
REMARK    3  A    between atoms: C_2  and  C_4
REMARK    4  A    between atoms: C_2  and  C_5
REMARK    5  A    between atoms: C_7  and  C_16
REMARK    6  A    between atoms: C_9  and  C_12
REMARK    7  A    between atoms: C_10  and  O_11
REMARK    8  A    between atoms: C_12  and  C_13
REMARK    9  A    between atoms: C_12  and  C_14
REMARK   10  A    between atoms: C_12  and  C_15
REMARK   11  A    between atoms: C_18  and  C_28
REMARK   12  A    between atoms: N_22  and  C_23
REMARK   13  A    between atoms: C_23  and  C_24
REMARK   14  A    between atoms: C_24  and  C_25
REMARK   15  A    between atoms: C_25  and  O_26
REMARK   16  A    between atoms: C_28  and  C_30
REMARK                            x       y       z     vdW  Elec       q    Type
REMARK                         _______ _______ _______ _____ _____    ______ ____
ROOT
ATOM      1  C   UNL     1       2.151   1.096  -4.127  0.00  0.00    +0.145 C 
ATOM      2  C   UNL     1       3.307   1.905  -3.587  0.00  0.00    +0.079 C 
ATOM      3  C   UNL     1       2.869   3.178  -3.462  0.00  0.00    +0.249 C 
ATOM      4  C   UNL     1       1.460   3.252  -3.899  0.00  0.00    +0.288 C 
ATOM      5  O   UNL     1       0.784   4.261  -3.905  0.00  0.00    -0.266 OA
ATOM      6  N   UNL     1       1.035   2.035  -4.290  0.00  0.00    -0.283 N 
ATOM      7  O   UNL     1       3.604   4.220  -3.008  0.00  0.00    -0.282 OA
ENDROOT
BRANCH   1  10
ATOM      8  C   UNL     1       1.102  -0.655  -0.952  0.00  0.00    +0.000 A 
ATOM      9  C   UNL     1       1.446   0.338  -1.849  0.00  0.00    +0.013 A 
ATOM     10  C   UNL     1       1.776   0.011  -3.151  0.00  0.00    -0.022 A 
ATOM     11  C   UNL     1       1.764  -1.310  -3.559  0.00  0.00    +0.013 A 
ATOM     12  C   UNL     1       1.421  -2.307  -2.666  0.00  0.00    +0.000 A 
ATOM     13  C   UNL     1       1.094  -1.982  -1.357  0.00  0.00    +0.124 A 
BRANCH   8  15
ATOM     14  C   UNL     1       0.844   1.218   0.653  0.00  0.00    +0.015 C 
ATOM     15  C   UNL     1       0.742  -0.297   0.467  0.00  0.00    -0.009 C 
ATOM     16  C   UNL     1       1.706  -0.995   1.429  0.00  0.00    +0.015 C 
ATOM     17  C   UNL     1      -0.689  -0.752   0.760  0.00  0.00    +0.015 C 
ENDBRANCH   8  15
BRANCH  12  18
ATOM     18  C   UNL     1       1.407  -3.746  -3.111  0.00  0.00    -0.009 C 
ATOM     19  C   UNL     1       1.803  -3.828  -4.586  0.00  0.00    +0.015 C 
ATOM     20  C   UNL     1       2.401  -4.550  -2.271  0.00  0.00    +0.015 C 
ATOM     21  C   UNL     1       0.002  -4.324  -2.928  0.00  0.00    +0.015 C 
ENDBRANCH  12  18
BRANCH  13  22
ATOM     22  O   UNL     1       0.762  -2.961  -0.475  0.00  0.00    -0.506 OA
ATOM     23  H   UNL     1      -0.183  -3.167  -0.454  0.00  0.00    +0.292 HD
ENDBRANCH  13  22
ENDBRANCH   1  10
BRANCH   2  24
ATOM     24  C   UNL     1       4.648   1.405  -3.261  0.00  0.00    +0.230 C 
ATOM     25  O   UNL     1       5.455   2.136  -2.714  0.00  0.00    -0.283 OA
BRANCH  24  26
ATOM     26  C   UNL     1       5.017   0.025  -3.592  0.00  0.00    +0.175 A 
ATOM     27  C   UNL     1       6.189  -0.609  -3.240  0.00  0.00    +0.053 A 
ATOM     28  C   UNL     1       6.113  -1.908  -3.763  0.00  0.00    +0.042 A 
ATOM     29  C   UNL     1       4.924  -2.013  -4.400  0.00  0.00    +0.196 A 
ATOM     30  O   UNL     1       4.266  -0.852  -4.290  0.00  0.00    -0.460 OA
ENDBRANCH  24  26
ENDBRANCH   2  24
BRANCH   6  31
ATOM     31  C   UNL     1      -0.303   1.707  -4.789  0.00  0.00    +0.111 C 
BRANCH  31  32
ATOM     32  C   UNL     1      -1.202   1.311  -3.616  0.00  0.00    +0.047 C 
BRANCH  32  33
ATOM     33  C   UNL     1      -2.599   0.968  -4.137  0.00  0.00    +0.157 C 
BRANCH  33  34
ATOM     34  O   UNL     1      -3.439   0.599  -3.042  0.00  0.00    -0.395 OA
ATOM     35  H   UNL     1      -4.342   0.368  -3.299  0.00  0.00    +0.209 HD
ENDBRANCH  33  34
ENDBRANCH  32  33
ENDBRANCH  31  32
ENDBRANCH   6  31
TORSDOF 10
