REMARK  Name = ZINC39361709
REMARK  8 active torsions:
REMARK  status: ('A' for Active; 'I' for Inactive)
REMARK    1  A    between atoms: C_1  and  C_2
REMARK    2  A    between atoms: C_6  and  N_8
REMARK    3  A    between atoms: C_9  and  C_26
REMARK    4  A    between atoms: C_13  and  S_14
REMARK    5  A    between atoms: S_14  and  C_15
REMARK    6  A    between atoms: C_15  and  C_16
REMARK    7  A    between atoms: N_18  and  C_19
REMARK    8  A    between atoms: C_26  and  C_27
REMARK                            x       y       z     vdW  Elec       q    Type
REMARK                         _______ _______ _______ _____ _____    ______ ____
ROOT
ATOM      1  N   UNL     1      -0.049  -2.798   2.402  0.00  0.00    -0.258 N 
ATOM      2  C   UNL     1      -0.133  -4.259   2.568  0.00  0.00    +0.187 C 
ATOM      3  N   UNL     1      -0.057  -4.454   4.027  0.00  0.00    -0.246 N 
ATOM      4  N   UNL     1       0.059  -3.176   4.586  0.00  0.00    -0.162 NA
ATOM      5  C   UNL     1       0.069  -2.261   3.676  0.00  0.00    +0.180 C 
ATOM      6  H   UNL     1      -0.082  -5.299   4.503  0.00  0.00    +0.170 HD
ENDROOT
BRANCH   1  12
ATOM      7  C   UNL     1       2.033  -1.716  -1.917  0.00  0.00    +0.044 C 
ATOM      8  C   UNL     1       0.919  -1.547  -0.915  0.00  0.00    -0.049 A 
ATOM      9  C   UNL     1      -0.132  -0.691  -1.189  0.00  0.00    +0.003 A 
ATOM     10  C   UNL     1      -1.156  -0.533  -0.273  0.00  0.00    +0.002 A 
ATOM     11  C   UNL     1      -1.131  -1.230   0.919  0.00  0.00    +0.023 A 
ATOM     12  C   UNL     1      -0.077  -2.091   1.197  0.00  0.00    +0.038 A 
ATOM     13  C   UNL     1       0.947  -2.251   0.272  0.00  0.00    +0.027 A 
ENDBRANCH   1  12
BRANCH   5  14
ATOM     14  S   UNL     1       0.210  -0.537   4.012  0.00  0.00    -0.079 S 
BRANCH  14  15
ATOM     15  C   UNL     1       0.331  -0.450   5.820  0.00  0.00    +0.173 C 
BRANCH  15  16
ATOM     16  C   UNL     1       0.458   0.990   6.246  0.00  0.00    +0.228 C 
ATOM     17  O   UNL     1       0.467   1.871   5.412  0.00  0.00    -0.275 OA
ATOM     18  N   UNL     1       0.563   1.299   7.554  0.00  0.00    -0.283 N 
ATOM     19  H   UNL     1       0.639   0.592   8.214  0.00  0.00    +0.155 HD
BRANCH  18  20
ATOM     20  C   UNL     1       0.562   2.639   7.959  0.00  0.00    +0.069 A 
ATOM     21  C   UNL     1      -0.197   3.574   7.268  0.00  0.00    +0.026 A 
ATOM     22  C   UNL     1      -0.197   4.895   7.670  0.00  0.00    +0.002 A 
ATOM     23  C   UNL     1       0.558   5.289   8.760  0.00  0.00    +0.003 A 
ATOM     24  C   UNL     1       1.316   4.362   9.451  0.00  0.00    +0.040 A 
ATOM     25  C   UNL     1       1.316   3.036   9.058  0.00  0.00    +0.144 A 
ATOM     26  F   UNL     1       2.052   2.129   9.736  0.00  0.00    -0.204 F 
ENDBRANCH  18  20
ENDBRANCH  15  16
ENDBRANCH  14  15
ENDBRANCH   5  14
BRANCH   2  27
ATOM     27  C   UNL     1      -1.462  -4.786   2.022  0.00  0.00    +0.097 C 
BRANCH  27  28
ATOM     28  C   UNL     1      -1.522  -6.280   2.204  0.00  0.00    +0.029 A 
ATOM     29  N   UNL     1      -0.956  -7.110   1.274  0.00  0.00    -0.311 N 
ATOM     30  C   UNL     1      -1.004  -8.445   1.427  0.00  0.00    +0.327 A 
ATOM     31  O   UNL     1      -0.495  -9.164   0.589  0.00  0.00    -0.247 OA
ATOM     32  N   UNL     1      -1.608  -8.998   2.496  0.00  0.00    -0.275 N 
ATOM     33  C   UNL     1      -2.177  -8.215   3.435  0.00  0.00    +0.254 A 
ATOM     34  O   UNL     1      -2.723  -8.714   4.402  0.00  0.00    -0.268 OA
ATOM     35  C   UNL     1      -2.130  -6.808   3.288  0.00  0.00    +0.091 A 
ATOM     36  H   UNL     1      -1.633  -9.963   2.591  0.00  0.00    +0.173 HD
ATOM     37  H   UNL     1      -0.516  -6.731   0.497  0.00  0.00    +0.170 HD
ENDBRANCH  27  28
ENDBRANCH   2  27
TORSDOF 7
