REMARK  Name = ZINC08648535
REMARK  10 active torsions:
REMARK  status: ('A' for Active; 'I' for Inactive)
REMARK    1  A    between atoms: C_1  and  C_2
REMARK    2  A    between atoms: C_2  and  C_3
REMARK    3  A    between atoms: C_3  and  N_4
REMARK    4  A    between atoms: C_7  and  C_18
REMARK    5  A    between atoms: N_9  and  C_12
REMARK    6  A    between atoms: N_19  and  O_20
REMARK    7  A    between atoms: O_20  and  C_21
REMARK    8  A    between atoms: N_23  and  C_24
REMARK    9  A    between atoms: C_27  and  O_30
REMARK   10  A    between atoms: O_30  and  C_31
REMARK                            x       y       z     vdW  Elec       q    Type
REMARK                         _______ _______ _______ _____ _____    ______ ____
ROOT
ATOM      1  C   UNL     1       2.184  -4.402   0.048  0.00  0.00    +0.189 C 
ATOM      2  N   UNL     1       3.236  -3.892   0.623  0.00  0.00    -0.056 NA
ATOM      3  N   UNL     1       1.995  -5.773   0.043  0.00  0.00    -0.339 N 
ATOM      4  H   UNL     1       1.212  -6.153  -0.385  0.00  0.00    +0.144 HD
ATOM      5  H   UNL     1       2.646  -6.354   0.466  0.00  0.00    +0.144 HD
ENDROOT
BRANCH   1   9
ATOM      6  N   UNL     1       0.433  -1.300  -1.208  0.00  0.00    -0.258 N 
ATOM      7  C   UNL     1       1.379  -2.054  -0.599  0.00  0.00    +0.286 A 
ATOM      8  O   UNL     1       2.349  -1.542  -0.072  0.00  0.00    -0.265 OA
ATOM      9  C   UNL     1       1.192  -3.517  -0.597  0.00  0.00    +0.191 A 
ATOM     10  N   UNL     1       0.127  -4.018  -1.180  0.00  0.00    -0.154 NA
ATOM     11  N   UNL     1      -0.741  -3.257  -1.744  0.00  0.00    -0.181 N 
ATOM     12  C   UNL     1      -0.623  -1.920  -1.771  0.00  0.00    +0.353 A 
ATOM     13  O   UNL     1      -1.483  -1.257  -2.317  0.00  0.00    -0.244 OA
BRANCH  11  14
ATOM     14  C   UNL     1      -1.856  -3.845  -2.351  0.00  0.00    +0.071 A 
ATOM     15  C   UNL     1      -2.215  -3.487  -3.644  0.00  0.00    +0.028 A 
ATOM     16  C   UNL     1      -3.316  -4.070  -4.240  0.00  0.00    +0.002 A 
ATOM     17  C   UNL     1      -4.062  -5.009  -3.550  0.00  0.00    +0.000 A 
ATOM     18  C   UNL     1      -3.707  -5.367  -2.262  0.00  0.00    +0.002 A 
ATOM     19  C   UNL     1      -2.603  -4.793  -1.663  0.00  0.00    +0.028 A 
ENDBRANCH  11  14
BRANCH   6  20
ATOM     20  C   UNL     1       0.553   0.159  -1.250  0.00  0.00    +0.130 C 
BRANCH  20  22
ATOM     21  C   UNL     1      -0.000   2.286  -0.061  0.00  0.00    +0.005 C 
ATOM     22  C   UNL     1      -0.125   0.762  -0.017  0.00  0.00    +0.018 C 
ENDBRANCH  20  22
ENDBRANCH   6  20
ENDBRANCH   1   9
BRANCH   2  23
ATOM     23  O   UNL     1       4.186  -4.740   1.241  0.00  0.00    -0.297 OA
BRANCH  23  24
ATOM     24  C   UNL     1       5.224  -4.087   1.796  0.00  0.00    +0.430 C 
ATOM     25  O   UNL     1       5.280  -2.874   1.737  0.00  0.00    -0.224 OA
ATOM     26  N   UNL     1       6.200  -4.777   2.418  0.00  0.00    -0.249 N 
ATOM     27  H   UNL     1       6.196  -5.747   2.398  0.00  0.00    +0.158 HD
BRANCH  26  28
ATOM     28  C   UNL     1       7.220  -4.094   3.093  0.00  0.00    +0.037 A 
ATOM     29  C   UNL     1       6.948  -2.889   3.726  0.00  0.00    +0.027 A 
ATOM     30  C   UNL     1       7.954  -2.216   4.392  0.00  0.00    +0.048 A 
ATOM     31  C   UNL     1       9.236  -2.745   4.428  0.00  0.00    +0.130 A 
ATOM     32  C   UNL     1       9.509  -3.949   3.796  0.00  0.00    +0.048 A 
ATOM     33  C   UNL     1       8.502  -4.625   3.135  0.00  0.00    +0.027 A 
BRANCH  31  34
ATOM     34  O   UNL     1      10.226  -2.082   5.083  0.00  0.00    -0.406 OA
BRANCH  34  35
ATOM     35  C   UNL     1      11.522  -2.684   5.081  0.00  0.00    +0.575 C 
ATOM     36  F   UNL     1      11.970  -2.821   3.762  0.00  0.00    -0.133 F 
ATOM     37  F   UNL     1      12.414  -1.876   5.794  0.00  0.00    -0.133 F 
ATOM     38  F   UNL     1      11.452  -3.945   5.683  0.00  0.00    -0.133 F 
ENDBRANCH  34  35
ENDBRANCH  31  34
ENDBRANCH  26  28
ENDBRANCH  23  24
ENDBRANCH   2  23
TORSDOF 9
