REMARK  Name = ZINC01155552
REMARK  12 active torsions:
REMARK  status: ('A' for Active; 'I' for Inactive)
REMARK    1  A    between atoms: C_1  and  C_2
REMARK    2  A    between atoms: C_2  and  C_3
REMARK    3  A    between atoms: C_2  and  O_4
REMARK    4  A    between atoms: O_4  and  C_5
REMARK    5  A    between atoms: C_8  and  C_11
REMARK    6  A    between atoms: C_11  and  C_13
REMARK    7  A    between atoms: N_17  and  C_29
REMARK    8  A    between atoms: C_18  and  C_20
REMARK    9  A    between atoms: C_23  and  N_26
REMARK   10  A    between atoms: C_29  and  C_30
REMARK   11  A    between atoms: C_30  and  C_31
REMARK   12  A    between atoms: C_31  and  N_32
REMARK                            x       y       z     vdW  Elec       q    Type
REMARK                         _______ _______ _______ _____ _____    ______ ____
ROOT
ATOM      1  C   UNL     1      -1.166   1.952   0.629  0.00  0.00    +0.076 C 
ATOM      2  C   UNL     1      -2.473   1.717   0.890  0.00  0.00    +0.249 C 
ATOM      3  C   UNL     1      -3.146   2.998   1.192  0.00  0.00    +0.288 C 
ATOM      4  O   UNL     1      -4.322   3.119   1.470  0.00  0.00    -0.266 OA
ATOM      5  N   UNL     1      -2.264   4.011   1.108  0.00  0.00    -0.283 N 
ATOM      6  C   UNL     1      -0.958   3.444   0.751  0.00  0.00    +0.145 C 
ATOM      7  O   UNL     1      -3.069   0.503   0.879  0.00  0.00    -0.282 OA
ENDROOT
BRANCH   6   8
ATOM      8  C   UNL     1      -0.489   4.011  -0.564  0.00  0.00    -0.022 A 
ATOM      9  C   UNL     1      -1.358   4.078  -1.637  0.00  0.00    +0.008 A 
ATOM     10  C   UNL     1      -0.929   4.604  -2.842  0.00  0.00    +0.033 A 
ATOM     11  C   UNL     1       0.371   5.052  -2.977  0.00  0.00    +0.126 A 
ATOM     12  C   UNL     1       1.242   4.979  -1.905  0.00  0.00    +0.033 A 
ATOM     13  C   UNL     1       0.811   4.459  -0.699  0.00  0.00    +0.008 A 
BRANCH  11  14
ATOM     14  N   UNL     1       0.832   5.610  -4.268  0.00  0.00    +0.056 N 
ATOM     15  O   UNL     1       1.978   6.005  -4.387  0.00  0.00    -0.126 OA
ATOM     16  O   UNL     1       0.065   5.673  -5.212  0.00  0.00    -0.126 OA
ENDBRANCH  11  14
ENDBRANCH   6   8
BRANCH   1  17
ATOM     17  C   UNL     1      -0.149   0.953   0.286  0.00  0.00    +0.195 C 
ATOM     18  O   UNL     1      -0.228   0.339  -0.761  0.00  0.00    -0.287 OA
BRANCH  17  22
ATOM     19  C   UNL     1       3.081   0.214   2.943  0.00  0.00    +0.121 A 
ATOM     20  C   UNL     1       2.957  -0.534   1.777  0.00  0.00    +0.046 A 
ATOM     21  C   UNL     1       1.911  -0.298   0.913  0.00  0.00    +0.015 A 
ATOM     22  C   UNL     1       0.973   0.696   1.210  0.00  0.00    +0.022 A 
ATOM     23  C   UNL     1       1.105   1.449   2.380  0.00  0.00    +0.015 A 
ATOM     24  C   UNL     1       2.150   1.202   3.241  0.00  0.00    +0.046 A 
BRANCH  19  25
ATOM     25  O   UNL     1       4.113  -0.022   3.791  0.00  0.00    -0.489 OA
BRANCH  25  27
ATOM     26  C   UNL     1       6.104  -0.379   2.469  0.00  0.00    +0.051 C 
ATOM     27  C   UNL     1       5.065  -1.012   3.396  0.00  0.00    +0.167 C 
ATOM     28  C   UNL     1       5.762  -1.574   4.637  0.00  0.00    +0.051 C 
ENDBRANCH  25  27
ENDBRANCH  19  25
ENDBRANCH  17  22
ENDBRANCH   1  17
BRANCH   5  29
ATOM     29  C   UNL     1      -2.555   5.429   1.335  0.00  0.00    +0.111 C 
BRANCH  29  30
ATOM     30  C   UNL     1      -2.971   6.081   0.014  0.00  0.00    +0.040 C 
BRANCH  30  31
ATOM     31  C   UNL     1      -3.275   7.562   0.251  0.00  0.00    +0.124 C 
BRANCH  31  32
ATOM     32  N   UNL     1      -3.673   8.186  -1.014  0.00  0.00    -0.337 N 
ATOM     33  C   UNL     1      -4.946   8.283  -1.506  0.00  0.00    +0.106 A 
ATOM     34  C   UNL     1      -4.859   8.926  -2.687  0.00  0.00    +0.130 A 
ATOM     35  N   UNL     1      -3.568   9.214  -2.908  0.00  0.00    -0.244 NA
ATOM     36  C   UNL     1      -2.852   8.779  -1.908  0.00  0.00    +0.199 A 
ENDBRANCH  31  32
ENDBRANCH  30  31
ENDBRANCH  29  30
ENDBRANCH   5  29
TORSDOF 10
