REMARK  Name = ZINC21858974
REMARK  10 active torsions:
REMARK  status: ('A' for Active; 'I' for Inactive)
REMARK    1  A    between atoms: C_1  and  C_2
REMARK    2  A    between atoms: C_2  and  C_25
REMARK    3  A    between atoms: N_15  and  C_16
REMARK    4  A    between atoms: C_16  and  C_17
REMARK    5  A    between atoms: C_22  and  O_23
REMARK    6  A    between atoms: O_23  and  C_24
REMARK    7  A    between atoms: N_27  and  C_28
REMARK    8  A    between atoms: C_28  and  C_29
REMARK    9  A    between atoms: C_34  and  O_35
REMARK   10  A    between atoms: O_35  and  C_36
REMARK                            x       y       z     vdW  Elec       q    Type
REMARK                         _______ _______ _______ _____ _____    ______ ____
ROOT
ATOM      1  C   UNL     1      -3.175   4.770  -0.712  0.00  0.00    +0.043 C 
ATOM      2  C   UNL     1      -2.218   3.598  -0.938  0.00  0.00    +0.129 C 
ATOM      3  C   UNL     1      -0.826   3.996  -0.450  0.00  0.00    +0.157 C 
ATOM      4  N   UNL     1       0.026   2.803  -0.399  0.00  0.00    -0.334 N 
ATOM      5  C   UNL     1       1.378   2.690  -0.553  0.00  0.00    +0.050 A 
ATOM      6  C   UNL     1       2.394   3.604  -0.819  0.00  0.00    +0.026 A 
ATOM      7  C   UNL     1       3.698   3.175  -0.913  0.00  0.00    +0.002 A 
ATOM      8  C   UNL     1       4.016   1.832  -0.746  0.00  0.00    +0.001 A 
ATOM      9  C   UNL     1       3.040   0.916  -0.485  0.00  0.00    +0.010 A 
ATOM     10  C   UNL     1       1.705   1.327  -0.387  0.00  0.00    +0.001 A 
ATOM     11  C   UNL     1       0.491   0.633  -0.138  0.00  0.00    +0.041 A 
ATOM     12  C   UNL     1      -0.505   1.536  -0.162  0.00  0.00    +0.106 A 
ATOM     13  C   UNL     1      -1.955   1.360   0.046  0.00  0.00    +0.264 C 
ATOM     14  O   UNL     1      -2.422   0.313   0.453  0.00  0.00    -0.268 OA
ATOM     15  N   UNL     1      -2.738   2.425  -0.246  0.00  0.00    -0.276 N 
ENDROOT
BRANCH   2  16
ATOM     16  C   UNL     1      -2.152   3.304  -2.414  0.00  0.00    +0.238 C 
ATOM     17  O   UNL     1      -2.371   2.182  -2.819  0.00  0.00    -0.273 OA
ATOM     18  N   UNL     1      -1.849   4.287  -3.284  0.00  0.00    -0.309 N 
ATOM     19  H   UNL     1      -1.732   5.321  -2.927  0.00  0.00    +0.149 HD
BRANCH  18  20
ATOM     20  C   UNL     1      -1.677   3.980  -4.706  0.00  0.00    +0.143 C 
BRANCH  20  21
ATOM     21  C   UNL     1      -1.229   5.219  -5.438  0.00  0.00    +0.011 A 
ATOM     22  C   UNL     1      -2.123   5.918  -6.227  0.00  0.00    +0.009 A 
ATOM     23  C   UNL     1      -1.714   7.057  -6.894  0.00  0.00    +0.001 A 
ATOM     24  C   UNL     1      -0.407   7.495  -6.782  0.00  0.00    +0.004 A 
ATOM     25  C   UNL     1       0.492   6.798  -5.998  0.00  0.00    +0.046 A 
ATOM     26  C   UNL     1       0.082   5.657  -5.324  0.00  0.00    +0.125 A 
BRANCH  26  27
ATOM     27  O   UNL     1       0.965   4.969  -4.552  0.00  0.00    -0.495 OA
ATOM     28  C   UNL     1       2.266   5.536  -4.392  0.00  0.00    +0.277 C 
ENDBRANCH  26  27
ENDBRANCH  20  21
ENDBRANCH  18  20
ENDBRANCH   2  16
BRANCH  15  29
ATOM     29  C   UNL     1      -4.150   2.397   0.145  0.00  0.00    +0.148 C 
BRANCH  29  30
ATOM     30  C   UNL     1      -4.981   1.901  -1.010  0.00  0.00    +0.012 A 
ATOM     31  C   UNL     1      -5.606   2.803  -1.850  0.00  0.00    +0.009 A 
ATOM     32  C   UNL     1      -6.367   2.349  -2.911  0.00  0.00    +0.001 A 
ATOM     33  C   UNL     1      -6.507   0.991  -3.133  0.00  0.00    +0.004 A 
ATOM     34  C   UNL     1      -5.886   0.085  -2.296  0.00  0.00    +0.046 A 
ATOM     35  C   UNL     1      -5.115   0.539  -1.235  0.00  0.00    +0.125 A 
BRANCH  35  36
ATOM     36  O   UNL     1      -4.498  -0.350  -0.413  0.00  0.00    -0.495 OA
ATOM     37  C   UNL     1      -4.680  -1.738  -0.704  0.00  0.00    +0.277 C 
ENDBRANCH  35  36
ENDBRANCH  29  30
ENDBRANCH  15  29
TORSDOF 7
