REMARK  Name = ZINC21981441
REMARK  9 active torsions:
REMARK  status: ('A' for Active; 'I' for Inactive)
REMARK    1  A    between atoms: C_1  and  C_2
REMARK    2  A    between atoms: C_11  and  C_32
REMARK    3  A    between atoms: C_14  and  O_31
REMARK    4  A    between atoms: C_17  and  C_30
REMARK    5  A    between atoms: C_21  and  O_29
REMARK    6  A    between atoms: C_23  and  C_24
REMARK    7  A    between atoms: C_23  and  O_28
REMARK    8  A    between atoms: C_24  and  C_26
REMARK    9  A    between atoms: C_26  and  O_27
REMARK                            x       y       z     vdW  Elec       q    Type
REMARK                         _______ _______ _______ _____ _____    ______ ____
ROOT
ATOM      1  C   UNL     1       5.779   1.428  -0.164  0.00  0.00    +0.012 C 
ATOM      2  C   UNL     1       4.841   1.429  -1.362  0.00  0.00    -0.022 C 
ATOM      3  C   UNL     1       4.513  -0.040  -1.708  0.00  0.00    +0.011 C 
ATOM      4  C   UNL     1       3.760  -0.698  -0.555  0.00  0.00    +0.032 C 
ATOM      5  C   UNL     1       2.490   0.090  -0.302  0.00  0.00    -0.056 C 
ATOM      6  C   UNL     1       1.343  -0.575  -0.242  0.00  0.00    +0.051 C 
ATOM      7  C   UNL     1       0.074   0.142  -0.038  0.00  0.00    +0.179 C 
ATOM      8  O   UNL     1      -0.956  -0.459   0.191  0.00  0.00    -0.288 OA
ATOM      9  C   UNL     1       0.094   1.611  -0.143  0.00  0.00    +0.047 C 
ATOM     10  C   UNL     1       1.249   2.250  -0.190  0.00  0.00    -0.012 C 
ATOM     11  C   UNL     1       2.591   1.578  -0.113  0.00  0.00    +0.013 C 
ATOM     12  C   UNL     1       3.532   2.179  -1.136  0.00  0.00    +0.038 C 
ATOM     13  C   UNL     1       3.699   3.682  -1.014  0.00  0.00    +0.120 C 
ATOM     14  C   UNL     1       4.386   4.269  -2.258  0.00  0.00    +0.042 C 
ATOM     15  C   UNL     1       5.694   3.562  -2.509  0.00  0.00    +0.012 C 
ATOM     16  C   UNL     1       5.485   2.042  -2.584  0.00  0.00    +0.007 C 
ATOM     17  C   UNL     1       6.868   1.547  -3.016  0.00  0.00    +0.039 C 
ATOM     18  C   UNL     1       7.273   2.600  -4.090  0.00  0.00    +0.154 C 
ATOM     19  C   UNL     1       6.318   3.807  -3.903  0.00  0.00    +0.157 C 
ATOM     20  C   UNL     1       6.751   4.004  -1.496  0.00  0.00    +0.015 C 
ATOM     21  C   UNL     1       3.077   1.817   1.318  0.00  0.00    +0.020 C 
ENDROOT
BRANCH  19  22
ATOM     22  C   UNL     1       7.087   5.097  -3.896  0.00  0.00    +0.193 C 
ATOM     23  O   UNL     1       8.276   5.091  -3.683  0.00  0.00    -0.292 OA
BRANCH  22  24
ATOM     24  C   UNL     1       6.376   6.400  -4.156  0.00  0.00    +0.233 C 
BRANCH  24  25
ATOM     25  O   UNL     1       7.315   7.476  -4.097  0.00  0.00    -0.387 OA
ATOM     26  H   UNL     1       6.978   8.510  -4.262  0.00  0.00    +0.210 HD
ENDBRANCH  24  25
ENDBRANCH  22  24
ENDBRANCH  19  22
BRANCH  19  27
ATOM     27  O   UNL     1       5.304   3.813  -4.901  0.00  0.00    -0.378 OA
ATOM     28  H   UNL     1       5.572   3.975  -5.955  0.00  0.00    +0.211 HD
ENDBRANCH  19  27
BRANCH  18  29
ATOM     29  O   UNL     1       7.114   2.047  -5.397  0.00  0.00    -0.388 OA
ATOM     30  H   UNL     1       7.355   2.652  -6.284  0.00  0.00    +0.210 HD
ENDBRANCH  18  29
BRANCH  13  31
ATOM     31  O   UNL     1       4.404   4.060   0.160  0.00  0.00    -0.391 OA
ATOM     32  H   UNL     1       4.593   5.123   0.369  0.00  0.00    +0.210 HD
ENDBRANCH  13  31
TORSDOF 6
