REMARK  Name = ZINC46772225
REMARK  8 active torsions:
REMARK  status: ('A' for Active; 'I' for Inactive)
REMARK    1  A    between atoms: C_1  and  C_2
REMARK    2  A    between atoms: C_5  and  N_9
REMARK    3  A    between atoms: C_7  and  C_8
REMARK    4  A    between atoms: N_9  and  C_10
REMARK    5  A    between atoms: C_10  and  N_12
REMARK    6  A    between atoms: N_12  and  N_13
REMARK    7  A    between atoms: C_14  and  C_16
REMARK    8  A    between atoms: C_17  and  C_26
REMARK                            x       y       z     vdW  Elec       q    Type
REMARK                         _______ _______ _______ _____ _____    ______ ____
ROOT
ATOM      1  N   UNL     1      -0.106  -6.886   0.025  0.00  0.00    -0.229 N 
ATOM      2  C   UNL     1      -0.190  -8.232   0.024  0.00  0.00    +0.296 C 
ATOM      3  O   UNL     1      -0.279  -8.835  -1.028  0.00  0.00    -0.265 OA
ATOM      4  H   UNL     1      -0.035  -6.405   0.864  0.00  0.00    +0.173 HD
ENDROOT
BRANCH   2   5
ATOM      5  C   UNL     1      -0.173  -8.969   1.296  0.00  0.00    +0.195 A 
ATOM      6  C   UNL     1      -0.245 -10.320   1.417  0.00  0.00    +0.008 A 
ATOM      7  C   UNL     1      -0.194 -10.602   2.851  0.00  0.00    +0.027 A 
ATOM      8  C   UNL     1      -0.226 -11.771   3.615  0.00  0.00    +0.012 A 
ATOM      9  C   UNL     1      -0.157 -11.693   4.977  0.00  0.00    +0.004 A 
ATOM     10  C   UNL     1      -0.057 -10.460   5.607  0.00  0.00    +0.042 A 
ATOM     11  C   UNL     1      -0.024  -9.293   4.872  0.00  0.00    +0.166 A 
ATOM     12  C   UNL     1      -0.092  -9.349   3.482  0.00  0.00    +0.171 A 
ATOM     13  O   UNL     1      -0.078  -8.407   2.519  0.00  0.00    -0.447 OA
ATOM     14  F   UNL     1       0.073  -8.100   5.498  0.00  0.00    -0.202 F 
ATOM     15  C   UNL     1      -0.356 -11.325   0.299  0.00  0.00    +0.048 C 
ENDBRANCH   2   5
BRANCH   1  16
ATOM     16  N   UNL     1      -0.122  -6.184  -1.187  0.00  0.00    -0.245 N 
ATOM     17  H   UNL     1      -0.193  -6.665  -2.026  0.00  0.00    +0.172 HD
BRANCH  16  18
ATOM     18  C   UNL     1      -0.039  -4.838  -1.187  0.00  0.00    +0.151 C 
ATOM     19  S   UNL     1      -0.058  -3.979  -2.668  0.00  0.00    -0.017 S 
BRANCH  18  20
ATOM     20  N   UNL     1       0.059  -4.169  -0.021  0.00  0.00    -0.296 N 
ATOM     21  H   UNL     1       0.152  -4.658   0.812  0.00  0.00    +0.154 HD
BRANCH  20  26
ATOM     22  C   UNL     1      -0.065   1.502   0.015  0.00  0.00    +0.044 C 
ATOM     23  C   UNL     1      -0.032  -0.005   0.006  0.00  0.00    -0.047 A 
ATOM     24  C   UNL     1      -0.900  -0.709  -0.809  0.00  0.00    +0.005 A 
ATOM     25  C   UNL     1      -0.872  -2.089  -0.820  0.00  0.00    +0.023 A 
ATOM     26  C   UNL     1       0.029  -2.771  -0.012  0.00  0.00    +0.033 A 
ATOM     27  C   UNL     1       0.899  -2.061   0.805  0.00  0.00    +0.027 A 
ATOM     28  C   UNL     1       0.869  -0.680   0.808  0.00  0.00    -0.046 A 
ATOM     29  C   UNL     1       1.817   0.091   1.690  0.00  0.00    +0.044 C 
ENDBRANCH  20  26
ENDBRANCH  18  20
ENDBRANCH  16  18
ENDBRANCH   1  16
TORSDOF 5
