REMARK  Name = ZINC45912503
REMARK  13 active torsions:
REMARK  status: ('A' for Active; 'I' for Inactive)
REMARK    1  A    between atoms: C_1  and  C_2
REMARK    2  A    between atoms: C_2  and  O_3
REMARK    3  A    between atoms: O_3  and  C_4
REMARK    4  A    between atoms: N_6  and  C_7
REMARK    5  A    between atoms: C_7  and  C_9
REMARK    6  A    between atoms: C_7  and  C_13
REMARK    7  A    between atoms: C_9  and  C_10
REMARK    8  A    between atoms: C_10  and  C_11
REMARK    9  A    between atoms: C_10  and  C_12
REMARK   10  A    between atoms: C_13  and  N_14
REMARK   11  A    between atoms: C_15  and  C_17
REMARK   12  A    between atoms: N_25  and  C_26
REMARK   13  A    between atoms: N_25  and  C_27
REMARK                            x       y       z     vdW  Elec       q    Type
REMARK                         _______ _______ _______ _____ _____    ______ ____
ROOT
ATOM      1  N   UNL     1      -4.483  -2.094  -1.103  0.00  0.00    -0.313 N 
ATOM      2  C   UNL     1      -5.742  -2.263  -1.551  0.00  0.00    +0.216 C 
ATOM      3  O   UNL     1      -6.637  -2.507  -0.768  0.00  0.00    -0.276 OA
ATOM      4  H   UNL     1      -3.768  -1.899  -1.728  0.00  0.00    +0.149 HD
ENDROOT
BRANCH   2   5
ATOM      5  C   UNL     1      -6.040  -2.148  -3.024  0.00  0.00    +0.078 C 
ATOM      6  C   UNL     1      -5.656  -0.751  -3.514  0.00  0.00    +0.032 C 
ATOM      7  C   UNL     1      -5.928  -0.649  -5.019  0.00  0.00    +0.110 C 
ATOM      8  N   UNL     1      -7.328  -1.014  -5.272  0.00  0.00    -0.285 N 
ATOM      9  C   UNL     1      -7.827  -2.299  -4.763  0.00  0.00    +0.110 C 
ATOM     10  C   UNL     1      -7.534  -2.382  -3.261  0.00  0.00    +0.032 C 
ATOM     11  C   UNL     1      -8.140  -0.185  -5.957  0.00  0.00    +0.304 C 
ATOM     12  O   UNL     1      -7.835   0.983  -6.102  0.00  0.00    -0.252 OA
ATOM     13  N   UNL     1      -9.290  -0.651  -6.484  0.00  0.00    -0.292 N 
ATOM     14  C   UNL     1     -10.260   0.280  -7.065  0.00  0.00    +0.133 C 
ATOM     15  C   UNL     1      -9.570  -2.089  -6.474  0.00  0.00    +0.133 C 
ENDBRANCH   2   5
BRANCH   1  16
ATOM     16  C   UNL     1      -4.193  -2.205   0.329  0.00  0.00    +0.126 C 
BRANCH  16  17
ATOM     17  C   UNL     1      -2.700  -1.972   0.567  0.00  0.00    +0.093 C 
BRANCH  17  20
ATOM     18  C   UNL     1      -1.053  -0.501  -0.462  0.00  0.00    +0.401 C 
ATOM     19  O   UNL     1      -0.219  -1.372  -0.309  0.00  0.00    -0.226 OA
ATOM     20  N   UNL     1      -2.309  -0.683  -0.009  0.00  0.00    -0.277 N 
ATOM     21  H   UNL     1      -2.954   0.039  -0.066  0.00  0.00    +0.152 HD
BRANCH  18  22
ATOM     22  O   UNL     1      -0.721   0.647  -1.083  0.00  0.00    -0.451 OA
BRANCH  22  24
ATOM     23  C   UNL     1       0.815   2.132  -2.212  0.00  0.00    +0.048 C 
ATOM     24  C   UNL     1       0.629   0.772  -1.537  0.00  0.00    +0.230 C 
ENDBRANCH  22  24
ENDBRANCH  18  22
ENDBRANCH  17  20
BRANCH  17  25
ATOM     25  C   UNL     1      -2.418  -1.964   2.071  0.00  0.00    +0.027 C 
BRANCH  25  26
ATOM     26  C   UNL     1      -2.711  -3.349   2.652  0.00  0.00    -0.015 C 
ATOM     27  C   UNL     1      -1.742  -4.369   2.051  0.00  0.00    +0.007 C 
ATOM     28  C   UNL     1      -2.535  -3.313   4.171  0.00  0.00    +0.007 C 
ENDBRANCH  25  26
ENDBRANCH  17  25
ENDBRANCH  16  17
ENDBRANCH   1  16
TORSDOF 8
