REMARK  Name = ZINC03764542
REMARK  9 active torsions:
REMARK  status: ('A' for Active; 'I' for Inactive)
REMARK    1  A    between atoms: C_1  and  C_2
REMARK    2  A    between atoms: C_2  and  C_3
REMARK    3  A    between atoms: C_2  and  C_4
REMARK    4  A    between atoms: C_4  and  C_6
REMARK    5  A    between atoms: C_4  and  N_18
REMARK    6  A    between atoms: N_8  and  N_9
REMARK    7  A    between atoms: C_10  and  C_11
REMARK    8  A    between atoms: C_19  and  C_21
REMARK    9  A    between atoms: C_21  and  C_22
REMARK                            x       y       z     vdW  Elec       q    Type
REMARK                         _______ _______ _______ _____ _____    ______ ____
ROOT
ATOM      1  C   UNL     1      -1.409  -0.547   0.007  0.00  0.00    +0.163 C 
ENDROOT
BRANCH   1   2
ATOM      2  C   UNL     1      -1.371  -2.048   0.141  0.00  0.00    +0.253 C 
ATOM      3  O   UNL     1      -1.800  -2.748  -0.752  0.00  0.00    -0.272 OA
ATOM      4  N   UNL     1      -0.860  -2.612   1.254  0.00  0.00    -0.205 N 
ATOM      5  H   UNL     1      -0.451  -2.056   1.935  0.00  0.00    +0.177 HD
BRANCH   4   6
ATOM      6  N   UNL     1      -0.919  -4.001   1.425  0.00  0.00    -0.185 NA
ATOM      7  C   UNL     1      -0.426  -4.546   2.499  0.00  0.00    +0.176 C 
BRANCH   7   8
ATOM      8  C   UNL     1      -0.488  -5.999   2.678  0.00  0.00    +0.150 A 
ATOM      9  C   UNL     1      -0.016  -6.695   3.753  0.00  0.00    +0.067 A 
ATOM     10  C   UNL     1      -0.285  -8.054   3.506  0.00  0.00    +0.071 A 
ATOM     11  C   UNL     1      -0.901  -8.124   2.306  0.00  0.00    +0.185 A 
ATOM     12  O   UNL     1      -1.027  -6.881   1.812  0.00  0.00    -0.446 OA
ATOM     13 BR   UNL     1      -1.495  -9.710   1.464  0.00  0.00    -0.007 Br
ATOM     14 BR   UNL     1       0.137  -9.507   4.639  0.00  0.00    -0.046 Br
ENDBRANCH   7   8
ENDBRANCH   4   6
ENDBRANCH   1   2
BRANCH   1  15
ATOM     15  N   UNL     1      -2.416  -0.171  -0.988  0.00  0.00    -0.303 N 
ATOM     16  C   UNL     1      -2.993   1.046  -0.937  0.00  0.00    +0.218 C 
ATOM     17  O   UNL     1      -2.678   1.830  -0.067  0.00  0.00    -0.275 OA
ATOM     18  H   UNL     1      -2.668  -0.799  -1.684  0.00  0.00    +0.149 HD
BRANCH  16  19
ATOM     19  C   UNL     1      -4.029   1.432  -1.961  0.00  0.00    +0.138 C 
BRANCH  19  20
ATOM     20  C   UNL     1      -4.512   2.832  -1.683  0.00  0.00    -0.001 A 
ATOM     21  C   UNL     1      -4.031   4.010  -2.151  0.00  0.00    +0.011 A 
ATOM     22  C   UNL     1      -4.641   5.187  -1.758  0.00  0.00    +0.008 A 
ATOM     23  C   UNL     1      -5.701   5.128  -0.915  0.00  0.00    +0.045 A 
ATOM     24  S   UNL     1      -5.871   3.370  -0.657  0.00  0.00    -0.101 S 
ENDBRANCH  19  20
ENDBRANCH  16  19
ENDBRANCH   1  15
BRANCH   1  26
ATOM     25  C   UNL     1       0.262  -0.552  -1.850  0.00  0.00    +0.009 C 
ATOM     26  C   UNL     1      -0.036  -0.040  -0.440  0.00  0.00    +0.012 C 
ATOM     27  C   UNL     1      -0.034   1.490  -0.441  0.00  0.00    +0.009 C 
ENDBRANCH   1  26
TORSDOF 7
