REMARK  Name = ZINC18197443
REMARK  3 active torsions:
REMARK  status: ('A' for Active; 'I' for Inactive)
REMARK    1  A    between atoms: C_1  and  C_2
REMARK    2  A    between atoms: C_2  and  C_28
REMARK    3  A    between atoms: C_6  and  C_18
REMARK                            x       y       z     vdW  Elec       q    Type
REMARK                         _______ _______ _______ _____ _____    ______ ____
ROOT
ATOM      1  C   UNL     1       4.935  -4.269   0.848  0.00  0.00    +0.011 C 
ATOM      2  C   UNL     1       5.047  -4.016  -0.657  0.00  0.00    -0.023 C 
ATOM      3  C   UNL     1       4.986  -2.513  -0.933  0.00  0.00    +0.058 C 
ATOM      4  C   UNL     1       3.659  -1.964  -0.469  0.00  0.00    +0.016 C 
ATOM      5  C   UNL     1       2.546  -2.729  -0.478  0.00  0.00    +0.024 C 
ATOM      6  C   UNL     1       1.217  -2.187  -0.019  0.00  0.00    +0.087 C 
ATOM      7  C   UNL     1       1.207  -0.685  -0.015  0.00  0.00    -0.011 A 
ATOM      8  C   UNL     1       0.002  -0.004   0.002  0.00  0.00    +0.056 A 
ATOM      9  C   UNL     1      -0.017   1.381   0.010  0.00  0.00    +0.167 A 
ATOM     10  C   UNL     1       1.181   2.093   0.002  0.00  0.00    +0.168 A 
ATOM     11  C   UNL     1       2.386   1.413  -0.014  0.00  0.00    +0.073 A 
ATOM     12  C   UNL     1       2.399   0.025  -0.024  0.00  0.00    +0.039 A 
ATOM     13  N   UNL     1       3.613  -0.666  -0.046  0.00  0.00    -0.317 N 
ATOM     14  O   UNL     1       0.894   3.428   0.012  0.00  0.00    -0.453 OA
ATOM     15  C   UNL     1      -0.478   3.524   0.438  0.00  0.00    +0.466 C 
ATOM     16  O   UNL     1      -1.053   2.271   0.019  0.00  0.00    -0.453 OA
ATOM     17  C   UNL     1       2.591  -4.064  -0.916  0.00  0.00    +0.162 C 
ATOM     18  O   UNL     1       1.571  -4.724  -0.919  0.00  0.00    -0.292 OA
ATOM     19  C   UNL     1       3.876  -4.689  -1.382  0.00  0.00    +0.086 C 
ATOM     20  C   UNL     1       6.369  -4.583  -1.178  0.00  0.00    +0.011 C 
ATOM     21  H   UNL     1       4.426  -0.223   0.240  0.00  0.00    +0.152 HD
ENDROOT
BRANCH   6  22
ATOM     22  C   UNL     1       0.936  -2.685   1.376  0.00  0.00    -0.017 A 
ATOM     23  C   UNL     1       1.784  -2.347   2.414  0.00  0.00    +0.006 A 
ATOM     24  C   UNL     1       1.525  -2.800   3.694  0.00  0.00    +0.000 A 
ATOM     25  C   UNL     1       0.423  -3.599   3.935  0.00  0.00    +0.001 A 
ATOM     26  C   UNL     1      -0.423  -3.942   2.897  0.00  0.00    +0.020 A 
ATOM     27  C   UNL     1      -0.166  -3.485   1.616  0.00  0.00    +0.045 A 
ATOM     28 CL   UNL     1      -1.228  -3.915   0.311  0.00  0.00    -0.083 Cl
ENDBRANCH   6  22
TORSDOF 1
