REMARK  Name = ZINC09949796
REMARK  9 active torsions:
REMARK  status: ('A' for Active; 'I' for Inactive)
REMARK    1  A    between atoms: C_1  and  N_61
REMARK    2  A    between atoms: C_2  and  N_61
REMARK    3  A    between atoms: C_3  and  C_5
REMARK    4  A    between atoms: C_3  and  C_28
REMARK    5  A    between atoms: C_3  and  N_61
REMARK    6  A    between atoms: C_5  and  N_6
REMARK    7  A    between atoms: C_7  and  C_9
REMARK    8  A    between atoms: N_12  and  S_15
REMARK    9  A    between atoms: S_15  and  C_18
REMARK                            x       y       z     vdW  Elec       q    Type
REMARK                         _______ _______ _______ _____ _____    ______ ____
ROOT
ATOM      1  C   UNL     1      -0.017   8.873   4.119  0.00  0.00    +0.077 C 
ATOM      2  C   UNL     1       1.068   8.898   3.040  0.00  0.00    +0.030 C 
ATOM      3  C   UNL     1       0.610   9.789   1.881  0.00  0.00    +0.110 C 
ATOM      4  N   UNL     1      -0.699   9.316   1.410  0.00  0.00    -0.177 NA
ATOM      5  C   UNL     1      -1.791   9.174   2.382  0.00  0.00    +0.110 C 
ATOM      6  C   UNL     1      -1.304   8.284   3.536  0.00  0.00    +0.030 C 
ENDROOT
BRANCH   1   8
ATOM      7  N   UNL     1      -0.353   7.856   6.349  0.00  0.00    -0.316 N 
ATOM      8  C   UNL     1       0.445   8.024   5.275  0.00  0.00    +0.216 C 
ATOM      9  O   UNL     1       1.534   7.492   5.240  0.00  0.00    -0.276 OA
ATOM     10  H   UNL     1      -1.224   8.282   6.377  0.00  0.00    +0.149 HD
BRANCH   7  11
ATOM     11  C   UNL     1       0.096   7.032   7.473  0.00  0.00    +0.096 C 
BRANCH  11  12
ATOM     12  C   UNL     1      -0.989   7.006   8.552  0.00  0.00    +0.016 C 
BRANCH  12  13
ATOM     13  C   UNL     1      -0.480   6.261   9.759  0.00  0.00    +0.093 A 
ATOM     14  C   UNL     1      -0.905   5.055  10.176  0.00  0.00    +0.043 A 
ATOM     15  C   UNL     1      -0.163   4.737  11.336  0.00  0.00    +0.041 A 
ATOM     16  C   UNL     1       0.672   5.768  11.559  0.00  0.00    +0.195 A 
ATOM     17  O   UNL     1       0.480   6.685  10.597  0.00  0.00    -0.469 OA
ENDBRANCH  12  13
BRANCH  12  20
ATOM     18  C   UNL     1      -2.389   8.398   9.954  0.00  0.00    -0.096 C 
ATOM     19  C   UNL     1      -0.142   9.111   9.399  0.00  0.00    -0.096 C 
ATOM     20  N   UNL     1      -1.341   8.396   8.912  0.00  0.00    +0.384 N 
ATOM     21  H   UNL     1      -1.698   8.876   8.078  0.00  0.00    -0.082 HD
ENDBRANCH  12  20
ENDBRANCH  11  12
ENDBRANCH   7  11
ENDBRANCH   1   8
BRANCH   4  22
ATOM     22  S   UNL     1      -0.941   8.957  -0.189  0.00  0.00    +0.061 S 
ATOM     23  O   UNL     1       0.027   9.695  -0.922  0.00  0.00    -0.153 OA
ATOM     24  O   UNL     1      -2.336   9.084  -0.427  0.00  0.00    -0.153 OA
BRANCH  22  25
ATOM     25  C   UNL     1      -0.546   7.254  -0.406  0.00  0.00    +0.106 A 
ATOM     26  C   UNL     1       0.759   6.888  -0.731  0.00  0.00    +0.029 A 
ATOM     27  C   UNL     1       1.098   5.582  -0.906  0.00  0.00    +0.010 A 
ATOM     28  C   UNL     1       0.120   4.584  -0.756  0.00  0.00    -0.018 A 
ATOM     29  C   UNL     1       0.432   3.224  -0.929  0.00  0.00    +0.008 A 
ATOM     30  C   UNL     1      -0.542   2.285  -0.776  0.00  0.00    +0.001 A 
ATOM     31  C   UNL     1      -1.848   2.652  -0.456  0.00  0.00    +0.001 A 
ATOM     32  C   UNL     1      -2.186   3.958  -0.276  0.00  0.00    +0.008 A 
ATOM     33  C   UNL     1      -1.207   4.956  -0.425  0.00  0.00    -0.016 A 
ATOM     34  C   UNL     1      -1.519   6.315  -0.253  0.00  0.00    +0.037 A 
ENDBRANCH  22  25
ENDBRANCH   4  22
TORSDOF 7
