REMARK  Name = ZINC63205614
REMARK  6 active torsions:
REMARK  status: ('A' for Active; 'I' for Inactive)
REMARK    1  A    between atoms: C_6  and  C_28
REMARK    2  A    between atoms: C_8  and  C_11
REMARK    3  A    between atoms: C_11  and  C_12
REMARK    4  A    between atoms: C_12  and  C_13
REMARK    5  A    between atoms: N_18  and  C_21
REMARK    6  A    between atoms: C_26  and  O_27
REMARK                            x       y       z     vdW  Elec       q    Type
REMARK                         _______ _______ _______ _____ _____    ______ ____
ROOT
ATOM      1  C   UNL     1       0.691  -3.186  -0.024  0.00  0.00    +0.043 C 
ENDROOT
BRANCH   1   8
ATOM      2  C   UNL     1      -0.016   1.348   0.009  0.00  0.00    +0.001 A 
ATOM      3  C   UNL     1       1.166   2.101   0.002  0.00  0.00    +0.002 A 
ATOM      4  C   UNL     1       2.391   1.535  -0.013  0.00  0.00    +0.026 A 
ATOM      5  C   UNL     1       2.529   0.120  -0.022  0.00  0.00    +0.043 A 
ATOM      6  N   UNL     1       3.587  -0.654  -0.037  0.00  0.00    -0.374 N 
ATOM      7  C   UNL     1       3.143  -2.053  -0.041  0.00  0.00    +0.137 C 
ATOM      8  C   UNL     1       1.631  -2.008  -0.025  0.00  0.00    -0.034 C 
ATOM      9  C   UNL     1       1.295  -0.698  -0.014  0.00  0.00    -0.000 A 
ATOM     10  C   UNL     1       0.002  -0.004   0.002  0.00  0.00    +0.010 A 
ATOM     11  H   UNL     1       4.509  -0.353  -0.045  0.00  0.00    +0.161 HD
BRANCH   7  12
ATOM     12  C   UNL     1       3.656  -2.764   1.185  0.00  0.00    -0.021 A 
ATOM     13  C   UNL     1       3.687  -2.108   2.402  0.00  0.00    +0.009 A 
ATOM     14  C   UNL     1       4.156  -2.759   3.526  0.00  0.00    +0.039 A 
ATOM     15  C   UNL     1       4.596  -4.069   3.435  0.00  0.00    +0.123 A 
ATOM     16  C   UNL     1       4.564  -4.725   2.216  0.00  0.00    +0.039 A 
ATOM     17  C   UNL     1       4.090  -4.073   1.093  0.00  0.00    +0.009 A 
ATOM     18  F   UNL     1       5.056  -4.706   4.534  0.00  0.00    -0.205 F 
ENDBRANCH   7  12
ENDBRANCH   1   8
BRANCH   1  19
ATOM     19  C   UNL     1      -0.754  -2.683  -0.006  0.00  0.00    +0.100 C 
BRANCH  19  20
ATOM     20  C   UNL     1      -1.696  -3.860  -0.005  0.00  0.00    +0.216 C 
ATOM     21  O   UNL     1      -1.254  -4.990  -0.017  0.00  0.00    -0.276 OA
ATOM     22  N   UNL     1      -3.028  -3.658   0.010  0.00  0.00    -0.298 N 
ATOM     23  C   UNL     1      -3.577  -2.295   0.018  0.00  0.00    +0.126 C 
ATOM     24  C   UNL     1      -4.542  -2.148  -1.166  0.00  0.00    +0.124 C 
ATOM     25  N   UNL     1      -5.471  -3.286  -1.158  0.00  0.00    -0.324 N 
ATOM     26  C   UNL     1      -4.922  -4.649  -1.166  0.00  0.00    +0.124 C 
ATOM     27  C   UNL     1      -3.958  -4.796   0.012  0.00  0.00    +0.126 C 
BRANCH  25  28
ATOM     28  C   UNL     1      -6.855  -3.076  -1.143  0.00  0.00    +0.072 A 
ATOM     29  C   UNL     1      -7.556  -2.975  -2.336  0.00  0.00    +0.027 A 
ATOM     30  C   UNL     1      -8.922  -2.768  -2.318  0.00  0.00    +0.002 A 
ATOM     31  C   UNL     1      -9.593  -2.661  -1.114  0.00  0.00    +0.004 A 
ATOM     32  C   UNL     1      -8.901  -2.761   0.079  0.00  0.00    +0.047 A 
ATOM     33  C   UNL     1      -7.532  -2.974   0.070  0.00  0.00    +0.138 A 
BRANCH  33  34
ATOM     34  O   UNL     1      -6.851  -3.078   1.242  0.00  0.00    -0.505 OA
ATOM     35  H   UNL     1      -6.522  -2.234   1.582  0.00  0.00    +0.292 HD
ENDBRANCH  33  34
ENDBRANCH  25  28
ENDBRANCH  19  20
ENDBRANCH   1  19
TORSDOF 6
