REMARK  Name = ZINC39533936
REMARK  10 active torsions:
REMARK  status: ('A' for Active; 'I' for Inactive)
REMARK    1  A    between atoms: C_4  and  C_7
REMARK    2  A    between atoms: C_7  and  C_8
REMARK    3  A    between atoms: N_11  and  C_15
REMARK    4  A    between atoms: C_15  and  C_17
REMARK    5  A    between atoms: C_15  and  C_26
REMARK    6  A    between atoms: C_17  and  N_18
REMARK    7  A    between atoms: N_18  and  C_19
REMARK    8  A    between atoms: C_24  and  O_25
REMARK    9  A    between atoms: C_29  and  C_32
REMARK   10  A    between atoms: C_37  and  O_38
REMARK                            x       y       z     vdW  Elec       q    Type
REMARK                         _______ _______ _______ _____ _____    ______ ____
ROOT
ATOM      1  C   UNL     1       7.100  -2.887   2.748  0.00  0.00    -0.021 C 
ENDROOT
BRANCH   1   4
ATOM      2  C   UNL     1       3.919  -1.380   1.443  0.00  0.00    -0.085 C 
ATOM      3  C   UNL     1       5.273  -2.092   1.411  0.00  0.00    -0.094 C 
ATOM      4  N   UNL     1       5.800  -2.204   2.778  0.00  0.00    +0.383 N 
ATOM      5  C   UNL     1       5.965  -0.861   3.350  0.00  0.00    -0.097 C 
ATOM      6  C   UNL     1       4.611  -0.149   3.382  0.00  0.00    -0.101 C 
ATOM      7  N   UNL     1       4.084  -0.038   2.015  0.00  0.00    +0.379 N 
ATOM      8  H   UNL     1       4.729   0.492   1.449  0.00  0.00    -0.086 HD
ATOM      9  H   UNL     1       3.191   0.432   2.037  0.00  0.00    -0.086 HD
ATOM     10  H   UNL     1       5.154  -2.734   3.345  0.00  0.00    -0.081 HD
BRANCH   2  11
ATOM     11  C   UNL     1       3.370  -1.264   0.020  0.00  0.00    +0.017 C 
BRANCH  11  15
ATOM     12  C   UNL     1      -0.560   0.406   0.138  0.00  0.00    +0.000 A 
ATOM     13  C   UNL     1       0.541   1.236   0.031  0.00  0.00    +0.000 A 
ATOM     14  C   UNL     1       1.812   0.695  -0.007  0.00  0.00    +0.003 A 
ATOM     15  C   UNL     1       1.984  -0.675   0.062  0.00  0.00    -0.049 A 
ATOM     16  C   UNL     1       0.883  -1.504   0.170  0.00  0.00    +0.003 A 
ATOM     17  C   UNL     1      -0.388  -0.964   0.207  0.00  0.00    +0.000 A 
ENDBRANCH  11  15
ENDBRANCH   2  11
ENDBRANCH   1   4
BRANCH   1  18
ATOM     18  C   UNL     1       6.936  -4.251   2.128  0.00  0.00    -0.059 A 
ATOM     19  C   UNL     1       5.820  -5.012   2.423  0.00  0.00    +0.002 A 
ATOM     20  C   UNL     1       5.665  -6.262   1.859  0.00  0.00    +0.009 A 
ATOM     21  C   UNL     1       6.636  -6.756   0.990  0.00  0.00    -0.014 A 
ATOM     22  C   UNL     1       7.758  -5.985   0.696  0.00  0.00    +0.009 A 
ATOM     23  C   UNL     1       7.900  -4.734   1.262  0.00  0.00    +0.002 A 
BRANCH  21  24
ATOM     24  C   UNL     1       6.475  -8.099   0.381  0.00  0.00    +0.024 A 
ATOM     25  C   UNL     1       6.169  -9.198   1.180  0.00  0.00    +0.012 A 
ATOM     26  C   UNL     1       6.020 -10.446   0.609  0.00  0.00    +0.001 A 
ATOM     27  C   UNL     1       6.175 -10.610  -0.757  0.00  0.00    +0.004 A 
ATOM     28  C   UNL     1       6.480  -9.526  -1.559  0.00  0.00    +0.046 A 
ATOM     29  C   UNL     1       6.625  -8.267  -0.999  0.00  0.00    +0.125 A 
BRANCH  29  30
ATOM     30  O   UNL     1       6.919  -7.200  -1.788  0.00  0.00    -0.506 OA
ATOM     31  H   UNL     1       7.867  -7.046  -1.903  0.00  0.00    +0.292 HD
ENDBRANCH  29  30
ENDBRANCH  21  24
ENDBRANCH   1  18
BRANCH   1  32
ATOM     32  C   UNL     1       7.631  -3.035   4.174  0.00  0.00    +0.091 C 
BRANCH  32  33
ATOM     33  N   UNL     1       8.964  -3.644   4.138  0.00  0.00    -0.342 N 
ATOM     34  H   UNL     1       9.396  -3.813   3.287  0.00  0.00    +0.146 HD
BRANCH  33  35
ATOM     35  C   UNL     1       9.612  -3.980   5.332  0.00  0.00    +0.069 A 
ATOM     36  C   UNL     1       8.992  -3.744   6.551  0.00  0.00    +0.026 A 
ATOM     37  C   UNL     1       9.634  -4.077   7.728  0.00  0.00    +0.002 A 
ATOM     38  C   UNL     1      10.894  -4.647   7.696  0.00  0.00    +0.004 A 
ATOM     39  C   UNL     1      11.518  -4.885   6.485  0.00  0.00    +0.047 A 
ATOM     40  C   UNL     1      10.879  -4.559   5.300  0.00  0.00    +0.138 A 
BRANCH  40  41
ATOM     41  O   UNL     1      11.489  -4.798   4.108  0.00  0.00    -0.505 OA
ATOM     42  H   UNL     1      12.033  -4.064   3.791  0.00  0.00    +0.292 HD
ENDBRANCH  40  41
ENDBRANCH  33  35
ENDBRANCH  32  33
ENDBRANCH   1  32
TORSDOF 10
