REMARK  Name = ZINC36309218
REMARK  13 active torsions:
REMARK  status: ('A' for Active; 'I' for Inactive)
REMARK    1  A    between atoms: C_1  and  C_2
REMARK    2  A    between atoms: C_2  and  N_3
REMARK    3  A    between atoms: N_3  and  C_4
REMARK    4  A    between atoms: N_3  and  C_16
REMARK    5  A    between atoms: C_4  and  C_5
REMARK    6  A    between atoms: C_5  and  C_7
REMARK    7  A    between atoms: C_5  and  O_15
REMARK    8  A    between atoms: C_7  and  O_8
REMARK    9  A    between atoms: O_8  and  C_9
REMARK   10  A    between atoms: C_16  and  C_17
REMARK   11  A    between atoms: C_27  and  C_29
REMARK   12  A    between atoms: C_29  and  O_30
REMARK   13  A    between atoms: O_30  and  C_31
REMARK                            x       y       z     vdW  Elec       q    Type
REMARK                         _______ _______ _______ _____ _____    ______ ____
ROOT
ATOM      1  C   UNL     1      -1.944   1.486  -1.141  0.00  0.00    +0.200 C 
ATOM      2  O   UNL     1      -1.428   2.100  -0.231  0.00  0.00    -0.278 OA
ATOM      3  N   UNL     1      -2.457   2.149  -2.196  0.00  0.00    -0.292 N 
ATOM      4  C   UNL     1      -3.091   1.415  -3.301  0.00  0.00    +0.113 C 
ATOM      5  C   UNL     1      -4.581   1.789  -3.338  0.00  0.00    +0.061 C 
ATOM      6  C   UNL     1      -4.708   3.265  -3.141  0.00  0.00    -0.004 A 
ATOM      7  C   UNL     1      -3.774   4.128  -2.659  0.00  0.00    -0.014 A 
ATOM      8  C   UNL     1      -4.148   5.467  -2.564  0.00  0.00    +0.013 A 
ATOM      9  C   UNL     1      -5.387   5.852  -2.948  0.00  0.00    +0.046 A 
ATOM     10  S   UNL     1      -6.106   4.304  -3.475  0.00  0.00    -0.101 S 
ATOM     11  C   UNL     1      -2.397   3.616  -2.255  0.00  0.00    +0.144 C 
ENDROOT
BRANCH   1  12
ATOM     12  C   UNL     1      -2.011  -0.019  -1.091  0.00  0.00    +0.019 C 
BRANCH  12  13
ATOM     13  N   UNL     1      -1.526  -0.488   0.214  0.00  0.00    +0.387 N 
ATOM     14  H   UNL     1      -0.615  -0.094   0.396  0.00  0.00    -0.081 HD
BRANCH  13  16
ATOM     15  C   UNL     1      -0.364  -2.390  -0.800  0.00  0.00    -0.017 C 
ATOM     16  C   UNL     1      -1.433  -1.954   0.204  0.00  0.00    -0.081 C 
ENDBRANCH  13  16
BRANCH  13  17
ATOM     17  C   UNL     1      -2.461  -0.064   1.265  0.00  0.00    -0.043 C 
BRANCH  17  18
ATOM     18  C   UNL     1      -1.895  -0.443   2.635  0.00  0.00    +0.135 C 
BRANCH  18  19
ATOM     19  O   UNL     1      -0.695   0.296   2.875  0.00  0.00    -0.390 OA
ATOM     20  H   UNL     1      -0.817   1.255   2.872  0.00  0.00    +0.210 HD
ENDBRANCH  18  19
BRANCH  18  21
ATOM     21  C   UNL     1      -2.922  -0.115   3.720  0.00  0.00    +0.258 C 
BRANCH  21  22
ATOM     22  O   UNL     1      -2.442  -0.575   4.985  0.00  0.00    -0.489 OA
BRANCH  22  23
ATOM     23  C   UNL     1      -3.241  -0.360   6.063  0.00  0.00    +0.121 A 
ATOM     24  C   UNL     1      -4.464   0.275   5.906  0.00  0.00    +0.045 A 
ATOM     25  C   UNL     1      -5.275   0.491   7.004  0.00  0.00    +0.004 A 
ATOM     26  C   UNL     1      -4.867   0.076   8.258  0.00  0.00    +0.000 A 
ATOM     27  C   UNL     1      -3.648  -0.556   8.417  0.00  0.00    +0.004 A 
ATOM     28  C   UNL     1      -2.837  -0.781   7.322  0.00  0.00    +0.045 A 
ENDBRANCH  22  23
ENDBRANCH  21  22
ENDBRANCH  18  21
ENDBRANCH  17  18
ENDBRANCH  13  17
ENDBRANCH  12  13
ENDBRANCH   1  12
BRANCH  11  29
ATOM     29  C   UNL     1      -1.362   4.050  -3.294  0.00  0.00    +0.256 C 
BRANCH  29  30
ATOM     30  O   UNL     1      -1.791   3.640  -4.594  0.00  0.00    -0.490 OA
BRANCH  30  31
ATOM     31  C   UNL     1      -0.978   3.951  -5.638  0.00  0.00    +0.123 A 
ATOM     32  C   UNL     1       0.210   4.632  -5.415  0.00  0.00    +0.046 A 
ATOM     33  C   UNL     1       1.035   4.947  -6.478  0.00  0.00    +0.006 A 
ATOM     34  C   UNL     1       0.678   4.585  -7.763  0.00  0.00    +0.038 A 
ATOM     35  C   UNL     1      -0.507   3.906  -7.990  0.00  0.00    +0.127 A 
ATOM     36  C   UNL     1      -1.333   3.584  -6.928  0.00  0.00    +0.084 A 
ATOM     37  F   UNL     1      -0.854   3.554  -9.247  0.00  0.00    -0.205 F 
ENDBRANCH  30  31
ENDBRANCH  29  30
ENDBRANCH  11  29
TORSDOF 12
