REMARK  Name = ZINC35173650
REMARK  18 active torsions:
REMARK  status: ('A' for Active; 'I' for Inactive)
REMARK    1  A    between atoms: C_1  and  C_2
REMARK    2  A    between atoms: C_2  and  N_3
REMARK    3  A    between atoms: N_3  and  C_4
REMARK    4  A    between atoms: N_3  and  C_6
REMARK    5  A    between atoms: C_4  and  C_5
REMARK    6  A    between atoms: C_6  and  C_7
REMARK    7  A    between atoms: C_7  and  C_8
REMARK    8  A    between atoms: C_8  and  C_9
REMARK    9  A    between atoms: C_9  and  C_11
REMARK   10  A    between atoms: C_9  and  N_12
REMARK   11  A    between atoms: C_13  and  C_15
REMARK   12  A    between atoms: C_15  and  C_16
REMARK   13  A    between atoms: C_16  and  C_17
REMARK   14  A    between atoms: C_17  and  S_18
REMARK   15  A    between atoms: S_18  and  C_19
REMARK   16  A    between atoms: C_22  and  C_30
REMARK   17  A    between atoms: N_23  and  C_24
REMARK   18  A    between atoms: C_33  and  N_36
REMARK                            x       y       z     vdW  Elec       q    Type
REMARK                         _______ _______ _______ _____ _____    ______ ____
ROOT
ATOM      1  C   UNL     1     -10.984  -3.285  -5.909  0.00  0.00    +0.196 A 
ATOM      2  N   UNL     1     -10.156  -3.181  -6.924  0.00  0.00    -0.122 NA
ATOM      3  N   UNL     1     -10.811  -2.969  -8.009  0.00  0.00    -0.128 NA
ATOM      4  C   UNL     1     -12.099  -2.925  -7.755  0.00  0.00    +0.169 A 
ATOM      5  N   UNL     1     -12.251  -3.132  -6.402  0.00  0.00    -0.270 N 
ENDROOT
BRANCH   5   6
ATOM      6  C   UNL     1     -13.452  -3.174  -5.680  0.00  0.00    +0.051 A 
ATOM      7  C   UNL     1     -14.369  -4.189  -5.915  0.00  0.00    +0.026 A 
ATOM      8  C   UNL     1     -15.552  -4.229  -5.202  0.00  0.00    +0.002 A 
ATOM      9  C   UNL     1     -15.822  -3.258  -4.256  0.00  0.00    +0.000 A 
ATOM     10  C   UNL     1     -14.911  -2.245  -4.019  0.00  0.00    +0.002 A 
ATOM     11  C   UNL     1     -13.724  -2.204  -4.725  0.00  0.00    +0.026 A 
ENDBRANCH   5   6
BRANCH   4  12
ATOM     12  C   UNL     1     -13.181  -2.701  -8.737  0.00  0.00    +0.020 A 
ATOM     13  C   UNL     1     -14.463  -2.363  -8.302  0.00  0.00    +0.014 A 
ATOM     14  C   UNL     1     -15.469  -2.155  -9.224  0.00  0.00    +0.033 A 
ATOM     15  C   UNL     1     -15.208  -2.282 -10.576  0.00  0.00    +0.126 A 
ATOM     16  C   UNL     1     -13.939  -2.618 -11.014  0.00  0.00    +0.033 A 
ATOM     17  C   UNL     1     -12.923  -2.822 -10.104  0.00  0.00    +0.014 A 
BRANCH  15  18
ATOM     18  N   UNL     1     -16.292  -2.058 -11.560  0.00  0.00    +0.056 N 
ATOM     19  O   UNL     1     -17.402  -1.765 -11.180  0.00  0.00    -0.126 OA
ATOM     20  O   UNL     1     -16.067  -2.168 -12.743  0.00  0.00    -0.126 OA
ENDBRANCH  15  18
ENDBRANCH   4  12
BRANCH   1  21
ATOM     21  S   UNL     1     -10.544  -3.576  -4.227  0.00  0.00    -0.086 S 
BRANCH  21  22
ATOM     22  C   UNL     1      -8.734  -3.679  -4.258  0.00  0.00    +0.078 C 
BRANCH  22  23
ATOM     23  C   UNL     1      -8.213  -3.933  -2.842  0.00  0.00    +0.020 C 
BRANCH  23  24
ATOM     24  C   UNL     1      -6.686  -4.020  -2.869  0.00  0.00    +0.096 C 
BRANCH  24  26
ATOM     25  N   UNL     1      -4.848  -4.384  -1.254  0.00  0.00    -0.313 N 
ATOM     26  C   UNL     1      -6.173  -4.271  -1.474  0.00  0.00    +0.213 C 
ATOM     27  O   UNL     1      -6.952  -4.370  -0.550  0.00  0.00    -0.276 OA
ATOM     28  H   UNL     1      -4.225  -4.305  -1.993  0.00  0.00    +0.149 HD
BRANCH  25  29
ATOM     29  C   UNL     1      -4.349  -4.628   0.102  0.00  0.00    +0.070 C 
ATOM     30  C   UNL     1      -4.378  -6.129   0.395  0.00  0.00    +0.028 C 
BRANCH  29  31
ATOM     31  C   UNL     1      -2.913  -4.113   0.217  0.00  0.00    +0.020 C 
BRANCH  31  32
ATOM     32  C   UNL     1      -2.901  -2.592   0.048  0.00  0.00    -0.017 C 
BRANCH  32  33
ATOM     33  C   UNL     1      -1.464  -2.078   0.163  0.00  0.00    -0.079 C 
BRANCH  33  34
ATOM     34  N   UNL     1      -1.438  -0.634  -0.108  0.00  0.00    +0.379 N 
ATOM     35  H   UNL     1      -1.863  -0.453  -1.004  0.00  0.00    -0.082 HD
BRANCH  34  37
ATOM     36  C   UNL     1      -2.263   1.562   0.594  0.00  0.00    -0.017 C 
ATOM     37  C   UNL     1      -2.184   0.074   0.941  0.00  0.00    -0.082 C 
ENDBRANCH  34  37
BRANCH  34  38
ATOM     38  C   UNL     1      -0.046  -0.164  -0.121  0.00  0.00    -0.082 C 
ATOM     39  C   UNL     1       0.689  -0.780  -1.313  0.00  0.00    -0.017 C 
ENDBRANCH  34  38
ENDBRANCH  33  34
ENDBRANCH  32  33
ENDBRANCH  31  32
ENDBRANCH  29  31
ENDBRANCH  25  29
ENDBRANCH  24  26
ENDBRANCH  23  24
ENDBRANCH  22  23
ENDBRANCH  21  22
ENDBRANCH   1  21
TORSDOF 15
