REMARK  Name = ZINC09359244
REMARK  7 active torsions:
REMARK  status: ('A' for Active; 'I' for Inactive)
REMARK    1  A    between atoms: C_1  and  C_2
REMARK    2  A    between atoms: C_2  and  C_3
REMARK    3  A    between atoms: C_3  and  C_4
REMARK    4  A    between atoms: C_4  and  N_5
REMARK    5  A    between atoms: N_15  and  C_16
REMARK    6  A    between atoms: C_16  and  C_18
REMARK    7  A    between atoms: C_18  and  C_19
REMARK                            x       y       z     vdW  Elec       q    Type
REMARK                         _______ _______ _______ _____ _____    ______ ____
ROOT
ATOM      1  N   UNL     1      -2.781  -2.584   0.015  0.00  0.00    -0.312 N 
ATOM      2  C   UNL     1      -3.535  -2.869   1.148  0.00  0.00    +0.068 A 
ATOM      3  C   UNL     1      -3.271  -2.787   2.508  0.00  0.00    +0.028 A 
ATOM      4  C   UNL     1      -4.241  -3.148   3.421  0.00  0.00    +0.002 A 
ATOM      5  C   UNL     1      -5.478  -3.594   2.986  0.00  0.00    +0.002 A 
ATOM      6  C   UNL     1      -5.751  -3.680   1.635  0.00  0.00    +0.028 A 
ATOM      7  C   UNL     1      -4.783  -3.319   0.709  0.00  0.00    +0.066 A 
ATOM      8  N   UNL     1      -4.760  -3.297  -0.681  0.00  0.00    -0.326 N 
ATOM      9  H   UNL     1      -5.489  -3.556  -1.266  0.00  0.00    +0.169 HD
ATOM     10  C   UNL     1      -3.542  -2.844  -1.081  0.00  0.00    +0.201 A 
ATOM     11  N   UNL     1      -3.156  -2.685  -2.344  0.00  0.00    -0.146 NA
ENDROOT
BRANCH  11  12
ATOM     12  C   UNL     1      -3.949  -3.075  -3.336  0.00  0.00    +0.250 C 
ATOM     13  O   UNL     1      -5.066  -3.490  -3.094  0.00  0.00    -0.273 OA
BRANCH  12  14
ATOM     14  C   UNL     1      -3.464  -3.004  -4.761  0.00  0.00    +0.222 C 
BRANCH  14  15
ATOM     15  C   UNL     1      -4.546  -3.501  -5.685  0.00  0.00    +0.365 C 
ATOM     16  O   UNL     1      -5.612  -3.877  -5.229  0.00  0.00    -0.246 OA
ATOM     17  O   UNL     1      -4.355  -3.526  -6.889  0.00  0.00    -0.246 OA
ENDBRANCH  14  15
ENDBRANCH  12  14
ENDBRANCH  11  12
BRANCH   1  18
ATOM     18  C   UNL     1      -1.404  -2.084   0.004  0.00  0.00    +0.125 C 
BRANCH  18  19
ATOM     19  C   UNL     1      -1.418  -0.554   0.020  0.00  0.00    +0.021 C 
BRANCH  19  21
ATOM     20  C   UNL     1       0.007   1.499   0.025  0.00  0.00    +0.004 C 
ATOM     21  C   UNL     1       0.020  -0.031   0.008  0.00  0.00    -0.002 C 
ENDBRANCH  19  21
ENDBRANCH  18  19
ENDBRANCH   1  18
TORSDOF 6
