REMARK  Name = ZINC09156205
REMARK  8 active torsions:
REMARK  status: ('A' for Active; 'I' for Inactive)
REMARK    1  A    between atoms: C_1  and  C_2
REMARK    2  A    between atoms: C_6  and  N_9
REMARK    3  A    between atoms: C_7  and  C_8
REMARK    4  A    between atoms: C_10  and  C_12
REMARK    5  A    between atoms: C_12  and  N_13
REMARK    6  A    between atoms: C_14  and  C_16
REMARK    7  A    between atoms: C_16  and  N_17
REMARK    8  A    between atoms: C_28  and  C_32
REMARK                            x       y       z     vdW  Elec       q    Type
REMARK                         _______ _______ _______ _____ _____    ______ ____
ROOT
ATOM      1  N   UNL     1      -6.854  -0.351   0.622  0.00  0.00    -0.305 N 
ATOM      2  C   UNL     1      -5.578  -0.742   0.438  0.00  0.00    +0.233 C 
ATOM      3  O   UNL     1      -5.170  -0.976  -0.680  0.00  0.00    -0.274 OA
ATOM      4  H   UNL     1      -7.180  -0.164   1.516  0.00  0.00    +0.149 HD
ENDROOT
BRANCH   1   5
ATOM      5  C   UNL     1      -7.750  -0.208  -0.529  0.00  0.00    +0.200 C 
BRANCH   5   7
ATOM      6  N   UNL     1     -10.101   0.436  -0.946  0.00  0.00    -0.284 N 
ATOM      7  C   UNL     1      -9.109   0.238  -0.056  0.00  0.00    +0.234 C 
ATOM      8  O   UNL     1      -9.310   0.418   1.127  0.00  0.00    -0.274 OA
ATOM      9  H   UNL     1      -9.921   0.370  -1.897  0.00  0.00    +0.155 HD
BRANCH   6  15
ATOM     10  C   UNL     1     -14.499   2.474  -1.773  0.00  0.00    +0.044 C 
ATOM     11  C   UNL     1     -13.545   1.724  -0.879  0.00  0.00    -0.046 A 
ATOM     12  C   UNL     1     -13.947   1.331   0.385  0.00  0.00    +0.004 A 
ATOM     13  C   UNL     1     -13.075   0.642   1.208  0.00  0.00    +0.002 A 
ATOM     14  C   UNL     1     -11.799   0.344   0.769  0.00  0.00    +0.023 A 
ATOM     15  C   UNL     1     -11.393   0.737  -0.499  0.00  0.00    +0.037 A 
ATOM     16  C   UNL     1     -12.269   1.433  -1.321  0.00  0.00    -0.026 A 
ATOM     17  C   UNL     1     -11.830   1.867  -2.696  0.00  0.00    +0.046 C 
ENDBRANCH   6  15
ENDBRANCH   5   7
ENDBRANCH   1   5
BRANCH   2  18
ATOM     18  C   UNL     1      -4.657  -0.889   1.621  0.00  0.00    +0.221 C 
BRANCH  18  19
ATOM     19  N   UNL     1      -3.335  -1.322   1.161  0.00  0.00    -0.290 N 
ATOM     20  C   UNL     1      -3.085  -2.651   1.075  0.00  0.00    +0.203 A 
ATOM     21  N   UNL     1      -1.931  -3.138   0.674  0.00  0.00    -0.230 NA
ATOM     22  C   UNL     1      -0.983  -2.267   0.342  0.00  0.00    +0.116 A 
ATOM     23  C   UNL     1      -1.147  -0.866   0.398  0.00  0.00    +0.076 A 
ATOM     24  C   UNL     1      -2.421  -0.376   0.841  0.00  0.00    +0.263 A 
ATOM     25  O   UNL     1      -2.665   0.816   0.924  0.00  0.00    -0.267 OA
ATOM     26  C   UNL     1      -0.001  -0.070  -0.003  0.00  0.00    -0.023 A 
ATOM     27  C   UNL     1       1.105  -0.749  -0.389  0.00  0.00    -0.004 A 
ATOM     28  S   UNL     1       0.673  -2.464  -0.236  0.00  0.00    -0.073 S 
ATOM     29  C   UNL     1       2.410  -0.174  -0.846  0.00  0.00    +0.046 C 
ATOM     30  C   UNL     1       2.200   1.312  -1.169  0.00  0.00    -0.009 C 
ATOM     31  C   UNL     1       1.432   1.962  -0.015  0.00  0.00    +0.008 C 
ATOM     32  C   UNL     1      -0.011   1.456  -0.001  0.00  0.00    +0.037 C 
ATOM     33  C   UNL     1       3.557   1.998  -1.338  0.00  0.00    +0.008 C 
ENDBRANCH  18  19
ENDBRANCH   2  18
TORSDOF 5
