REMARK  Name = ZINC40036576
REMARK  11 active torsions:
REMARK  status: ('A' for Active; 'I' for Inactive)
REMARK    1  A    between atoms: C_1  and  C_2
REMARK    2  A    between atoms: C_2  and  C_3
REMARK    3  A    between atoms: C_3  and  C_4
REMARK    4  A    between atoms: C_4  and  C_39
REMARK    5  A    between atoms: N_16  and  C_37
REMARK    6  A    between atoms: N_19  and  N_20
REMARK    7  A    between atoms: C_21  and  C_22
REMARK    8  A    between atoms: C_26  and  O_28
REMARK    9  A    between atoms: O_28  and  C_29
REMARK   10  A    between atoms: C_29  and  C_30
REMARK   11  A    between atoms: C_37  and  C_38
REMARK                            x       y       z     vdW  Elec       q    Type
REMARK                         _______ _______ _______ _____ _____    ______ ____
ROOT
ATOM      1  C   UNL     1       0.763  -2.041   1.233  0.00  0.00    +0.004 C 
ATOM      2  C   UNL     1       1.699  -2.213   2.427  0.00  0.00    +0.047 C 
ATOM      3  C   UNL     1       0.969  -1.946   3.715  0.00  0.00    -0.037 A 
ATOM      4  C   UNL     1       1.614  -1.336   4.771  0.00  0.00    +0.004 A 
ATOM      5  C   UNL     1       0.936  -1.097   5.953  0.00  0.00    +0.000 A 
ATOM      6  C   UNL     1      -0.391  -1.468   6.087  0.00  0.00    +0.001 A 
ATOM      7  C   UNL     1      -1.048  -2.078   5.037  0.00  0.00    +0.010 A 
ATOM      8  C   UNL     1      -0.370  -2.317   3.845  0.00  0.00    +0.004 A 
ATOM      9  C   UNL     1      -1.051  -2.960   2.699  0.00  0.00    +0.084 A 
ATOM     10  C   UNL     1      -0.500  -2.830   1.433  0.00  0.00    +0.049 A 
ATOM     11  C   UNL     1      -1.141  -3.447   0.350  0.00  0.00    +0.260 A 
ATOM     12  O   UNL     1      -0.685  -3.357  -0.778  0.00  0.00    -0.267 OA
ATOM     13  N   UNL     1      -2.275  -4.143   0.582  0.00  0.00    -0.280 N 
ATOM     14  C   UNL     1      -2.778  -4.234   1.845  0.00  0.00    +0.219 A 
ATOM     15  N   UNL     1      -2.180  -3.658   2.867  0.00  0.00    -0.214 NA
ATOM     16  N   UNL     1      -3.933  -4.941   2.056  0.00  0.00    -0.206 N 
ATOM     17  C   UNL     1       1.468  -2.529  -0.034  0.00  0.00    +0.017 C 
ATOM     18  H   UNL     1      -4.383  -5.370   1.311  0.00  0.00    +0.177 HD
ENDROOT
BRANCH  16  19
ATOM     19  N   UNL     1      -4.464  -5.045   3.348  0.00  0.00    -0.188 NA
ATOM     20  C   UNL     1      -5.558  -5.715   3.549  0.00  0.00    +0.138 C 
BRANCH  20  21
ATOM     21  C   UNL     1      -6.117  -5.825   4.909  0.00  0.00    -0.002 A 
ATOM     22  C   UNL     1      -5.474  -5.204   5.983  0.00  0.00    +0.010 A 
ATOM     23  C   UNL     1      -6.001  -5.309   7.254  0.00  0.00    +0.004 A 
ATOM     24  C   UNL     1      -7.163  -6.027   7.469  0.00  0.00    +0.046 A 
ATOM     25  C   UNL     1      -7.808  -6.648   6.408  0.00  0.00    +0.122 A 
ATOM     26  C   UNL     1      -7.293  -6.544   5.127  0.00  0.00    +0.055 A 
BRANCH  25  27
ATOM     27  O   UNL     1      -8.949  -7.353   6.627  0.00  0.00    -0.487 OA
BRANCH  27  28
ATOM     28  C   UNL     1      -9.428  -7.412   7.972  0.00  0.00    +0.267 C 
BRANCH  28  29
ATOM     29  C   UNL     1     -10.693  -8.230   8.019  0.00  0.00    +0.025 A 
ATOM     30  C   UNL     1     -11.200  -8.786   6.860  0.00  0.00    +0.010 A 
ATOM     31  C   UNL     1     -12.361  -9.536   6.903  0.00  0.00    +0.001 A 
ATOM     32  C   UNL     1     -13.015  -9.731   8.105  0.00  0.00    +0.003 A 
ATOM     33  C   UNL     1     -12.509  -9.176   9.265  0.00  0.00    +0.039 A 
ATOM     34  C   UNL     1     -11.344  -8.429   9.224  0.00  0.00    +0.130 A 
ATOM     35  F   UNL     1     -10.846  -7.890  10.359  0.00  0.00    -0.205 F 
ENDBRANCH  28  29
ENDBRANCH  27  28
ENDBRANCH  25  27
ENDBRANCH  20  21
ENDBRANCH  16  19
BRANCH  13  36
ATOM     36  C   UNL     1      -2.967  -4.801  -0.528  0.00  0.00    +0.125 C 
ATOM     37  C   UNL     1      -2.430  -6.225  -0.692  0.00  0.00    +0.027 C 
ENDBRANCH  13  36
BRANCH   1  38
ATOM     38  C   UNL     1       0.412  -0.560   1.077  0.00  0.00    +0.011 C 
BRANCH  38  40
ATOM     39  C   UNL     1      -0.854   1.103  -0.292  0.00  0.00    +0.004 C 
ATOM     40  C   UNL     1      -0.504  -0.378  -0.135  0.00  0.00    -0.003 C 
ENDBRANCH  38  40
ENDBRANCH   1  38
TORSDOF 8
