REMARK  Name = ZINC23006552
REMARK  10 active torsions:
REMARK  status: ('A' for Active; 'I' for Inactive)
REMARK    1  A    between atoms: C_1  and  N_2
REMARK    2  A    between atoms: N_2  and  C_3
REMARK    3  A    between atoms: N_2  and  C_4
REMARK    4  A    between atoms: C_4  and  C_5
REMARK    5  A    between atoms: C_5  and  C_6
REMARK    6  A    between atoms: C_6  and  N_7
REMARK    7  A    between atoms: C_16  and  S_17
REMARK    8  A    between atoms: S_17  and  C_18
REMARK    9  A    between atoms: C_18  and  C_19
REMARK   10  A    between atoms: C_21  and  C_24
REMARK                            x       y       z     vdW  Elec       q    Type
REMARK                         _______ _______ _______ _____ _____    ______ ____
ROOT
ATOM      1  N   UNL     1       4.402   0.073  -0.040  0.00  0.00    -0.287 N 
ATOM      2  C   UNL     1       3.688   1.223  -0.026  0.00  0.00    +0.263 A 
ATOM      3  O   UNL     1       4.224   2.318  -0.025  0.00  0.00    -0.267 OA
ATOM      4  C   UNL     1       2.263   1.074  -0.013  0.00  0.00    +0.076 A 
ATOM      5  C   UNL     1       1.278   2.143   0.001  0.00  0.00    -0.023 A 
ATOM      6  C   UNL     1      -0.022   1.771   0.012  0.00  0.00    -0.004 A 
ATOM      7  S   UNL     1       0.002  -0.004   0.002  0.00  0.00    -0.073 S 
ATOM      8  C   UNL     1       1.751  -0.243  -0.016  0.00  0.00    +0.117 A 
ATOM      9  N   UNL     1       2.508  -1.333  -0.029  0.00  0.00    -0.216 NA
ATOM     10  C   UNL     1       3.823  -1.159  -0.041  0.00  0.00    +0.173 A 
ATOM     11  C   UNL     1      -1.222   2.667   0.034  0.00  0.00    +0.043 C 
ATOM     12  C   UNL     1      -0.767   4.084   0.403  0.00  0.00    +0.005 C 
ATOM     13  C   UNL     1       0.456   4.447  -0.445  0.00  0.00    +0.005 C 
ATOM     14  C   UNL     1       1.662   3.621   0.004  0.00  0.00    +0.037 C 
ENDROOT
BRANCH   1  15
ATOM     15  C   UNL     1       5.865   0.158  -0.054  0.00  0.00    +0.125 C 
BRANCH  15  16
ATOM     16  C   UNL     1       6.388   0.180   1.383  0.00  0.00    +0.003 C 
BRANCH  16  17
ATOM     17  C   UNL     1       7.916   0.269   1.368  0.00  0.00    -0.078 C 
BRANCH  17  19
ATOM     18  C   UNL     1       8.149  -0.986   3.426  0.00  0.00    -0.097 C 
ATOM     19  N   UNL     1       8.418   0.289   2.748  0.00  0.00    +0.376 N 
ATOM     20  C   UNL     1       9.851   0.611   2.782  0.00  0.00    -0.097 C 
ATOM     21  H   UNL     1       7.881   1.081   3.292  0.00  0.00    -0.083 HD
ENDBRANCH  17  19
ENDBRANCH  16  17
ENDBRANCH  15  16
ENDBRANCH   1  15
BRANCH  10  22
ATOM     22  S   UNL     1       4.863  -2.582  -0.059  0.00  0.00    -0.080 S 
BRANCH  22  23
ATOM     23  C   UNL     1       3.609  -3.888  -0.054  0.00  0.00    +0.157 C 
BRANCH  23  24
ATOM     24  C   UNL     1       4.286  -5.234  -0.069  0.00  0.00    +0.182 A 
ATOM     25  N   UNL     1       4.627  -5.938  -1.159  0.00  0.00    -0.191 NA
ATOM     26  C   UNL     1       5.192  -7.045  -0.704  0.00  0.00    +0.259 A 
ATOM     27  O   UNL     1       5.162  -6.967   0.636  0.00  0.00    -0.333 OA
ATOM     28  N   UNL     1       4.641  -5.926   0.974  0.00  0.00    -0.060 NA
BRANCH  26  29
ATOM     29  C   UNL     1       5.741  -8.149  -1.511  0.00  0.00    +0.046 A 
ATOM     30  C   UNL     1       6.334  -9.306  -0.891  0.00  0.00    +0.021 A 
ATOM     31  C   UNL     1       6.805 -10.266  -1.714  0.00  0.00    +0.046 A 
ATOM     32  S   UNL     1       6.463  -9.607  -3.332  0.00  0.00    -0.104 S 
ATOM     33  C   UNL     1       5.714  -8.113  -2.878  0.00  0.00    +0.058 A 
ENDBRANCH  26  29
ENDBRANCH  23  24
ENDBRANCH  22  23
ENDBRANCH  10  22
TORSDOF 8
