REMARK  Name = ZINC28902890
REMARK  3 active torsions:
REMARK  status: ('A' for Active; 'I' for Inactive)
REMARK    1  A    between atoms: C_3  and  N_23
REMARK    2  A    between atoms: C_4  and  C_15
REMARK    3  A    between atoms: C_11  and  C_12
REMARK                            x       y       z     vdW  Elec       q    Type
REMARK                         _______ _______ _______ _____ _____    ______ ____
ROOT
ATOM      1  C   UNL     1       0.412   1.226  -1.116  0.00  0.00    +0.033 A 
ATOM      2  C   UNL     1       1.398   2.036  -0.495  0.00  0.00    +0.028 A 
ATOM      3  C   UNL     1       1.650   3.455  -0.725  0.00  0.00    +0.053 A 
ATOM      4  C   UNL     1       2.674   4.010   0.013  0.00  0.00    +0.097 A 
ATOM      5  S   UNL     1       3.268   2.641   0.981  0.00  0.00    -0.064 S 
ATOM      6  C   UNL     1       2.240   1.431   0.451  0.00  0.00    +0.090 A 
ATOM      7  N   UNL     1       2.145   0.116   0.787  0.00  0.00    -0.316 N 
ATOM      8  H   UNL     1       2.752  -0.253   1.447  0.00  0.00    +0.169 HD
ATOM      9  C   UNL     1       1.221  -0.683   0.217  0.00  0.00    +0.264 A 
ATOM     10  O   UNL     1       1.146  -1.858   0.526  0.00  0.00    -0.267 OA
ATOM     11  C   UNL     1       0.308  -0.117  -0.778  0.00  0.00    +0.128 A 
ENDROOT
BRANCH   4  12
ATOM     12  C   UNL     1       3.141   5.345   0.002  0.00  0.00    +0.255 C 
ATOM     13  O   UNL     1       2.350   6.266  -0.090  0.00  0.00    -0.269 OA
ATOM     14  N   UNL     1       4.462   5.598   0.092  0.00  0.00    -0.297 N 
ATOM     15  C   UNL     1       5.438   4.499   0.073  0.00  0.00    +0.108 C 
ATOM     16  C   UNL     1       6.472   4.777  -1.022  0.00  0.00    +0.019 C 
ATOM     17  C   UNL     1       7.087   6.160  -0.798  0.00  0.00    +0.003 C 
ATOM     18  C   UNL     1       5.993   7.227  -0.884  0.00  0.00    +0.019 C 
ATOM     19  C   UNL     1       4.954   6.977   0.207  0.00  0.00    +0.108 C 
ENDBRANCH   4  12
BRANCH  11  20
ATOM     20  C   UNL     1      -0.707  -0.961  -1.413  0.00  0.00    +0.392 C 
ATOM     21  O   UNL     1      -1.468  -0.483  -2.245  0.00  0.00    -0.240 OA
ATOM     22  O   UNL     1      -0.795  -2.144  -1.112  0.00  0.00    -0.240 OA
ENDBRANCH  11  20
BRANCH   3  23
ATOM     23  N   UNL     1       0.906   4.199  -1.628  0.00  0.00    -0.356 N 
ATOM     24  H   UNL     1       0.192   3.778  -2.132  0.00  0.00    +0.142 HD
ATOM     25  H   UNL     1       1.100   5.141  -1.757  0.00  0.00    +0.142 HD
ENDBRANCH   3  23
TORSDOF 3
