REMARK  Name = ZINC40372849
REMARK  6 active torsions:
REMARK  status: ('A' for Active; 'I' for Inactive)
REMARK    1  A    between atoms: C_1  and  C_2
REMARK    2  A    between atoms: C_3  and  C_8
REMARK    3  A    between atoms: N_6  and  C_7
REMARK    4  A    between atoms: N_10  and  C_11
REMARK    5  A    between atoms: C_11  and  C_18
REMARK    6  A    between atoms: N_19  and  O_20
REMARK                            x       y       z     vdW  Elec       q    Type
REMARK                         _______ _______ _______ _____ _____    ______ ____
ROOT
ATOM      1  C   UNL     1       0.042  -0.743  -4.879  0.00  0.00    +0.093 C 
ATOM      2  C   UNL     1      -1.155   0.169  -4.899  0.00  0.00    +0.033 C 
ATOM      3  C   UNL     1      -2.275  -0.307  -3.954  0.00  0.00    +0.002 C 
ATOM      4  C   UNL     1      -2.491  -1.831  -4.005  0.00  0.00    +0.000 C 
ATOM      5  C   UNL     1      -2.435  -2.374  -5.407  0.00  0.00    +0.000 C 
ATOM      6  C   UNL     1      -0.998  -2.858  -5.688  0.00  0.00    +0.002 C 
ATOM      7  C   UNL     1      -0.100  -1.763  -6.027  0.00  0.00    +0.033 C 
ENDROOT
BRANCH   1   8
ATOM      8  C   UNL     1       1.301   0.063  -5.071  0.00  0.00    +0.155 C 
ATOM      9  N   UNL     1       2.057  -0.154  -6.096  0.00  0.00    -0.075 NA
ATOM     10  N   UNL     1       1.646   1.031  -4.154  0.00  0.00    -0.342 N 
ATOM     11  H   UNL     1       1.043   1.244  -3.424  0.00  0.00    +0.144 HD
ATOM     12  H   UNL     1       2.491   1.499  -4.237  0.00  0.00    +0.144 HD
BRANCH   9  13
ATOM     13  O   UNL     1       3.240   0.603  -6.276  0.00  0.00    -0.408 OA
ATOM     14  H   UNL     1       3.739   0.369  -7.071  0.00  0.00    +0.328 HD
ENDBRANCH   9  13
ENDBRANCH   1   8
BRANCH   1  17
ATOM     15  C   UNL     1       1.046  -2.387  -3.387  0.00  0.00    +0.248 C 
ATOM     16  O   UNL     1       1.794  -2.710  -4.290  0.00  0.00    -0.270 OA
ATOM     17  N   UNL     1       0.101  -1.450  -3.597  0.00  0.00    -0.299 N 
ATOM     18  H   UNL     1      -0.540  -1.243  -2.899  0.00  0.00    +0.150 HD
BRANCH  15  21
ATOM     19  C   UNL     1       3.144  -4.596  -2.592  0.00  0.00    +0.066 C 
ATOM     20  C   UNL     1       2.090  -3.990  -1.702  0.00  0.00    +0.048 A 
ATOM     21  C   UNL     1       1.174  -3.021  -2.062  0.00  0.00    +0.077 A 
ATOM     22  C   UNL     1       0.384  -2.751  -0.923  0.00  0.00    +0.147 A 
ATOM     23  N   UNL     1       0.804  -3.511   0.050  0.00  0.00    -0.179 NA
ATOM     24  N   UNL     1       1.865  -4.296  -0.414  0.00  0.00    -0.271 N 
ATOM     25  C   UNL     1       2.607  -5.285   0.372  0.00  0.00    +0.172 C 
ENDBRANCH  15  21
ENDBRANCH   1  17
TORSDOF 4
