REMARK  Name = ZINC08586264
REMARK  11 active torsions:
REMARK  status: ('A' for Active; 'I' for Inactive)
REMARK    1  A    between atoms: C_1  and  C_2
REMARK    2  A    between atoms: C_2  and  C_3
REMARK    3  A    between atoms: C_3  and  C_5
REMARK    4  A    between atoms: C_3  and  N_63
REMARK    5  A    between atoms: N_9  and  C_10
REMARK    6  A    between atoms: C_15  and  C_16
REMARK    7  A    between atoms: C_15  and  N_63
REMARK    8  A    between atoms: C_21  and  C_22
REMARK    9  A    between atoms: C_21  and  N_63
REMARK   10  A    between atoms: C_26  and  C_33
REMARK   11  A    between atoms: C_31  and  O_32
REMARK                            x       y       z     vdW  Elec       q    Type
REMARK                         _______ _______ _______ _____ _____    ______ ____
ROOT
ATOM      1  N   UNL     1       2.645  -1.077  -0.680  0.00  0.00    +0.392 N 
ATOM      2  H   UNL     1       3.253  -0.358  -0.271  0.00  0.00    -0.080 HD
ENDROOT
BRANCH   1   3
ATOM      3  C   UNL     1       1.776  -1.631   0.380  0.00  0.00    +0.003 C 
BRANCH   3   4
ATOM      4  C   UNL     1       2.563  -1.692   1.664  0.00  0.00    +0.138 A 
ATOM      5  N   UNL     1       3.773  -2.170   1.819  0.00  0.00    -0.115 NA
ATOM      6  N   UNL     1       4.095  -2.044   3.060  0.00  0.00    -0.023 NA
ATOM      7  N   UNL     1       3.122  -1.498   3.701  0.00  0.00    -0.044 NA
ATOM      8  N   UNL     1       2.158  -1.265   2.875  0.00  0.00    -0.228 N 
BRANCH   8   9
ATOM      9  C   UNL     1       0.867  -0.652   3.195  0.00  0.00    +0.111 C 
ATOM     10  C   UNL     1       1.083   0.744   3.813  0.00  0.00    +0.027 C 
ATOM     11  C   UNL     1      -0.020   0.855   4.896  0.00  0.00    +0.002 C 
ATOM     12  C   UNL     1      -0.073  -0.580   5.479  0.00  0.00    +0.002 C 
ATOM     13  C   UNL     1       0.132  -1.494   4.253  0.00  0.00    +0.027 C 
ENDBRANCH   8   9
ENDBRANCH   3   4
BRANCH   3  15
ATOM     14  C   UNL     1       0.412  -2.962  -1.237  0.00  0.00    +0.002 C 
ATOM     15  C   UNL     1       1.305  -3.037   0.004  0.00  0.00    -0.011 C 
ENDBRANCH   3  15
ENDBRANCH   1   3
BRANCH   1  16
ATOM     16  C   UNL     1       1.819  -0.462  -1.740  0.00  0.00    -0.034 C 
BRANCH  16  17
ATOM     17  C   UNL     1       1.359   0.893  -1.267  0.00  0.00    -0.027 A 
ATOM     18  C   UNL     1       1.937   2.104  -1.455  0.00  0.00    +0.009 A 
ATOM     19  C   UNL     1       1.329   3.227  -0.924  0.00  0.00    +0.008 A 
ATOM     20  C   UNL     1       0.172   3.082  -0.232  0.00  0.00    +0.045 A 
ATOM     21  S   UNL     1      -0.094   1.319  -0.321  0.00  0.00    -0.103 S 
ENDBRANCH  16  17
ENDBRANCH   1  16
BRANCH   1  22
ATOM     22  C   UNL     1       3.487  -2.148  -1.254  0.00  0.00    -0.036 C 
BRANCH  22  23
ATOM     23  C   UNL     1       4.596  -1.516  -2.055  0.00  0.00    -0.002 A 
ATOM     24  C   UNL     1       4.575  -1.578  -3.417  0.00  0.00    +0.017 A 
ATOM     25  C   UNL     1       5.629  -0.970  -4.128  0.00  0.00    +0.001 A 
ATOM     26  C   UNL     1       5.668  -0.991  -5.531  0.00  0.00    +0.013 A 
ATOM     27  C   UNL     1       6.705  -0.395  -6.184  0.00  0.00    -0.050 A 
ATOM     28  C   UNL     1       7.726   0.235  -5.478  0.00  0.00    +0.005 A 
ATOM     29  C   UNL     1       7.719   0.274  -4.118  0.00  0.00    +0.029 A 
ATOM     30  C   UNL     1       6.667  -0.330  -3.408  0.00  0.00    +0.075 A 
ATOM     31  N   UNL     1       6.634  -0.305  -2.071  0.00  0.00    -0.213 NA
ATOM     32  C   UNL     1       5.651  -0.868  -1.402  0.00  0.00    +0.214 A 
ATOM     33  C   UNL     1       6.746  -0.418  -7.691  0.00  0.00    +0.044 C 
BRANCH  32  34
ATOM     34  O   UNL     1       5.660  -0.818  -0.047  0.00  0.00    -0.492 OA
ATOM     35  H   UNL     1       6.179  -1.520   0.369  0.00  0.00    +0.294 HD
ENDBRANCH  32  34
ENDBRANCH  22  23
ENDBRANCH   1  22
TORSDOF 9
