REMARK  Name = ZINC05773817
REMARK  7 active torsions:
REMARK  status: ('A' for Active; 'I' for Inactive)
REMARK    1  A    between atoms: C_1  and  C_2
REMARK    2  A    between atoms: C_9  and  C_11
REMARK    3  A    between atoms: C_11  and  O_13
REMARK    4  A    between atoms: O_13  and  C_14
REMARK    5  A    between atoms: C_14  and  C_15
REMARK    6  A    between atoms: N_17  and  C_18
REMARK    7  A    between atoms: C_23  and  N_24
REMARK                            x       y       z     vdW  Elec       q    Type
REMARK                         _______ _______ _______ _____ _____    ______ ____
ROOT
ATOM      1  C   UNL     1      -1.136   2.786   7.336  0.00  0.00    +0.328 C 
ENDROOT
BRANCH   1   2
ATOM      2  C   UNL     1       0.044   2.424   8.200  0.00  0.00    +0.255 C 
ATOM      3  O   UNL     1       1.031   1.925   7.701  0.00  0.00    -0.272 OA
ATOM      4  N   UNL     1       0.004   2.654   9.527  0.00  0.00    -0.281 N 
ATOM      5  H   UNL     1      -0.758   3.111   9.917  0.00  0.00    +0.155 HD
BRANCH   4   6
ATOM      6  C   UNL     1       1.060   2.234  10.343  0.00  0.00    +0.064 A 
ATOM      7  C   UNL     1       2.365   2.272   9.867  0.00  0.00    +0.025 A 
ATOM      8  C   UNL     1       3.405   1.861  10.676  0.00  0.00    +0.002 A 
ATOM      9  C   UNL     1       3.150   1.404  11.956  0.00  0.00    +0.002 A 
ATOM     10  C   UNL     1       1.852   1.360  12.431  0.00  0.00    +0.034 A 
ATOM     11  C   UNL     1       0.807   1.774  11.628  0.00  0.00    +0.147 A 
BRANCH  11  12
ATOM     12  N   UNL     1      -0.582   1.726  12.137  0.00  0.00    +0.058 N 
ATOM     13  O   UNL     1      -0.796   1.418  13.296  0.00  0.00    -0.126 OA
ATOM     14  O   UNL     1      -1.512   1.996  11.398  0.00  0.00    -0.126 OA
ENDBRANCH  11  12
ENDBRANCH   4   6
ENDBRANCH   1   2
BRANCH   1  15
ATOM     15  O   UNL     1      -0.848   2.442   5.955  0.00  0.00    -0.451 OA
BRANCH  15  16
ATOM     16  C   UNL     1      -1.810   2.704   5.046  0.00  0.00    +0.346 C 
ATOM     17  O   UNL     1      -2.860   3.207   5.399  0.00  0.00    -0.244 OA
BRANCH  16  25
ATOM     18  C   UNL     1      -3.002   1.690  -2.364  0.00  0.00    +0.008 C 
ATOM     19  C   UNL     1      -2.277   1.418  -1.045  0.00  0.00    -0.009 C 
ATOM     20  C   UNL     1      -0.778   1.677  -1.225  0.00  0.00    +0.009 C 
ATOM     21  C   UNL     1      -0.034   1.146   0.008  0.00  0.00    +0.043 C 
ATOM     22  C   UNL     1      -0.737   1.640   1.234  0.00  0.00    -0.006 A 
ATOM     23  C   UNL     1      -1.991   2.181   1.302  0.00  0.00    -0.036 A 
ATOM     24  C   UNL     1      -2.435   2.570   2.555  0.00  0.00    +0.026 A 
ATOM     25  C   UNL     1      -1.589   2.384   3.634  0.00  0.00    +0.097 A 
ATOM     26  S   UNL     1      -0.159   1.653   2.856  0.00  0.00    -0.086 S 
ATOM     27  C   UNL     1      -2.837   2.337   0.042  0.00  0.00    +0.039 C 
ENDBRANCH  16  25
ENDBRANCH  15  16
ENDBRANCH   1  15
TORSDOF 6
