REMARK  Name = ZINC36666445
REMARK  8 active torsions:
REMARK  status: ('A' for Active; 'I' for Inactive)
REMARK    1  A    between atoms: C_1  and  C_2
REMARK    2  A    between atoms: C_4  and  N_27
REMARK    3  A    between atoms: C_7  and  N_8
REMARK    4  A    between atoms: C_9  and  C_11
REMARK    5  A    between atoms: C_11  and  C_12
REMARK    6  A    between atoms: C_12  and  N_13
REMARK    7  A    between atoms: N_16  and  C_17
REMARK    8  A    between atoms: N_30  and  C_33
REMARK                            x       y       z     vdW  Elec       q    Type
REMARK                         _______ _______ _______ _____ _____    ______ ____
ROOT
ATOM      1  N   UNL     1       0.025  -0.011   2.418  0.00  0.00    -0.285 N 
ATOM      2  C   UNL     1       0.136  -0.624   3.613  0.00  0.00    +0.219 C 
ATOM      3  O   UNL     1       0.333  -1.819   3.665  0.00  0.00    -0.275 OA
ATOM      4  H   UNL     1      -0.076   0.953   2.375  0.00  0.00    +0.155 HD
ENDROOT
BRANCH   1  11
ATOM      5  C   UNL     1      -1.276   1.042   0.119  0.00  0.00    +0.046 C 
ATOM      6  C   UNL     1      -0.569  -0.288   0.092  0.00  0.00    -0.028 A 
ATOM      7  C   UNL     1      -0.535  -1.029  -1.072  0.00  0.00    +0.028 A 
ATOM      8  C   UNL     1       0.117  -2.255  -1.096  0.00  0.00    +0.030 A 
ATOM      9  C   UNL     1       0.735  -2.736   0.051  0.00  0.00    +0.025 A 
ATOM     10  C   UNL     1       0.701  -1.994   1.215  0.00  0.00    +0.025 A 
ATOM     11  C   UNL     1       0.054  -0.766   1.238  0.00  0.00    +0.036 A 
BRANCH   8  12
ATOM     12  N   UNL     1       0.151  -3.006  -2.276  0.00  0.00    -0.333 N 
ATOM     13  C   UNL     1      -0.590  -2.572  -3.471  0.00  0.00    +0.086 C 
ATOM     14  C   UNL     1       0.366  -2.592  -4.668  0.00  0.00    -0.060 C 
ATOM     15  N   UNL     1       0.977  -3.923  -4.784  0.00  0.00    +0.380 N 
ATOM     16  C   UNL     1       1.812  -4.193  -3.607  0.00  0.00    -0.060 C 
ATOM     17  C   UNL     1       0.933  -4.250  -2.359  0.00  0.00    +0.086 C 
ATOM     18  C   UNL     1       1.807  -3.975  -5.994  0.00  0.00    -0.096 C 
ATOM     19  H   UNL     1       0.251  -4.620  -4.847  0.00  0.00    -0.082 HD
ENDBRANCH   8  12
ENDBRANCH   1  11
BRANCH   2  20
ATOM     20  C   UNL     1       0.015   0.176   4.884  0.00  0.00    +0.115 C 
BRANCH  20  21
ATOM     21  C   UNL     1       0.179  -0.753   6.089  0.00  0.00    +0.115 C 
BRANCH  21  22
ATOM     22  N   UNL     1       0.062   0.025   7.325  0.00  0.00    -0.299 N 
ATOM     23  C   UNL     1       0.173  -0.588   8.520  0.00  0.00    +0.300 C 
ATOM     24  O   UNL     1       0.371  -1.786   8.572  0.00  0.00    -0.253 OA
ATOM     25  N   UNL     1       0.066   0.128   9.657  0.00  0.00    -0.294 N 
ATOM     26  H   UNL     1      -0.096   0.981   7.283  0.00  0.00    +0.150 HD
ATOM     27  H   UNL     1      -0.092   1.084   9.615  0.00  0.00    +0.151 HD
BRANCH  25  28
ATOM     28  C   UNL     1       0.187  -0.539  10.956  0.00  0.00    +0.037 C 
ATOM     29  C   UNL     1      -0.903  -1.605  11.086  0.00  0.00    +0.029 C 
ATOM     30  C   UNL     1      -0.776  -2.301  12.443  0.00  0.00    -0.008 C 
ATOM     31  C   UNL     1      -0.936  -1.270  13.562  0.00  0.00    +0.007 C 
ATOM     32  C   UNL     1       0.153  -0.203  13.432  0.00  0.00    -0.008 C 
ATOM     33  C   UNL     1       0.027   0.492  12.075  0.00  0.00    +0.029 C 
ATOM     34  C   UNL     1       1.529  -0.864  13.540  0.00  0.00    +0.007 C 
ATOM     35  C   UNL     1       1.689  -1.895  12.421  0.00  0.00    -0.008 C 
ATOM     36  C   UNL     1       0.599  -2.962  12.551  0.00  0.00    +0.007 C 
ATOM     37  C   UNL     1       1.562  -1.199  11.064  0.00  0.00    +0.029 C 
ENDBRANCH  25  28
ENDBRANCH  21  22
ENDBRANCH  20  21
ENDBRANCH   2  20
TORSDOF 6
