REMARK  Name = ZINC03145503
REMARK  5 active torsions:
REMARK  status: ('A' for Active; 'I' for Inactive)
REMARK    1  A    between atoms: C_1  and  C_2
REMARK    2  A    between atoms: C_5  and  C_8
REMARK    3  A    between atoms: C_8  and  C_23
REMARK    4  A    between atoms: N_12  and  C_16
REMARK    5  A    between atoms: C_19  and  C_22
REMARK                            x       y       z     vdW  Elec       q    Type
REMARK                         _______ _______ _______ _____ _____    ______ ____
ROOT
ATOM      1  C   UNL     1      -2.852   0.840  -0.032  0.00  0.00    +0.209 C 
ATOM      2  N   UNL     1      -4.069   1.165   0.715  0.00  0.00    -0.273 N 
ATOM      3  C   UNL     1      -4.139   1.292   2.033  0.00  0.00    +0.313 C 
ATOM      4  O   UNL     1      -5.211   1.666   2.469  0.00  0.00    -0.252 OA
ATOM      5  N   UNL     1      -3.193   1.064   2.944  0.00  0.00    -0.219 N 
ATOM      6  C   UNL     1      -1.915   0.611   2.574  0.00  0.00    +0.072 C 
ATOM      7  C   UNL     1      -0.848   0.803   3.345  0.00  0.00    +0.042 C 
ATOM      8  S   UNL     1      -1.812  -0.231   1.015  0.00  0.00    -0.071 S 
ATOM      9  H   UNL     1      -4.884   1.297   0.207  0.00  0.00    +0.152 HD
ENDROOT
BRANCH   1  14
ATOM     10  C   UNL     1       0.010   5.695  -1.311  0.00  0.00    +0.044 C 
ATOM     11  C   UNL     1      -0.736   4.429  -0.975  0.00  0.00    -0.050 A 
ATOM     12  C   UNL     1      -0.052   3.233  -0.865  0.00  0.00    +0.004 A 
ATOM     13  C   UNL     1      -0.737   2.072  -0.556  0.00  0.00    +0.007 A 
ATOM     14  C   UNL     1      -2.105   2.107  -0.363  0.00  0.00    -0.005 A 
ATOM     15  C   UNL     1      -2.788   3.304  -0.469  0.00  0.00    +0.007 A 
ATOM     16  C   UNL     1      -2.104   4.465  -0.777  0.00  0.00    +0.004 A 
ENDBRANCH   1  14
BRANCH   5  17
ATOM     17  C   UNL     1      -3.478   1.280   4.298  0.00  0.00    +0.043 A 
ATOM     18  C   UNL     1      -3.898   0.225   5.098  0.00  0.00    +0.024 A 
ATOM     19  C   UNL     1      -4.174   0.440   6.434  0.00  0.00    +0.005 A 
ATOM     20  C   UNL     1      -4.043   1.707   6.973  0.00  0.00    -0.050 A 
ATOM     21  C   UNL     1      -3.630   2.761   6.178  0.00  0.00    +0.005 A 
ATOM     22  C   UNL     1      -3.347   2.551   4.843  0.00  0.00    +0.024 A 
ATOM     23  C   UNL     1      -4.350   1.940   8.430  0.00  0.00    +0.044 C 
ENDBRANCH   5  17
BRANCH   1  24
ATOM     24  C   UNL     1      -3.217   0.104  -1.323  0.00  0.00    +0.425 C 
ATOM     25  F   UNL     1      -2.049  -0.216  -2.023  0.00  0.00    -0.167 F 
ATOM     26  F   UNL     1      -3.909  -1.070  -1.009  0.00  0.00    -0.167 F 
ATOM     27  F   UNL     1      -4.026   0.925  -2.115  0.00  0.00    -0.167 F 
ENDBRANCH   1  24
TORSDOF 3
