REMARK  Name = ZINC13576572
REMARK  11 active torsions:
REMARK  status: ('A' for Active; 'I' for Inactive)
REMARK    1  A    between atoms: C_1  and  C_2
REMARK    2  A    between atoms: C_9  and  C_18
REMARK    3  A    between atoms: C_12  and  C_14
REMARK    4  A    between atoms: C_14  and  C_15
REMARK    5  A    between atoms: C_15  and  C_16
REMARK    6  A    between atoms: C_15  and  C_17
REMARK    7  A    between atoms: N_20  and  C_21
REMARK    8  A    between atoms: C_23  and  O_29
REMARK    9  A    between atoms: C_26  and  O_27
REMARK   10  A    between atoms: O_27  and  C_28
REMARK   11  A    between atoms: O_29  and  C_30
REMARK                            x       y       z     vdW  Elec       q    Type
REMARK                         _______ _______ _______ _____ _____    ______ ____
ROOT
ATOM      1  C   UNL     1       4.006   7.958  -0.694  0.00  0.00    +0.044 C 
ATOM      2  C   UNL     1       2.573   8.275  -1.035  0.00  0.00    -0.050 A 
ATOM      3  C   UNL     1       2.280   9.066  -2.131  0.00  0.00    +0.005 A 
ATOM      4  C   UNL     1       0.970   9.360  -2.448  0.00  0.00    +0.024 A 
ATOM      5  C   UNL     1      -0.069   8.861  -1.665  0.00  0.00    +0.036 A 
ATOM      6  C   UNL     1       0.238   8.065  -0.567  0.00  0.00    -0.027 A 
ATOM      7  C   UNL     1       1.547   7.774  -0.253  0.00  0.00    +0.008 A 
ATOM      8  C   UNL     1      -1.080   7.692   0.057  0.00  0.00    +0.049 C 
ATOM      9  C   UNL     1      -1.274   6.167   0.050  0.00  0.00    +0.076 C 
ATOM     10  C   UNL     1      -2.019   5.904   1.387  0.00  0.00    -0.004 C 
ATOM     11  C   UNL     1      -1.381   6.966   2.318  0.00  0.00    -0.069 C 
ATOM     12  C   UNL     1      -2.117   8.363  -0.807  0.00  0.00    +0.211 C 
ATOM     13  O   UNL     1      -3.320   8.322  -0.656  0.00  0.00    -0.277 OA
ATOM     14  N   UNL     1      -1.452   9.016  -1.778  0.00  0.00    -0.286 N 
ATOM     15  H   UNL     1      -1.883   9.533  -2.476  0.00  0.00    +0.155 HD
ATOM     16  N   UNL     1      -1.168   8.141   1.450  0.00  0.00    +0.394 N 
ATOM     17  H   UNL     1      -1.955   8.793   1.554  0.00  0.00    -0.083 HD
ATOM     18  H   UNL     1      -0.296   8.613   1.717  0.00  0.00    -0.083 HD
ENDROOT
BRANCH   9  19
ATOM     19  C   UNL     1       0.057   5.460   0.033  0.00  0.00    +0.220 C 
ATOM     20  O   UNL     1       0.615   5.194   1.077  0.00  0.00    -0.275 OA
ATOM     21  N   UNL     1       0.627   5.124  -1.141  0.00  0.00    -0.282 N 
ATOM     22  H   UNL     1       0.221   5.407  -1.975  0.00  0.00    +0.155 HD
BRANCH  21  23
ATOM     23  C   UNL     1       1.804   4.365  -1.156  0.00  0.00    +0.079 A 
ATOM     24  C   UNL     1       2.113   3.539  -0.086  0.00  0.00    +0.072 A 
ATOM     25  C   UNL     1       3.279   2.789  -0.104  0.00  0.00    +0.122 A 
ATOM     26  C   UNL     1       4.136   2.865  -1.192  0.00  0.00    +0.049 A 
ATOM     27  C   UNL     1       3.829   3.683  -2.262  0.00  0.00    +0.051 A 
ATOM     28  C   UNL     1       2.667   4.439  -2.247  0.00  0.00    +0.141 A 
BRANCH  28  29
ATOM     29  O   UNL     1       2.368   5.248  -3.299  0.00  0.00    -0.493 OA
ATOM     30  C   UNL     1       3.298   5.274  -4.383  0.00  0.00    +0.277 C 
ENDBRANCH  28  29
BRANCH  25  31
ATOM     31  O   UNL     1       3.582   1.980   0.946  0.00  0.00    -0.495 OA
ATOM     32  C   UNL     1       4.799   1.236   0.860  0.00  0.00    +0.277 C 
ENDBRANCH  25  31
ENDBRANCH  21  23
ENDBRANCH   9  19
BRANCH  11  33
ATOM     33  C   UNL     1      -2.331   7.308   3.467  0.00  0.00    -0.013 C 
BRANCH  33  34
ATOM     34  C   UNL     1      -1.634   8.261   4.439  0.00  0.00    -0.019 C 
ATOM     35  C   UNL     1      -1.353   9.591   3.737  0.00  0.00    +0.007 C 
ATOM     36  C   UNL     1      -2.536   8.504   5.651  0.00  0.00    +0.007 C 
ENDBRANCH  33  34
ENDBRANCH  11  33
TORSDOF 6
