REMARK  Name = ZINC09293479
REMARK  8 active torsions:
REMARK  status: ('A' for Active; 'I' for Inactive)
REMARK    1  A    between atoms: C_1  and  N_2
REMARK    2  A    between atoms: N_2  and  C_3
REMARK    3  A    between atoms: N_2  and  C_32
REMARK    4  A    between atoms: C_3  and  C_4
REMARK    5  A    between atoms: C_5  and  C_15
REMARK    6  A    between atoms: N_17  and  N_18
REMARK    7  A    between atoms: C_19  and  C_20
REMARK    8  A    between atoms: C_23  and  C_26
REMARK                            x       y       z     vdW  Elec       q    Type
REMARK                         _______ _______ _______ _____ _____    ______ ____
ROOT
ATOM      1  C   UNL     1       5.371  -3.215   3.986  0.00  0.00    +0.096 A 
ATOM      2  C   UNL     1       6.623  -3.032   3.471  0.00  0.00    +0.174 A 
ATOM      3  N   UNL     1       6.796  -1.721   3.228  0.00  0.00    -0.124 NA
ATOM      4  N   UNL     1       5.735  -1.075   3.566  0.00  0.00    -0.058 NA
ATOM      5  N   UNL     1       4.796  -1.993   4.057  0.00  0.00    -0.190 N 
ATOM      6  C   UNL     1       3.511  -1.701   4.529  0.00  0.00    +0.240 A 
ATOM      7  C   UNL     1       2.255  -2.002   3.838  0.00  0.00    +0.206 A 
ATOM      8  N   UNL     1       1.267  -1.585   4.581  0.00  0.00    -0.032 NA
ATOM      9  O   UNL     1       1.819  -1.011   5.753  0.00  0.00    -0.239 OA
ATOM     10  N   UNL     1       3.229  -1.121   5.661  0.00  0.00    -0.027 NA
ATOM     11  N   UNL     1       2.135  -2.627   2.601  0.00  0.00    -0.337 N 
ATOM     12  H   UNL     1       2.929  -2.904   2.119  0.00  0.00    +0.144 HD
ATOM     13  H   UNL     1       1.257  -2.785   2.221  0.00  0.00    +0.144 HD
ENDROOT
BRANCH   2  14
ATOM     14  C   UNL     1       7.616  -4.094   3.222  0.00  0.00    +0.285 C 
ATOM     15  O   UNL     1       7.396  -5.231   3.592  0.00  0.00    -0.267 OA
ATOM     16  N   UNL     1       8.767  -3.803   2.584  0.00  0.00    -0.202 N 
ATOM     17  H   UNL     1       8.943  -2.896   2.289  0.00  0.00    +0.178 HD
BRANCH  16  18
ATOM     18  N   UNL     1       9.710  -4.812   2.347  0.00  0.00    -0.187 NA
ATOM     19  C   UNL     1      10.819  -4.532   1.733  0.00  0.00    +0.138 C 
BRANCH  19  20
ATOM     20  C   UNL     1      11.811  -5.593   1.484  0.00  0.00    -0.005 A 
ATOM     21  C   UNL     1      11.561  -6.900   1.914  0.00  0.00    +0.010 A 
ATOM     22  C   UNL     1      12.486  -7.891   1.675  0.00  0.00    +0.009 A 
ATOM     23  C   UNL     1      13.678  -7.590   1.016  0.00  0.00    -0.018 A 
ATOM     24  C   UNL     1      13.931  -6.285   0.591  0.00  0.00    +0.009 A 
ATOM     25  C   UNL     1      13.005  -5.293   0.822  0.00  0.00    +0.010 A 
BRANCH  23  26
ATOM     26  C   UNL     1      14.676  -8.657   0.765  0.00  0.00    -0.018 A 
ATOM     27  C   UNL     1      15.865  -8.361   0.100  0.00  0.00    +0.008 A 
ATOM     28  C   UNL     1      16.793  -9.357  -0.125  0.00  0.00    +0.001 A 
ATOM     29  C   UNL     1      16.540 -10.650   0.297  0.00  0.00    +0.000 A 
ATOM     30  C   UNL     1      15.359 -10.951   0.952  0.00  0.00    +0.001 A 
ATOM     31  C   UNL     1      14.426  -9.962   1.188  0.00  0.00    +0.008 A 
ENDBRANCH  23  26
ENDBRANCH  19  20
ENDBRANCH  16  18
ENDBRANCH   2  14
BRANCH   1  32
ATOM     32  C   UNL     1       4.752  -4.524   4.401  0.00  0.00    +0.162 C 
BRANCH  32  34
ATOM     33  C   UNL     1       5.250  -4.143   6.859  0.00  0.00    +0.129 C 
ATOM     34  N   UNL     1       4.292  -4.430   5.788  0.00  0.00    -0.327 N 
BRANCH  34  35
ATOM     35  C   UNL     1       2.941  -4.613   6.091  0.00  0.00    +0.030 A 
ATOM     36  C   UNL     1       2.533  -4.730   7.413  0.00  0.00    +0.023 A 
ATOM     37  C   UNL     1       1.196  -4.912   7.709  0.00  0.00    +0.002 A 
ATOM     38  C   UNL     1       0.264  -4.976   6.689  0.00  0.00    +0.000 A 
ATOM     39  C   UNL     1       0.666  -4.860   5.371  0.00  0.00    +0.002 A 
ATOM     40  C   UNL     1       2.002  -4.679   5.069  0.00  0.00    +0.023 A 
ENDBRANCH  34  35
ENDBRANCH  32  34
ENDBRANCH   1  32
TORSDOF 7
