REMARK  Name = ZINC11662643
REMARK  7 active torsions:
REMARK  status: ('A' for Active; 'I' for Inactive)
REMARK    1  A    between atoms: C_1  and  C_2
REMARK    2  A    between atoms: C_7  and  N_8
REMARK    3  A    between atoms: C_13  and  N_58
REMARK    4  A    between atoms: C_16  and  C_18
REMARK    5  A    between atoms: C_16  and  C_19
REMARK    6  A    between atoms: C_20  and  C_21
REMARK    7  A    between atoms: C_20  and  N_58
REMARK                            x       y       z     vdW  Elec       q    Type
REMARK                         _______ _______ _______ _____ _____    ______ ____
ROOT
ATOM      1  N   UNL     1       4.898  -5.469  -1.773  0.00  0.00    -0.236 N 
ATOM      2  C   UNL     1       5.103  -4.199  -2.168  0.00  0.00    +0.047 A 
ATOM      3  C   UNL     1       4.364  -3.390  -1.366  0.00  0.00    -0.020 A 
ATOM      4  C   UNL     1       3.687  -4.194  -0.450  0.00  0.00    +0.137 A 
ATOM      5  N   UNL     1       4.005  -5.443  -0.691  0.00  0.00    -0.174 NA
ATOM      6  C   UNL     1       4.320  -1.888  -1.489  0.00  0.00    -0.037 C 
ATOM      7  C   UNL     1       4.877  -1.499  -2.864  0.00  0.00    -0.005 C 
ATOM      8  C   UNL     1       6.218  -2.201  -3.090  0.00  0.00    -0.031 C 
ATOM      9  C   UNL     1       5.983  -3.704  -3.288  0.00  0.00    +0.062 C 
ATOM     10  C   UNL     1       7.119  -1.982  -1.873  0.00  0.00    +0.011 C 
ATOM     11  C   UNL     1       6.894  -1.623  -4.335  0.00  0.00    +0.011 C 
ENDROOT
BRANCH   1  18
ATOM     12  C   UNL     1       6.082  -7.386  -0.034  0.00  0.00    +0.046 C 
ATOM     13  C   UNL     1       6.061  -7.574  -1.529  0.00  0.00    -0.025 A 
ATOM     14  C   UNL     1       6.623  -8.704  -2.092  0.00  0.00    +0.005 A 
ATOM     15  C   UNL     1       6.609  -8.873  -3.465  0.00  0.00    +0.000 A 
ATOM     16  C   UNL     1       6.029  -7.916  -4.277  0.00  0.00    +0.002 A 
ATOM     17  C   UNL     1       5.461  -6.787  -3.720  0.00  0.00    +0.028 A 
ATOM     18  C   UNL     1       5.473  -6.614  -2.342  0.00  0.00    +0.069 A 
ENDBRANCH   1  18
BRANCH   6  19
ATOM     19  N   UNL     1       2.925  -1.420  -1.376  0.00  0.00    +0.386 N 
ATOM     20  H   UNL     1       2.300  -2.110  -1.810  0.00  0.00    -0.085 HD
ATOM     21  H   UNL     1       2.830  -0.519  -1.860  0.00  0.00    -0.085 HD
BRANCH  19  22
ATOM     22  C   UNL     1       2.555  -1.252   0.042  0.00  0.00    -0.046 C 
BRANCH  22  23
ATOM     23  C   UNL     1       1.128  -0.774   0.126  0.00  0.00    -0.061 A 
ATOM     24  C   UNL     1       0.097  -1.691   0.201  0.00  0.00    +0.005 A 
ATOM     25  C   UNL     1      -1.213  -1.257   0.277  0.00  0.00    +0.049 A 
ATOM     26  C   UNL     1      -1.496   0.101   0.280  0.00  0.00    +0.162 A 
ATOM     27  C   UNL     1      -0.459   1.023   0.208  0.00  0.00    +0.162 A 
ATOM     28  C   UNL     1       0.854   0.580   0.130  0.00  0.00    +0.051 A 
ATOM     29  O   UNL     1      -0.713   2.360   0.218  0.00  0.00    -0.485 OA
ATOM     30  C   UNL     1      -2.055   2.762  -0.079  0.00  0.00    +0.270 C 
ATOM     31  C   UNL     1      -3.013   1.876   0.729  0.00  0.00    +0.270 C 
ATOM     32  O   UNL     1      -2.791   0.513   0.347  0.00  0.00    -0.485 OA
ENDBRANCH  22  23
ENDBRANCH  19  22
ENDBRANCH   6  19
TORSDOF 4
