REMARK  Name = ZINC13861549
REMARK  5 active torsions:
REMARK  status: ('A' for Active; 'I' for Inactive)
REMARK    1  A    between atoms: N_14  and  C_15
REMARK    2  A    between atoms: C_15  and  C_16
REMARK    3  A    between atoms: C_16  and  N_17
REMARK    4  A    between atoms: N_17  and  C_18
REMARK    5  A    between atoms: C_18  and  N_20
REMARK                            x       y       z     vdW  Elec       q    Type
REMARK                         _______ _______ _______ _____ _____    ______ ____
ROOT
ATOM      1  C   UNL     1       3.573   3.240  -0.015  0.00  0.00    +0.144 C 
ENDROOT
BRANCH   1  15
ATOM      2  C   UNL     1      -0.014   1.050   0.001  0.00  0.00    +0.022 A 
ATOM      3  C   UNL     1       1.171   1.770  -0.004  0.00  0.00    +0.031 A 
ATOM      4  C   UNL     1       1.101   3.159   0.007  0.00  0.00    +0.088 A 
ATOM      5  C   UNL     1      -0.151   3.776   0.022  0.00  0.00    +0.162 A 
ATOM      6  N   UNL     1      -1.256   3.046   0.027  0.00  0.00    -0.236 NA
ATOM      7  C   UNL     1      -1.218   1.728   0.011  0.00  0.00    +0.113 A 
ATOM      8  N   UNL     1      -0.243   5.169   0.033  0.00  0.00    -0.295 N 
ATOM      9  C   UNL     1      -1.308   6.010   0.049  0.00  0.00    +0.093 A 
ATOM     10  C   UNL     1      -0.859   7.288   0.054  0.00  0.00    +0.020 A 
ATOM     11  C   UNL     1       0.539   7.253   0.042  0.00  0.00    +0.033 A 
ATOM     12  C   UNL     1       0.910   5.927   0.029  0.00  0.00    +0.113 A 
ATOM     13  C   UNL     1       2.214   5.261   0.012  0.00  0.00    +0.276 A 
ATOM     14  O   UNL     1       3.239   5.919   0.008  0.00  0.00    -0.265 OA
ATOM     15  N   UNL     1       2.272   3.914   0.002  0.00  0.00    -0.302 N 
ENDBRANCH   1  15
BRANCH   1  16
ATOM     16  C   UNL     1       4.013   3.016  -1.463  0.00  0.00    +0.125 C 
BRANCH  16  17
ATOM     17  N   UNL     1       5.314   2.343  -1.479  0.00  0.00    -0.325 N 
ATOM     18  H   UNL     1       5.752   2.114  -0.644  0.00  0.00    +0.148 HD
BRANCH  17  19
ATOM     19  C   UNL     1       5.902   2.041  -2.654  0.00  0.00    +0.136 C 
ATOM     20  S   UNL     1       5.128   2.445  -4.127  0.00  0.00    -0.019 S 
BRANCH  19  21
ATOM     21  N   UNL     1       7.098   1.421  -2.669  0.00  0.00    -0.282 N 
ATOM     22  C   UNL     1       7.656   1.012  -3.879  0.00  0.00    +0.124 A 
ATOM     23  C   UNL     1       8.837   0.278  -3.880  0.00  0.00    +0.045 A 
ATOM     24  C   UNL     1       9.377  -0.126  -5.087  0.00  0.00    +0.020 A 
ATOM     25  C   UNL     1       8.720   0.228  -6.259  0.00  0.00    +0.036 A 
ATOM     26  C   UNL     1       7.553   0.963  -6.184  0.00  0.00    +0.128 A 
ATOM     27  N   UNL     1       7.059   1.330  -5.016  0.00  0.00    -0.239 NA
ATOM     28 BR   UNL     1       9.415  -0.292  -7.939  0.00  0.00    -0.049 Br
ATOM     29  H   UNL     1       7.572   1.260  -1.838  0.00  0.00    +0.155 HD
ENDBRANCH  19  21
ENDBRANCH  17  19
ENDBRANCH  16  17
ENDBRANCH   1  16
TORSDOF 5
