REMARK  Name = ZINC49421588
REMARK  5 active torsions:
REMARK  status: ('A' for Active; 'I' for Inactive)
REMARK    1  A    between atoms: C_1  and  C_2
REMARK    2  A    between atoms: C_7  and  C_8
REMARK    3  A    between atoms: N_9  and  C_20
REMARK    4  A    between atoms: C_13  and  C_15
REMARK    5  A    between atoms: C_20  and  C_21
REMARK                            x       y       z     vdW  Elec       q    Type
REMARK                         _______ _______ _______ _____ _____    ______ ____
ROOT
ATOM      1  C   UNL     1       0.065   1.503   0.010  0.00  0.00    +0.044 C 
ATOM      2  C   UNL     1       0.063  -0.004   0.002  0.00  0.00    -0.046 A 
ATOM      3  C   UNL     1       0.051  -0.687  -1.202  0.00  0.00    +0.028 A 
ATOM      4  C   UNL     1       0.050  -2.072  -1.209  0.00  0.00    +0.053 A 
ATOM      5  C   UNL     1       0.061  -2.774  -0.004  0.00  0.00    +0.058 A 
ATOM      6  C   UNL     1       0.073  -2.083   1.195  0.00  0.00    +0.029 A 
ATOM      7  C   UNL     1       0.079  -0.699   1.195  0.00  0.00    -0.046 A 
ATOM      8  C   UNL     1       0.099   0.052   2.502  0.00  0.00    +0.044 C 
ATOM      9  N   UNL     1       0.061  -4.163   0.197  0.00  0.00    -0.262 N 
ATOM     10  C   UNL     1       0.052  -5.146  -0.726  0.00  0.00    +0.246 C 
ATOM     11  O   UNL     1       0.055  -6.281  -0.283  0.00  0.00    -0.270 OA
ATOM     12  C   UNL     1       0.038  -5.042  -2.126  0.00  0.00    +0.092 C 
ATOM     13  C   UNL     1       0.031  -3.909  -2.912  0.00  0.00    +0.050 C 
ATOM     14  N   UNL     1       0.037  -2.585  -2.516  0.00  0.00    -0.312 N 
ATOM     15  H   UNL     1       0.030  -1.928  -3.230  0.00  0.00    +0.152 HD
ENDROOT
BRANCH  13  16
ATOM     16  C   UNL     1       0.017  -4.140  -4.359  0.00  0.00    +0.033 A 
ATOM     17  C   UNL     1       0.004  -5.341  -5.053  0.00  0.00    +0.017 A 
ATOM     18  C   UNL     1      -0.007  -5.238  -6.424  0.00  0.00    +0.008 A 
ATOM     19  C   UNL     1      -0.005  -4.007  -6.992  0.00  0.00    +0.046 A 
ATOM     20  S   UNL     1       0.005  -2.950  -5.687  0.00  0.00    -0.095 S 
ENDBRANCH  13  16
BRANCH   9  21
ATOM     21  C   UNL     1       0.075  -4.603   1.594  0.00  0.00    +0.149 C 
BRANCH  21  22
ATOM     22  C   UNL     1      -1.337  -4.656   2.118  0.00  0.00    -0.030 A 
ATOM     23  C   UNL     1      -1.897  -3.539   2.711  0.00  0.00    +0.005 A 
ATOM     24  C   UNL     1      -3.192  -3.588   3.191  0.00  0.00    +0.000 A 
ATOM     25  C   UNL     1      -3.928  -4.752   3.078  0.00  0.00    +0.000 A 
ATOM     26  C   UNL     1      -3.369  -5.868   2.484  0.00  0.00    +0.000 A 
ATOM     27  C   UNL     1      -2.075  -5.819   2.000  0.00  0.00    +0.005 A 
ENDBRANCH  21  22
ENDBRANCH   9  21
TORSDOF 3
