REMARK  Name = ZINC35636882
REMARK  11 active torsions:
REMARK  status: ('A' for Active; 'I' for Inactive)
REMARK    1  A    between atoms: C_1  and  C_2
REMARK    2  A    between atoms: C_5  and  C_9
REMARK    3  A    between atoms: C_6  and  C_8
REMARK    4  A    between atoms: N_14  and  C_17
REMARK    5  A    between atoms: C_17  and  C_19
REMARK    6  A    between atoms: C_17  and  C_23
REMARK    7  A    between atoms: C_19  and  C_20
REMARK    8  A    between atoms: C_20  and  C_21
REMARK    9  A    between atoms: C_20  and  C_22
REMARK   10  A    between atoms: N_25  and  C_26
REMARK   11  A    between atoms: N_33  and  C_37
REMARK                            x       y       z     vdW  Elec       q    Type
REMARK                         _______ _______ _______ _____ _____    ______ ____
ROOT
ATOM      1  C   UNL     1       0.053  -4.332  -0.049  0.00  0.00    +0.142 C 
ATOM      2  C   UNL     1       1.479  -4.794   0.170  0.00  0.00    +0.058 C 
ATOM      3  C   UNL     1       2.043  -5.561  -0.785  0.00  0.00    +0.042 C 
ATOM      4  C   UNL     1       3.446  -5.870  -0.309  0.00  0.00    +0.160 C 
ATOM      5  N   UNL     1       3.562  -5.190   0.989  0.00  0.00    -0.281 N 
ATOM      6  C   UNL     1       2.389  -4.576   1.225  0.00  0.00    +0.247 C 
ATOM      7  O   UNL     1       2.144  -3.918   2.220  0.00  0.00    -0.270 OA
ATOM      8  N   UNL     1       1.355  -5.910  -1.911  0.00  0.00    -0.260 N 
ATOM      9  C   UNL     1       0.094  -5.530  -2.156  0.00  0.00    +0.307 C 
ATOM     10  O   UNL     1      -0.439  -5.891  -3.188  0.00  0.00    -0.252 OA
ATOM     11  N   UNL     1      -0.602  -4.761  -1.297  0.00  0.00    -0.288 N 
ATOM     12  C   UNL     1       2.032  -6.745  -2.906  0.00  0.00    +0.139 C 
ATOM     13  H   UNL     1      -1.514  -4.498  -1.494  0.00  0.00    +0.151 HD
ENDROOT
BRANCH   1  18
ATOM     14  C   UNL     1       0.011   1.445   0.085  0.00  0.00    +0.044 C 
ATOM     15  C   UNL     1       0.022  -0.061   0.050  0.00  0.00    -0.050 A 
ATOM     16  C   UNL     1       1.179  -0.737  -0.290  0.00  0.00    +0.004 A 
ATOM     17  C   UNL     1       1.189  -2.118  -0.322  0.00  0.00    +0.006 A 
ATOM     18  C   UNL     1       0.042  -2.825  -0.014  0.00  0.00    -0.020 A 
ATOM     19  C   UNL     1      -1.115  -2.151   0.327  0.00  0.00    -0.045 A 
ATOM     20  C   UNL     1      -1.124  -0.768   0.363  0.00  0.00    +0.007 A 
ATOM     21  C   UNL     1      -2.366  -2.921   0.662  0.00  0.00    +0.044 C 
ENDBRANCH   1  18
BRANCH   5  22
ATOM     22  C   UNL     1       4.738  -5.182   1.863  0.00  0.00    +0.163 C 
BRANCH  22  23
ATOM     23  C   UNL     1       5.206  -3.763   2.063  0.00  0.00    +0.238 C 
ATOM     24  O   UNL     1       4.615  -2.849   1.529  0.00  0.00    -0.273 OA
ATOM     25  N   UNL     1       6.280  -3.511   2.837  0.00  0.00    -0.284 N 
ATOM     26  H   UNL     1       6.793  -4.245   3.209  0.00  0.00    +0.155 HD
BRANCH  25  27
ATOM     27  C   UNL     1       6.657  -2.189   3.103  0.00  0.00    +0.034 A 
ATOM     28  C   UNL     1       7.195  -1.854   4.338  0.00  0.00    +0.026 A 
ATOM     29  C   UNL     1       7.566  -0.549   4.598  0.00  0.00    +0.040 A 
ATOM     30  C   UNL     1       7.400   0.425   3.628  0.00  0.00    +0.124 A 
ATOM     31  C   UNL     1       6.863   0.094   2.396  0.00  0.00    +0.040 A 
ATOM     32  C   UNL     1       6.497  -1.211   2.129  0.00  0.00    +0.026 A 
ATOM     33  F   UNL     1       7.762   1.701   3.885  0.00  0.00    -0.205 F 
ENDBRANCH  25  27
ENDBRANCH  22  23
BRANCH  22  34
ATOM     34  C   UNL     1       4.371  -5.794   3.217  0.00  0.00    +0.035 C 
BRANCH  34  35
ATOM     35  C   UNL     1       4.016  -7.270   3.029  0.00  0.00    -0.015 C 
ATOM     36  C   UNL     1       5.254  -8.037   2.560  0.00  0.00    +0.007 C 
ATOM     37  C   UNL     1       3.530  -7.851   4.359  0.00  0.00    +0.007 C 
ENDBRANCH  34  35
ENDBRANCH  22  34
ENDBRANCH   5  22
TORSDOF 6
