REMARK  Name = ZINC36525587
REMARK  13 active torsions:
REMARK  status: ('A' for Active; 'I' for Inactive)
REMARK    1  A    between atoms: C_1  and  C_2
REMARK    2  A    between atoms: C_5  and  S_8
REMARK    3  A    between atoms: S_8  and  C_11
REMARK    4  A    between atoms: C_11  and  N_12
REMARK    5  A    between atoms: C_13  and  C_15
REMARK    6  A    between atoms: C_15  and  C_17
REMARK    7  A    between atoms: C_15  and  N_24
REMARK    8  A    between atoms: C_22  and  O_23
REMARK    9  A    between atoms: N_24  and  C_25
REMARK   10  A    between atoms: C_26  and  C_28
REMARK   11  A    between atoms: C_36  and  C_38
REMARK   12  A    between atoms: C_39  and  C_40
REMARK   13  A    between atoms: C_39  and  C_41
REMARK                            x       y       z     vdW  Elec       q    Type
REMARK                         _______ _______ _______ _____ _____    ______ ____
ROOT
ATOM      1  C   UNL     1       2.890  -5.231   3.329  0.00  0.00    +0.195 C 
ENDROOT
BRANCH   1   2
ATOM      2  C   UNL     1       1.865  -4.351   3.995  0.00  0.00    +0.023 A 
ATOM      3  C   UNL     1       0.675  -4.892   4.443  0.00  0.00    +0.009 A 
ATOM      4  C   UNL     1      -0.267  -4.085   5.053  0.00  0.00    +0.001 A 
ATOM      5  C   UNL     1      -0.021  -2.734   5.218  0.00  0.00    +0.004 A 
ATOM      6  C   UNL     1       1.167  -2.188   4.772  0.00  0.00    +0.046 A 
ATOM      7  C   UNL     1       2.116  -2.997   4.164  0.00  0.00    +0.122 A 
BRANCH   7   8
ATOM      8  O   UNL     1       3.288  -2.464   3.729  0.00  0.00    -0.506 OA
ATOM      9  H   UNL     1       3.239  -2.074   2.846  0.00  0.00    +0.292 HD
ENDBRANCH   7   8
ENDBRANCH   1   2
BRANCH   1  11
ATOM     10  N   UNL     1       2.262  -4.762   0.983  0.00  0.00    -0.294 N 
ATOM     11  C   UNL     1       2.381  -5.663   1.979  0.00  0.00    +0.239 C 
ATOM     12  O   UNL     1       2.077  -6.822   1.787  0.00  0.00    -0.273 OA
ATOM     13  H   UNL     1       2.439  -3.824   1.155  0.00  0.00    +0.150 HD
BRANCH  10  14
ATOM     14  C   UNL     1       1.867  -5.200  -0.358  0.00  0.00    +0.278 C 
BRANCH  14  15
ATOM     15  S   UNL     1       0.074  -5.006  -0.553  0.00  0.00    +0.013 S 
ATOM     16  O   UNL     1      -0.602  -5.543   0.576  0.00  0.00    -0.168 OA
ATOM     17  O   UNL     1      -0.317  -5.367  -1.871  0.00  0.00    -0.168 OA
BRANCH  15  22
ATOM     18  C   UNL     1      -0.889   0.942  -0.237  0.00  0.00    +0.044 C 
ATOM     19  C   UNL     1      -0.649  -0.544  -0.316  0.00  0.00    -0.050 A 
ATOM     20  C   UNL     1      -0.399  -1.139  -1.538  0.00  0.00    +0.005 A 
ATOM     21  C   UNL     1      -0.178  -2.502  -1.610  0.00  0.00    +0.027 A 
ATOM     22  C   UNL     1      -0.207  -3.269  -0.461  0.00  0.00    +0.090 A 
ATOM     23  C   UNL     1      -0.455  -2.673   0.762  0.00  0.00    +0.027 A 
ATOM     24  C   UNL     1      -0.672  -1.310   0.835  0.00  0.00    +0.005 A 
ENDBRANCH  15  22
ENDBRANCH  14  15
ENDBRANCH  10  14
ENDBRANCH   1  11
BRANCH   1  25
ATOM     25  N   UNL     1       3.132  -6.413   4.161  0.00  0.00    -0.289 N 
ATOM     26  C   UNL     1       2.035  -7.337   4.458  0.00  0.00    +0.133 C 
ATOM     27  C   UNL     1       4.365  -6.651   4.652  0.00  0.00    +0.220 C 
ATOM     28  O   UNL     1       5.248  -5.835   4.494  0.00  0.00    -0.275 OA
BRANCH  27  29
ATOM     29  C   UNL     1       4.648  -7.940   5.402  0.00  0.00    +0.079 C 
ATOM     30  C   UNL     1       3.850  -7.934   6.702  0.00  0.00    +0.017 C 
ATOM     31  C   UNL     1       4.608  -8.574   7.863  0.00  0.00    -0.004 C 
ATOM     32  C   UNL     1       5.939  -7.839   8.133  0.00  0.00    +0.008 C 
ATOM     33  C   UNL     1       6.477  -8.717   6.974  0.00  0.00    -0.001 C 
ATOM     34  C   UNL     1       6.149  -8.050   5.639  0.00  0.00    +0.001 C 
ATOM     35  C   UNL     1       6.826  -8.790   4.481  0.00  0.00    +0.008 C 
ATOM     36  C   UNL     1       5.479  -9.770   7.458  0.00  0.00    -0.029 C 
ATOM     37  C   UNL     1       4.881 -10.696   6.405  0.00  0.00    +0.011 C 
ATOM     38  C   UNL     1       5.991 -10.578   8.668  0.00  0.00    +0.011 C 
ENDBRANCH  27  29
ENDBRANCH   1  25
TORSDOF 8
