REMARK  Name = ZINC62243001
REMARK  5 active torsions:
REMARK  status: ('A' for Active; 'I' for Inactive)
REMARK    1  A    between atoms: C_4  and  C_7
REMARK    2  A    between atoms: C_7  and  C_9
REMARK    3  A    between atoms: C_7  and  N_13
REMARK    4  A    between atoms: N_10  and  O_11
REMARK    5  A    between atoms: C_14  and  C_16
REMARK                            x       y       z     vdW  Elec       q    Type
REMARK                         _______ _______ _______ _____ _____    ______ ____
ROOT
ATOM      1  C   UNL     1       2.864  -0.446  -2.518  0.00  0.00    +0.142 C 
ENDROOT
BRANCH   1   5
ATOM      2  C   UNL     1      -0.009   1.236   0.248  0.00  0.00    +0.000 C 
ATOM      3  C   UNL     1       1.359   1.911   0.130  0.00  0.00    +0.000 C 
ATOM      4  C   UNL     1       2.022   1.492  -1.184  0.00  0.00    +0.006 C 
ATOM      5  C   UNL     1       2.200  -0.028  -1.204  0.00  0.00    +0.017 C 
ATOM      6  C   UNL     1       0.832  -0.703  -1.085  0.00  0.00    +0.006 C 
ATOM      7  C   UNL     1       0.169  -0.284   0.228  0.00  0.00    +0.000 C 
ENDBRANCH   1   5
BRANCH   1   8
ATOM      8  C   UNL     1       4.241   0.159  -2.600  0.00  0.00    +0.152 C 
ATOM      9  N   UNL     1       4.568   0.885  -3.617  0.00  0.00    -0.075 NA
ATOM     10  N   UNL     1       5.152  -0.063  -1.591  0.00  0.00    -0.342 N 
ATOM     11  H   UNL     1       4.937  -0.675  -0.869  0.00  0.00    +0.144 HD
ATOM     12  H   UNL     1       6.008   0.394  -1.601  0.00  0.00    +0.144 HD
BRANCH   9  13
ATOM     13  O   UNL     1       5.863   1.453  -3.694  0.00  0.00    -0.408 OA
ATOM     14  H   UNL     1       6.014   1.980  -4.491  0.00  0.00    +0.328 HD
ENDBRANCH   9  13
ENDBRANCH   1   8
BRANCH   1  15
ATOM     15  N   UNL     1       2.967  -1.907  -2.568  0.00  0.00    -0.305 N 
ATOM     16  C   UNL     1       3.032  -2.537  -3.758  0.00  0.00    +0.219 C 
ATOM     17  O   UNL     1       3.005  -1.895  -4.786  0.00  0.00    -0.275 OA
ATOM     18  H   UNL     1       2.990  -2.420  -1.746  0.00  0.00    +0.149 HD
BRANCH  16  19
ATOM     19  C   UNL     1       3.139  -4.039  -3.810  0.00  0.00    +0.101 C 
ATOM     20  C   UNL     1       3.200  -4.497  -5.270  0.00  0.00    +0.017 C 
ATOM     21  C   UNL     1       3.387  -6.017  -5.309  0.00  0.00    +0.029 C 
ATOM     22  C   UNL     1       4.652  -6.388  -4.531  0.00  0.00    +0.160 C 
ATOM     23  O   UNL     1       4.543  -5.906  -3.190  0.00  0.00    -0.379 OA
ATOM     24  C   UNL     1       4.413  -4.487  -3.088  0.00  0.00    +0.172 C 
ENDBRANCH  16  19
ENDBRANCH   1  15
TORSDOF 5
