REMARK  Name = ZINC02645918
REMARK  11 active torsions:
REMARK  status: ('A' for Active; 'I' for Inactive)
REMARK    1  A    between atoms: C_1  and  C_2
REMARK    2  A    between atoms: C_2  and  C_3
REMARK    3  A    between atoms: C_3  and  C_5
REMARK    4  A    between atoms: C_3  and  C_6
REMARK    5  A    between atoms: C_6  and  C_8
REMARK    6  A    between atoms: C_6  and  N_26
REMARK    7  A    between atoms: N_10  and  C_11
REMARK    8  A    between atoms: C_14  and  S_17
REMARK    9  A    between atoms: S_17  and  C_18
REMARK   10  A    between atoms: C_20  and  C_25
REMARK   11  A    between atoms: C_23  and  C_24
REMARK                            x       y       z     vdW  Elec       q    Type
REMARK                         _______ _______ _______ _____ _____    ______ ____
ROOT
ATOM      1  C   UNL     1       2.461   4.363   0.163  0.00  0.00    +0.238 C 
ATOM      2  O   UNL     1       3.293   3.709  -0.429  0.00  0.00    -0.273 OA
ATOM      3  N   UNL     1       1.542   3.747   0.932  0.00  0.00    -0.284 N 
ATOM      4  H   UNL     1       0.822   4.259   1.333  0.00  0.00    +0.155 HD
ENDROOT
BRANCH   3   5
ATOM      5  C   UNL     1       1.627   2.366   1.155  0.00  0.00    +0.034 A 
ATOM      6  C   UNL     1       0.468   1.613   1.295  0.00  0.00    +0.024 A 
ATOM      7  C   UNL     1       0.551   0.253   1.513  0.00  0.00    +0.017 A 
ATOM      8  C   UNL     1       1.794  -0.364   1.593  0.00  0.00    +0.013 A 
ATOM      9  C   UNL     1       2.953   0.390   1.452  0.00  0.00    +0.017 A 
ATOM     10  C   UNL     1       2.869   1.750   1.234  0.00  0.00    +0.024 A 
BRANCH   8  11
ATOM     11  S   UNL     1       1.900  -2.100   1.872  0.00  0.00    -0.089 S 
BRANCH  11  12
ATOM     12  C   UNL     1       1.768  -2.800   0.260  0.00  0.00    +0.016 A 
ATOM     13  C   UNL     1       1.752  -1.975  -0.858  0.00  0.00    +0.018 A 
ATOM     14  C   UNL     1       1.653  -2.527  -2.120  0.00  0.00    -0.049 A 
ATOM     15  C   UNL     1       1.560  -3.899  -2.271  0.00  0.00    +0.004 A 
ATOM     16  C   UNL     1       1.571  -4.723  -1.160  0.00  0.00    +0.005 A 
ATOM     17  C   UNL     1       1.674  -4.178   0.105  0.00  0.00    -0.037 A 
ATOM     18  C   UNL     1       1.685  -5.076   1.315  0.00  0.00    +0.045 C 
ATOM     19  C   UNL     1       1.641  -1.634  -3.334  0.00  0.00    +0.044 C 
ENDBRANCH  11  12
ENDBRANCH   8  11
ENDBRANCH   3   5
BRANCH   1  20
ATOM     20  C   UNL     1       2.454   5.865   0.037  0.00  0.00    +0.163 C 
BRANCH  20  21
ATOM     21  N   UNL     1       3.786   6.328  -0.356  0.00  0.00    -0.288 N 
ATOM     22  H   UNL     1       4.385   5.733  -0.834  0.00  0.00    +0.151 HD
ATOM     23  C   UNL     1       4.180   7.582  -0.055  0.00  0.00    +0.298 C 
ATOM     24  O   UNL     1       3.430   8.327   0.543  0.00  0.00    -0.253 OA
ATOM     25  N   UNL     1       5.406   8.008  -0.417  0.00  0.00    -0.313 N 
ATOM     26  H   UNL     1       6.005   7.413  -0.895  0.00  0.00    +0.146 HD
ATOM     27  H   UNL     1       5.690   8.910  -0.201  0.00  0.00    +0.146 HD
ENDBRANCH  20  21
BRANCH  20  28
ATOM     28  C   UNL     1       1.434   6.283  -1.024  0.00  0.00    +0.015 C 
ATOM     29  C   UNL     1       1.897   5.794  -2.397  0.00  0.00    +0.010 C 
BRANCH  28  31
ATOM     30  C   UNL     1       0.754   8.290   0.301  0.00  0.00    +0.004 C 
ATOM     31  C   UNL     1       1.312   7.808  -1.040  0.00  0.00    +0.002 C 
ENDBRANCH  28  31
ENDBRANCH  20  28
ENDBRANCH   1  20
TORSDOF 7
