REMARK  Name = ZINC64097906
REMARK  8 active torsions:
REMARK  status: ('A' for Active; 'I' for Inactive)
REMARK    1  A    between atoms: C_1  and  O_2
REMARK    2  A    between atoms: O_2  and  C_3
REMARK    3  A    between atoms: C_10  and  C_18
REMARK    4  A    between atoms: C_20  and  O_36
REMARK    5  A    between atoms: C_22  and  O_35
REMARK    6  A    between atoms: N_24  and  C_27
REMARK    7  A    between atoms: C_32  and  O_33
REMARK    8  A    between atoms: O_33  and  C_34
REMARK                            x       y       z     vdW  Elec       q    Type
REMARK                         _______ _______ _______ _____ _____    ______ ____
ROOT
ATOM      1  C   UNL     1      -6.377  -5.156   0.929  0.00  0.00    +0.179 C 
ATOM      2  C   UNL     1      -6.862  -5.996   2.074  0.00  0.00    +0.200 C 
ATOM      3  N   UNL     1      -7.076  -7.250   1.972  0.00  0.00    -0.204 NA
ATOM      4  C   UNL     1      -6.878  -8.016   0.752  0.00  0.00    +0.339 C 
ATOM      5  N   UNL     1      -6.873  -7.169  -0.432  0.00  0.00    -0.222 N 
ATOM      6  C   UNL     1      -6.635  -5.856  -0.375  0.00  0.00    +0.237 C 
ATOM      7  O   UNL     1      -6.628  -5.215  -1.404  0.00  0.00    -0.274 OA
ENDROOT
BRANCH   1  14
ATOM      8  C   UNL     1      -1.256  -0.517   0.364  0.00  0.00    +0.121 A 
ATOM      9  C   UNL     1      -2.437   0.239   0.465  0.00  0.00    +0.047 A 
ATOM     10  C   UNL     1      -3.664  -0.324   0.434  0.00  0.00    +0.029 A 
ATOM     11  C   UNL     1      -3.798  -1.776   0.292  0.00  0.00    +0.043 A 
ATOM     12  N   UNL     1      -4.851  -2.560   0.259  0.00  0.00    -0.376 N 
ATOM     13  C   UNL     1      -4.402  -3.925   0.008  0.00  0.00    +0.124 C 
ATOM     14  C   UNL     1      -4.875  -4.908   1.083  0.00  0.00    +0.101 C 
ATOM     15  N   UNL     1      -4.143  -6.173   0.908  0.00  0.00    -0.310 NA
ATOM     16  C   UNL     1      -2.710  -6.055   1.190  0.00  0.00    +0.085 C 
ATOM     17  C   UNL     1      -2.043  -5.125   0.159  0.00  0.00    +0.048 C 
ATOM     18  C   UNL     1      -2.884  -3.870   0.088  0.00  0.00    -0.036 C 
ATOM     19  C   UNL     1      -2.552  -2.579   0.196  0.00  0.00    +0.003 A 
ATOM     20  C   UNL     1      -1.270  -1.864   0.229  0.00  0.00    +0.055 A 
ATOM     21  H   UNL     1      -4.560  -6.911   1.456  0.00  0.00    +0.122 HD
ATOM     22  H   UNL     1      -5.771  -2.279   0.381  0.00  0.00    +0.160 HD
BRANCH   8  24
ATOM     23  C   UNL     1      -0.092   1.548   0.542  0.00  0.00    +0.277 C 
ATOM     24  O   UNL     1      -0.060   0.127   0.398  0.00  0.00    -0.495 OA
ENDBRANCH   8  24
ENDBRANCH   1  14
BRANCH   5  25
ATOM     25  C   UNL     1      -7.125  -7.756  -1.679  0.00  0.00    +0.082 A 
ATOM     26  C   UNL     1      -8.423  -7.837  -2.160  0.00  0.00    +0.027 A 
ATOM     27  C   UNL     1      -8.669  -8.415  -3.391  0.00  0.00    +0.002 A 
ATOM     28  C   UNL     1      -7.623  -8.914  -4.146  0.00  0.00    +0.004 A 
ATOM     29  C   UNL     1      -6.327  -8.838  -3.673  0.00  0.00    +0.047 A 
ATOM     30  C   UNL     1      -6.071  -8.254  -2.443  0.00  0.00    +0.142 A 
BRANCH  30  31
ATOM     31  O   UNL     1      -4.795  -8.172  -1.979  0.00  0.00    -0.493 OA
ATOM     32  C   UNL     1      -3.766  -8.704  -2.815  0.00  0.00    +0.277 C 
ENDBRANCH  30  31
ENDBRANCH   5  25
BRANCH   4  33
ATOM     33  O   UNL     1      -5.629  -8.705   0.834  0.00  0.00    -0.356 OA
ATOM     34  H   UNL     1      -5.568  -9.321   1.577  0.00  0.00    +0.214 HD
ENDBRANCH   4  33
BRANCH   2  35
ATOM     35  O   UNL     1      -7.080  -5.399   3.264  0.00  0.00    -0.495 OA
ATOM     36  H   UNL     1      -7.390  -6.001   3.955  0.00  0.00    +0.293 HD
ENDBRANCH   2  35
TORSDOF 6
