REMARK  Name = ZINC40011620
REMARK  11 active torsions:
REMARK  status: ('A' for Active; 'I' for Inactive)
REMARK    1  A    between atoms: C_1  and  C_2
REMARK    2  A    between atoms: C_4  and  C_29
REMARK    3  A    between atoms: C_9  and  C_27
REMARK    4  A    between atoms: C_10  and  N_12
REMARK    5  A    between atoms: N_12  and  C_13
REMARK    6  A    between atoms: C_13  and  C_14
REMARK    7  A    between atoms: C_14  and  C_15
REMARK    8  A    between atoms: C_15  and  N_16
REMARK    9  A    between atoms: N_16  and  C_17
REMARK   10  A    between atoms: C_17  and  N_19
REMARK   11  A    between atoms: N_19  and  C_20
REMARK                            x       y       z     vdW  Elec       q    Type
REMARK                         _______ _______ _______ _____ _____    ______ ____
ROOT
ATOM      1  N   UNL     1       1.247  -6.277   0.902  0.00  0.00    -0.328 N 
ATOM      2  H   UNL     1       0.960  -6.751   1.698  0.00  0.00    +0.147 HD
ENDROOT
BRANCH   1  12
ATOM      3  C   UNL     1       3.414   1.129  -0.008  0.00  0.00    +0.044 C 
ATOM      4  C   UNL     1       3.026  -0.327  -0.018  0.00  0.00    -0.050 A 
ATOM      5  C   UNL     1       3.074  -1.043  -1.212  0.00  0.00    +0.008 A 
ATOM      6  C   UNL     1       2.730  -2.360  -1.256  0.00  0.00    -0.024 A 
ATOM      7  C   UNL     1       2.319  -3.014  -0.083  0.00  0.00    +0.076 A 
ATOM      8  C   UNL     1       2.271  -2.284   1.131  0.00  0.00    +0.002 A 
ATOM      9  C   UNL     1       2.638  -0.928   1.141  0.00  0.00    +0.013 A 
ATOM     10  C   UNL     1       1.861  -2.934   2.309  0.00  0.00    +0.032 A 
ATOM     11  C   UNL     1       1.516  -4.277   2.229  0.00  0.00    +0.092 A 
ATOM     12  C   UNL     1       1.589  -4.939   0.981  0.00  0.00    +0.137 A 
ATOM     13  N   UNL     1       1.977  -4.308  -0.106  0.00  0.00    -0.231 NA
ATOM     14  C   UNL     1       2.789  -3.113  -2.561  0.00  0.00    +0.046 C 
BRANCH  11  15
ATOM     15  C   UNL     1       1.092  -4.985   3.399  0.00  0.00    +0.103 C 
ATOM     16  N   UNL     1       0.756  -5.546   4.328  0.00  0.00    -0.191 NA
ENDBRANCH  11  15
ENDBRANCH   1  12
BRANCH   1  17
ATOM     17  C   UNL     1       1.317  -6.977  -0.383  0.00  0.00    +0.104 C 
BRANCH  17  18
ATOM     18  C   UNL     1       0.889  -8.434  -0.194  0.00  0.00    +0.037 C 
BRANCH  18  19
ATOM     19  C   UNL     1       0.962  -9.165  -1.536  0.00  0.00    +0.105 C 
BRANCH  19  20
ATOM     20  N   UNL     1       0.553 -10.559  -1.355  0.00  0.00    -0.326 N 
ATOM     21  H   UNL     1       0.291 -10.878  -0.477  0.00  0.00    +0.148 HD
BRANCH  20  22
ATOM     22  C   UNL     1       0.539 -11.400  -2.409  0.00  0.00    +0.135 C 
ATOM     23  S   UNL     1       1.000 -10.837  -3.959  0.00  0.00    -0.019 S 
BRANCH  22  24
ATOM     24  N   UNL     1       0.162 -12.683  -2.243  0.00  0.00    -0.297 N 
ATOM     25  H   UNL     1      -0.040 -13.018  -1.355  0.00  0.00    +0.154 HD
BRANCH  24  26
ATOM     26  C   UNL     1       0.062 -13.532  -3.351  0.00  0.00    +0.033 A 
ATOM     27  C   UNL     1       1.071 -13.552  -4.305  0.00  0.00    +0.026 A 
ATOM     28  C   UNL     1       0.970 -14.390  -5.398  0.00  0.00    +0.040 A 
ATOM     29  C   UNL     1      -0.136 -15.211  -5.543  0.00  0.00    +0.124 A 
ATOM     30  C   UNL     1      -1.143 -15.193  -4.593  0.00  0.00    +0.040 A 
ATOM     31  C   UNL     1      -1.043 -14.361  -3.495  0.00  0.00    +0.026 A 
ATOM     32  F   UNL     1      -0.232 -16.031  -6.612  0.00  0.00    -0.205 F 
ENDBRANCH  24  26
ENDBRANCH  22  24
ENDBRANCH  20  22
ENDBRANCH  19  20
ENDBRANCH  18  19
ENDBRANCH  17  18
ENDBRANCH   1  17
TORSDOF 9
