REMARK  Name = ZINC09088094
REMARK  3 active torsions:
REMARK  status: ('A' for Active; 'I' for Inactive)
REMARK    1  A    between atoms: C_1  and  C_2
REMARK    2  A    between atoms: C_5  and  N_8
REMARK    3  A    between atoms: C_27  and  C_32
REMARK                            x       y       z     vdW  Elec       q    Type
REMARK                         _______ _______ _______ _____ _____    ______ ____
ROOT
ATOM      1  N   UNL     1      -2.429   1.039   0.020  0.00  0.00    -0.210 N 
ATOM      2  C   UNL     1      -2.500  -0.332   0.013  0.00  0.00    +0.228 C 
ATOM      3  O   UNL     1      -1.605  -1.121   0.228  0.00  0.00    -0.275 OA
ATOM      4  C   UNL     1      -3.878  -0.626  -0.304  0.00  0.00    +0.074 C 
ATOM      5  C   UNL     1      -4.853  -1.724  -0.181  0.00  0.00    -0.054 C 
ATOM      6  C   UNL     1      -5.016  -2.236   1.254  0.00  0.00    -0.016 C 
ATOM      7  C   UNL     1      -6.510  -2.652   1.282  0.00  0.00    -0.020 C 
ATOM      8  C   UNL     1      -7.182  -1.587   0.390  0.00  0.00    -0.076 C 
ATOM      9  C   UNL     1      -5.965   0.411  -0.266  0.00  0.00    +0.053 C 
ATOM     10  C   UNL     1      -4.627   0.553   0.440  0.00  0.00    +0.089 C 
ATOM     11  C   UNL     1      -3.661   1.631   0.034  0.00  0.00    +0.229 C 
ATOM     12  O   UNL     1      -3.921   2.786  -0.228  0.00  0.00    -0.275 OA
ATOM     13  C   UNL     1      -6.019   1.171  -1.562  0.00  0.00    -0.027 A 
ATOM     14  C   UNL     1      -5.281   1.121  -2.724  0.00  0.00    +0.006 A 
ATOM     15  C   UNL     1      -5.579   1.970  -3.774  0.00  0.00    +0.020 A 
ATOM     16  C   UNL     1      -6.625   2.869  -3.657  0.00  0.00    +0.046 A 
ATOM     17  C   UNL     1      -7.371   2.920  -2.497  0.00  0.00    -0.011 A 
ATOM     18  C   UNL     1      -7.077   2.067  -1.436  0.00  0.00    +0.040 A 
ATOM     19  N   UNL     1      -7.682   1.927  -0.185  0.00  0.00    -0.286 N 
ATOM     20  C   UNL     1      -7.094   0.972   0.559  0.00  0.00    +0.212 C 
ATOM     21  O   UNL     1      -7.411   0.629   1.678  0.00  0.00    -0.277 OA
ATOM     22  C   UNL     1      -8.509   3.901  -2.378  0.00  0.00    +0.047 C 
ATOM     23 CL   UNL     1      -6.999   3.937  -4.974  0.00  0.00    -0.083 Cl
ATOM     24  H   UNL     1      -8.438   2.456   0.113  0.00  0.00    +0.155 HD
ATOM     25  N   UNL     1      -6.134  -1.053  -0.491  0.00  0.00    +0.395 N 
ATOM     26  H   UNL     1      -6.389  -1.225  -1.471  0.00  0.00    -0.079 HD
ENDROOT
BRANCH   1  31
ATOM     27  C   UNL     1       2.452   3.935   0.000  0.00  0.00    +0.044 C 
ATOM     28  C   UNL     1       1.156   3.166   0.008  0.00  0.00    -0.050 A 
ATOM     29  C   UNL     1       1.174   1.783   0.000  0.00  0.00    +0.005 A 
ATOM     30  C   UNL     1      -0.013   1.076   0.008  0.00  0.00    +0.024 A 
ATOM     31  C   UNL     1      -1.224   1.754   0.017  0.00  0.00    +0.044 A 
ATOM     32  C   UNL     1      -1.239   3.142   0.030  0.00  0.00    +0.024 A 
ATOM     33  C   UNL     1      -0.049   3.844   0.023  0.00  0.00    +0.005 A 
ENDBRANCH   1  31
TORSDOF 1
