REMARK  Name = ZINC44714429
REMARK  9 active torsions:
REMARK  status: ('A' for Active; 'I' for Inactive)
REMARK    1  A    between atoms: C_1  and  C_2
REMARK    2  A    between atoms: C_3  and  C_14
REMARK    3  A    between atoms: C_6  and  C_12
REMARK    4  A    between atoms: C_14  and  C_15
REMARK    5  A    between atoms: C_15  and  N_16
REMARK    6  A    between atoms: C_17  and  C_19
REMARK    7  A    between atoms: C_30  and  C_32
REMARK    8  A    between atoms: C_37  and  O_38
REMARK    9  A    between atoms: O_38  and  C_39
REMARK                            x       y       z     vdW  Elec       q    Type
REMARK                         _______ _______ _______ _____ _____    ______ ____
ROOT
ATOM      1  C   UNL     1       2.558   1.083  -6.475  0.00  0.00    +0.100 C 
ATOM      2  C   UNL     1       2.031  -0.024  -7.415  0.00  0.00    +0.121 C 
ATOM      3  N   UNL     1       2.846   0.111  -8.646  0.00  0.00    -0.296 N 
ATOM      4  C   UNL     1       4.211   0.414  -8.153  0.00  0.00    +0.115 C 
ATOM      5  C   UNL     1       3.989   1.367  -6.962  0.00  0.00    -0.004 C 
ATOM      6  C   UNL     1       4.994   1.069  -5.854  0.00  0.00    -0.010 C 
ATOM      7  C   UNL     1       6.403   1.415  -6.342  0.00  0.00    -0.082 C 
ATOM      8  N   UNL     1       6.460   2.834  -6.712  0.00  0.00    +0.379 N 
ATOM      9  C   UNL     1       5.559   3.094  -7.841  0.00  0.00    -0.082 C 
ATOM     10  C   UNL     1       4.113   2.819  -7.416  0.00  0.00    -0.010 C 
ATOM     11  C   UNL     1       2.437  -0.013  -9.924  0.00  0.00    +0.250 C 
ATOM     12  O   UNL     1       1.257  -0.168 -10.173  0.00  0.00    -0.270 OA
ATOM     13  H   UNL     1       6.180   3.397  -5.923  0.00  0.00    -0.086 HD
ATOM     14  H   UNL     1       7.404   3.074  -6.975  0.00  0.00    -0.086 HD
ENDROOT
BRANCH  11  15
ATOM     15  C   UNL     1       3.422   0.040 -11.021  0.00  0.00    +0.078 A 
ATOM     16  C   UNL     1       4.700  -0.496 -10.845  0.00  0.00    +0.017 A 
ATOM     17  C   UNL     1       5.615  -0.444 -11.874  0.00  0.00    +0.001 A 
ATOM     18  C   UNL     1       5.274   0.138 -13.084  0.00  0.00    +0.004 A 
ATOM     19  C   UNL     1       4.014   0.671 -13.272  0.00  0.00    +0.046 A 
ATOM     20  C   UNL     1       3.079   0.623 -12.249  0.00  0.00    +0.132 A 
BRANCH  20  21
ATOM     21  O   UNL     1       1.839   1.142 -12.434  0.00  0.00    -0.494 OA
ATOM     22  C   UNL     1       1.562   1.719 -13.711  0.00  0.00    +0.277 C 
ENDBRANCH  20  21
ENDBRANCH  11  15
BRANCH   1  24
ATOM     23  N   UNL     1       2.593   1.482  -4.034  0.00  0.00    -0.315 N 
ATOM     24  C   UNL     1       2.576   0.596  -5.049  0.00  0.00    +0.218 C 
ATOM     25  O   UNL     1       2.576  -0.594  -4.815  0.00  0.00    -0.275 OA
ATOM     26  H   UNL     1       2.593   2.434  -4.221  0.00  0.00    +0.149 HD
BRANCH  23  27
ATOM     27  C   UNL     1       2.611   1.008  -2.648  0.00  0.00    +0.109 C 
BRANCH  27  28
ATOM     28  C   UNL     1       2.627   2.208  -1.699  0.00  0.00    +0.056 C 
BRANCH  28  31
ATOM     29  C   UNL     1       5.157   1.610  -0.003  0.00  0.00    +0.063 C 
ATOM     30  C   UNL     1       3.734   1.460   0.468  0.00  0.00    +0.017 A 
ATOM     31  C   UNL     1       2.646   1.721  -0.273  0.00  0.00    -0.018 A 
ATOM     32  C   UNL     1       1.479   1.443   0.569  0.00  0.00    +0.004 A 
ATOM     33  C   UNL     1       0.102   1.521   0.370  0.00  0.00    +0.029 A 
ATOM     34  C   UNL     1      -0.758   1.174   1.407  0.00  0.00    +0.052 A 
ATOM     35  C   UNL     1      -0.239   0.750   2.639  0.00  0.00    +0.021 A 
ATOM     36  C   UNL     1       1.108   0.672   2.836  0.00  0.00    +0.027 A 
ATOM     37  C   UNL     1       1.988   1.015   1.811  0.00  0.00    +0.047 A 
ATOM     38  N   UNL     1       3.360   1.032   1.713  0.00  0.00    -0.358 N 
ATOM     39  H   UNL     1       3.971   0.781   2.422  0.00  0.00    +0.166 HD
BRANCH  34  40
ATOM     40  C   UNL     1      -2.176   1.250   1.217  0.00  0.00    +0.099 C 
ATOM     41  N   UNL     1      -3.300   1.310   1.066  0.00  0.00    -0.191 NA
ENDBRANCH  34  40
ENDBRANCH  28  31
ENDBRANCH  27  28
ENDBRANCH  23  27
ENDBRANCH   1  24
TORSDOF 7
