REMARK  Name = ZINC12825573
REMARK  3 active torsions:
REMARK  status: ('A' for Active; 'I' for Inactive)
REMARK    1  A    between atoms: C_5  and  C_7
REMARK    2  A    between atoms: C_7  and  C_8
REMARK    3  A    between atoms: C_14  and  C_16
REMARK                            x       y       z     vdW  Elec       q    Type
REMARK                         _______ _______ _______ _____ _____    ______ ____
ROOT
ATOM      1  C   UNL     1       1.963   8.316  -0.157  0.00  0.00    +0.015 A 
ATOM      2  C   UNL     1       0.759   7.704  -0.037  0.00  0.00    +0.124 A 
ATOM      3  N   UNL     1       0.724   6.385  -0.026  0.00  0.00    -0.233 NA
ATOM      4  C   UNL     1       1.828   5.671  -0.117  0.00  0.00    +0.165 A 
ATOM      5  S   UNL     1       3.049   6.900  -0.245  0.00  0.00    -0.057 S 
ATOM      6  N   UNL     1       1.977   4.290  -0.117  0.00  0.00    -0.259 N 
ATOM      7  C   UNL     1       0.894   3.496  -0.006  0.00  0.00    +0.271 C 
ATOM      8  O   UNL     1      -0.213   3.988   0.094  0.00  0.00    -0.268 OA
ATOM      9  H   UNL     1       2.861   3.897  -0.196  0.00  0.00    +0.157 HD
ENDROOT
BRANCH   7  10
ATOM     10  C   UNL     1       1.052   2.027  -0.005  0.00  0.00    +0.165 A 
ATOM     11  C   UNL     1      -0.080   1.195  -0.009  0.00  0.00    +0.147 A 
ATOM     12  N   UNL     1       0.074  -0.124  -0.009  0.00  0.00    -0.237 NA
ATOM     13  C   UNL     1       1.287  -0.647  -0.006  0.00  0.00    +0.132 A 
ATOM     14  C   UNL     1       2.405   0.176  -0.002  0.00  0.00    +0.131 A 
ATOM     15  N   UNL     1       2.267   1.486  -0.002  0.00  0.00    -0.246 NA
ATOM     16  N   UNL     1      -1.348   1.747  -0.018  0.00  0.00    -0.341 N 
ATOM     17  H   UNL     1      -2.126   1.174  -0.103  0.00  0.00    +0.144 HD
ATOM     18  H   UNL     1      -1.459   2.707   0.061  0.00  0.00    +0.144 HD
ENDBRANCH   7  10
BRANCH   1  19
ATOM     19  C   UNL     1       2.293   9.786  -0.203  0.00  0.00    +0.080 C 
BRANCH  19  24
ATOM     20  C   UNL     1       4.054  10.913   2.941  0.00  0.00    +0.000 A 
ATOM     21  C   UNL     1       2.985  11.215   3.763  0.00  0.00    +0.001 A 
ATOM     22  C   UNL     1       1.692  11.055   3.303  0.00  0.00    +0.015 A 
ATOM     23  C   UNL     1       1.467  10.597   2.017  0.00  0.00    +0.021 A 
ATOM     24  C   UNL     1       2.537  10.289   1.196  0.00  0.00    -0.029 A 
ATOM     25  C   UNL     1       3.831  10.450   1.657  0.00  0.00    +0.005 A 
ATOM     26 BR   UNL     1      -0.302  10.384   1.384  0.00  0.00    -0.050 Br
ENDBRANCH  19  24
ENDBRANCH   1  19
TORSDOF 3
