REMARK  Name = ZINC16384181
REMARK  6 active torsions:
REMARK  status: ('A' for Active; 'I' for Inactive)
REMARK    1  A    between atoms: C_1  and  C_2
REMARK    2  A    between atoms: C_9  and  C_11
REMARK    3  A    between atoms: N_13  and  N_14
REMARK    4  A    between atoms: N_14  and  C_15
REMARK    5  A    between atoms: C_15  and  N_17
REMARK    6  A    between atoms: N_17  and  C_18
REMARK                            x       y       z     vdW  Elec       q    Type
REMARK                         _______ _______ _______ _____ _____    ______ ____
ROOT
ATOM      1  C   UNL     1       1.854  -5.232   2.766  0.00  0.00    +0.267 C 
ATOM      2  O   UNL     1       2.919  -4.960   3.290  0.00  0.00    -0.268 OA
ATOM      3  N   UNL     1       1.489  -6.520   2.614  0.00  0.00    -0.231 N 
ATOM      4  H   UNL     1       0.640  -6.737   2.196  0.00  0.00    +0.173 HD
ENDROOT
BRANCH   1  12
ATOM      5  C   UNL     1      -0.865   1.588   0.929  0.00  0.00    +0.008 C 
ATOM      6  C   UNL     1      -0.791   0.064   0.816  0.00  0.00    -0.009 C 
ATOM      7  C   UNL     1      -2.176  -0.534   1.082  0.00  0.00    +0.009 C 
ATOM      8  C   UNL     1      -2.153  -2.021   0.703  0.00  0.00    +0.043 C 
ATOM      9  C   UNL     1      -0.938  -2.650   1.320  0.00  0.00    -0.006 A 
ATOM     10  C   UNL     1       0.142  -1.998   1.841  0.00  0.00    -0.036 A 
ATOM     11  C   UNL     1       1.154  -2.790   2.362  0.00  0.00    +0.024 A 
ATOM     12  C   UNL     1       0.970  -4.159   2.302  0.00  0.00    +0.076 A 
ATOM     13  S   UNL     1      -0.624  -4.278   1.512  0.00  0.00    -0.088 S 
ATOM     14  C   UNL     1       0.209  -0.474   1.840  0.00  0.00    +0.039 C 
ENDBRANCH   1  12
BRANCH   3  15
ATOM     15  N   UNL     1       2.334  -7.546   3.057  0.00  0.00    -0.245 N 
ATOM     16  H   UNL     1       3.182  -7.329   3.475  0.00  0.00    +0.172 HD
BRANCH  15  17
ATOM     17  C   UNL     1       1.968  -8.834   2.905  0.00  0.00    +0.151 C 
ATOM     18  S   UNL     1       3.000 -10.087   3.447  0.00  0.00    -0.017 S 
BRANCH  17  19
ATOM     19  N   UNL     1       0.789  -9.136   2.325  0.00  0.00    -0.294 N 
ATOM     20  H   UNL     1       0.176  -8.427   2.074  0.00  0.00    +0.154 HD
BRANCH  19  21
ATOM     21  C   UNL     1       0.449 -10.473   2.083  0.00  0.00    +0.068 A 
ATOM     22  C   UNL     1       0.610 -11.423   3.083  0.00  0.00    +0.029 A 
ATOM     23  C   UNL     1       0.274 -12.741   2.843  0.00  0.00    +0.040 A 
ATOM     24  C   UNL     1      -0.223 -13.117   1.606  0.00  0.00    +0.126 A 
ATOM     25  C   UNL     1      -0.385 -12.173   0.607  0.00  0.00    +0.078 A 
ATOM     26  C   UNL     1      -0.055 -10.851   0.844  0.00  0.00    +0.147 A 
ATOM     27  F   UNL     1      -0.217  -9.928  -0.130  0.00  0.00    -0.203 F 
ATOM     28  F   UNL     1      -0.550 -14.407   1.375  0.00  0.00    -0.205 F 
ENDBRANCH  19  21
ENDBRANCH  17  19
ENDBRANCH  15  17
ENDBRANCH   3  15
TORSDOF 5
