REMARK  Name = ZINC16534178
REMARK  7 active torsions:
REMARK  status: ('A' for Active; 'I' for Inactive)
REMARK    1  A    between atoms: C_4  and  N_7
REMARK    2  A    between atoms: C_9  and  C_18
REMARK    3  A    between atoms: C_10  and  C_12
REMARK    4  A    between atoms: C_12  and  C_13
REMARK    5  A    between atoms: N_22  and  C_26
REMARK    6  A    between atoms: C_26  and  C_27
REMARK    7  A    between atoms: C_31  and  N_33
REMARK                            x       y       z     vdW  Elec       q    Type
REMARK                         _______ _______ _______ _____ _____    ______ ____
ROOT
ATOM      1  C   UNL     1       5.928  -3.337   0.772  0.00  0.00    +0.043 C 
ATOM      2  C   UNL     1       5.897  -3.680   2.088  0.00  0.00    +0.099 C 
ATOM      3  C   UNL     1       6.541  -4.790   2.697  0.00  0.00    +0.269 C 
ATOM      4  O   UNL     1       7.232  -5.623   2.138  0.00  0.00    -0.268 OA
ATOM      5  N   UNL     1       6.244  -4.748   4.010  0.00  0.00    -0.216 N 
ATOM      6  C   UNL     1       5.459  -3.687   4.262  0.00  0.00    +0.313 C 
ATOM      7  O   UNL     1       5.026  -3.382   5.357  0.00  0.00    -0.252 OA
ATOM      8  N   UNL     1       5.228  -3.007   3.123  0.00  0.00    -0.265 N 
ATOM      9  H   UNL     1       4.695  -2.202   3.033  0.00  0.00    +0.157 HD
ENDROOT
BRANCH   1  12
ATOM     10  N   UNL     1       3.623  -0.652  -0.037  0.00  0.00    -0.196 N 
ATOM     11  C   UNL     1       3.880  -1.827   0.578  0.00  0.00    +0.281 A 
ATOM     12  C   UNL     1       5.208  -2.148   0.309  0.00  0.00    +0.066 A 
ATOM     13  C   UNL     1       5.730  -1.108  -0.498  0.00  0.00    +0.079 A 
ATOM     14  N   UNL     1       4.783  -0.234  -0.699  0.00  0.00    -0.167 NA
ATOM     15  O   UNL     1       3.010  -2.554   1.318  0.00  0.00    -0.265 OA
BRANCH  10  19
ATOM     16  C   UNL     1      -0.017   1.379   0.010  0.00  0.00    +0.000 A 
ATOM     17  C   UNL     1       1.170   2.089   0.002  0.00  0.00    +0.002 A 
ATOM     18  C   UNL     1       2.377   1.419  -0.013  0.00  0.00    +0.028 A 
ATOM     19  C   UNL     1       2.400   0.031  -0.021  0.00  0.00    +0.069 A 
ATOM     20  C   UNL     1       1.207  -0.680  -0.013  0.00  0.00    +0.028 A 
ATOM     21  C   UNL     1       0.002  -0.004   0.002  0.00  0.00    +0.002 A 
ENDBRANCH  10  19
BRANCH  13  22
ATOM     22  C   UNL     1       7.136  -1.027  -1.035  0.00  0.00    +0.100 C 
BRANCH  22  23
ATOM     23  C   UNL     1       7.198  -1.701  -2.382  0.00  0.00    -0.004 A 
ATOM     24  C   UNL     1       7.007  -1.167  -3.613  0.00  0.00    +0.011 A 
ATOM     25  C   UNL     1       7.115  -1.984  -4.722  0.00  0.00    +0.008 A 
ATOM     26  C   UNL     1       7.410  -3.296  -4.546  0.00  0.00    +0.045 A 
ATOM     27  S   UNL     1       7.550  -3.407  -2.770  0.00  0.00    -0.101 S 
ENDBRANCH  22  23
ENDBRANCH  13  22
ENDBRANCH   1  12
BRANCH   5  28
ATOM     28  C   UNL     1       6.707  -5.711   5.012  0.00  0.00    +0.153 C 
BRANCH  28  29
ATOM     29  C   UNL     1       8.018  -5.245   5.590  0.00  0.00    -0.027 A 
ATOM     30  C   UNL     1       9.209  -5.628   5.001  0.00  0.00    +0.005 A 
ATOM     31  C   UNL     1      10.411  -5.199   5.531  0.00  0.00    +0.003 A 
ATOM     32  C   UNL     1      10.423  -4.388   6.650  0.00  0.00    +0.033 A 
ATOM     33  C   UNL     1       9.233  -4.005   7.239  0.00  0.00    +0.127 A 
ATOM     34  C   UNL     1       8.030  -4.429   6.706  0.00  0.00    +0.038 A 
BRANCH  33  35
ATOM     35  N   UNL     1       9.246  -3.136   8.437  0.00  0.00    +0.056 N 
ATOM     36  O   UNL     1      10.298  -2.763   8.902  0.00  0.00    -0.126 OA
ATOM     37  O   UNL     1       8.205  -2.801   8.952  0.00  0.00    -0.126 OA
ENDBRANCH  33  35
ENDBRANCH  28  29
ENDBRANCH   5  28
TORSDOF 7
