REMARK  Name = ZINC44451678
REMARK  3 active torsions:
REMARK  status: ('A' for Active; 'I' for Inactive)
REMARK    1  A    between atoms: C_6  and  N_7
REMARK    2  A    between atoms: N_10  and  C_11
REMARK    3  A    between atoms: C_17  and  N_19
REMARK                            x       y       z     vdW  Elec       q    Type
REMARK                         _______ _______ _______ _____ _____    ______ ____
ROOT
ATOM      1  N   UNL     1      -1.202  -0.721   0.010  0.00  0.00    -0.269 N 
ATOM      2  C   UNL     1      -2.375  -0.068   0.127  0.00  0.00    +0.304 C 
ATOM      3  O   UNL     1      -2.395   1.148   0.134  0.00  0.00    -0.253 OA
ATOM      4  N   UNL     1      -3.525  -0.762   0.236  0.00  0.00    -0.295 N 
ATOM      5  H   UNL     1      -1.191  -1.688  -0.063  0.00  0.00    +0.156 HD
ATOM      6  H   UNL     1      -3.509  -1.732   0.230  0.00  0.00    +0.151 HD
ENDROOT
BRANCH   1  12
ATOM      7  C   UNL     1       1.138  -0.541   0.582  0.00  0.00    +0.027 A 
ATOM      8  C   UNL     1       2.326   0.166   0.567  0.00  0.00    +0.051 A 
ATOM      9  C   UNL     1       2.386   1.412  -0.035  0.00  0.00    +0.166 A 
ATOM     10  C   UNL     1       1.246   1.954  -0.626  0.00  0.00    +0.168 A 
ATOM     11  C   UNL     1       0.057   1.245  -0.611  0.00  0.00    +0.073 A 
ATOM     12  C   UNL     1       0.002  -0.003  -0.006  0.00  0.00    +0.038 A 
ATOM     13  O   UNL     1       1.563   3.177  -1.142  0.00  0.00    -0.453 OA
ATOM     14  C   UNL     1       2.798   3.556  -0.505  0.00  0.00    +0.466 C 
ATOM     15  O   UNL     1       3.416   2.297  -0.181  0.00  0.00    -0.453 OA
ENDBRANCH   1  12
BRANCH   4  16
ATOM     16  C   UNL     1      -4.800  -0.051   0.363  0.00  0.00    +0.095 C 
ATOM     17  C   UNL     1      -5.044   0.300   1.832  0.00  0.00    +0.024 C 
ATOM     18  C   UNL     1      -6.375   1.042   1.964  0.00  0.00    +0.002 C 
ATOM     19  C   UNL     1      -7.510   0.148   1.458  0.00  0.00    +0.002 C 
ATOM     20  C   UNL     1      -7.266  -0.203  -0.011  0.00  0.00    +0.025 C 
ATOM     21  C   UNL     1      -5.934  -0.945  -0.143  0.00  0.00    +0.105 C 
BRANCH  21  22
ATOM     22  N   UNL     1      -5.700  -1.282  -1.550  0.00  0.00    -0.228 N 
ATOM     23  C   UNL     1      -5.578  -2.557  -1.877  0.00  0.00    +0.233 C 
ATOM     24  O   UNL     1      -5.652  -3.446  -1.056  0.00  0.00    -0.274 OA
ATOM     25  C   UNL     1      -5.337  -2.832  -3.354  0.00  0.00    +0.175 C 
ATOM     26  S   UNL     1      -5.338  -1.106  -3.998  0.00  0.00    -0.058 S 
ATOM     27  C   UNL     1      -5.628  -0.277  -2.442  0.00  0.00    +0.281 C 
ATOM     28  O   UNL     1      -5.733   0.917  -2.237  0.00  0.00    -0.262 OA
ENDBRANCH  21  22
ENDBRANCH   4  16
TORSDOF 3
