REMARK  Name = ZINC07648155
REMARK  7 active torsions:
REMARK  status: ('A' for Active; 'I' for Inactive)
REMARK    1  A    between atoms: C_1  and  C_2
REMARK    2  A    between atoms: C_2  and  C_4
REMARK    3  A    between atoms: C_2  and  N_53
REMARK    4  A    between atoms: N_9  and  C_10
REMARK    5  A    between atoms: C_16  and  C_18
REMARK    6  A    between atoms: C_16  and  C_24
REMARK    7  A    between atoms: C_16  and  N_53
REMARK                            x       y       z     vdW  Elec       q    Type
REMARK                         _______ _______ _______ _____ _____    ______ ____
ROOT
ATOM      1  C   UNL     1       0.148  -0.520   1.435  0.00  0.00    -0.004 C 
ATOM      2  C   UNL     1       0.002  -0.004   0.002  0.00  0.00    +0.015 C 
ENDROOT
BRANCH   2   3
ATOM      3  C   UNL     1      -1.284  -0.521  -0.589  0.00  0.00    +0.206 C 
ATOM      4  O   UNL     1      -2.134   0.258  -0.966  0.00  0.00    -0.277 OA
ATOM      5  N   UNL     1      -1.491  -1.848  -0.698  0.00  0.00    -0.242 N 
ATOM      6  C   UNL     1      -2.641  -2.310  -1.227  0.00  0.00    +0.306 C 
ATOM      7  O   UNL     1      -3.493  -1.530  -1.605  0.00  0.00    -0.252 OA
ATOM      8  N   UNL     1      -2.847  -3.638  -1.336  0.00  0.00    -0.296 N 
ATOM      9  H   UNL     1      -0.811  -2.471  -0.396  0.00  0.00    +0.159 HD
ATOM     10  H   UNL     1      -2.168  -4.260  -1.034  0.00  0.00    +0.151 HD
BRANCH   8  11
ATOM     11  C   UNL     1      -4.098  -4.140  -1.911  0.00  0.00    +0.074 C 
ATOM     12  C   UNL     1      -5.168  -4.212  -0.819  0.00  0.00    +0.022 C 
ATOM     13  C   UNL     1      -6.474  -4.736  -1.419  0.00  0.00    +0.002 C 
ATOM     14  C   UNL     1      -6.244  -6.133  -2.001  0.00  0.00    +0.000 C 
ATOM     15  C   UNL     1      -5.174  -6.061  -3.092  0.00  0.00    +0.002 C 
ATOM     16  C   UNL     1      -3.868  -5.536  -2.492  0.00  0.00    +0.022 C 
ENDBRANCH   8  11
ENDBRANCH   2   3
BRANCH   2  17
ATOM     17  N   UNL     1      -0.027   1.471   0.010  0.00  0.00    +0.396 N 
ATOM     18  H   UNL     1      -0.512   1.795   0.855  0.00  0.00    -0.083 HD
ATOM     19  H   UNL     1      -0.528   1.804  -0.822  0.00  0.00    -0.083 HD
BRANCH  17  20
ATOM     20  C   UNL     1       1.346   2.010   0.000  0.00  0.00    +0.028 C 
BRANCH  20  21
ATOM     21  C   UNL     1       1.341   3.389   0.608  0.00  0.00    -0.054 A 
ATOM     22  C   UNL     1       0.309   4.265   0.325  0.00  0.00    +0.002 A 
ATOM     23  C   UNL     1       0.302   5.528   0.886  0.00  0.00    +0.000 A 
ATOM     24  C   UNL     1       1.331   5.919   1.723  0.00  0.00    +0.000 A 
ATOM     25  C   UNL     1       2.365   5.045   2.002  0.00  0.00    +0.000 A 
ATOM     26  C   UNL     1       2.370   3.780   1.444  0.00  0.00    +0.002 A 
ENDBRANCH  20  21
BRANCH  20  27
ATOM     27  C   UNL     1       1.845   2.089  -1.420  0.00  0.00    +0.095 A 
ATOM     28  C   UNL     1       3.091   1.794  -1.833  0.00  0.00    +0.043 A 
ATOM     29  C   UNL     1       3.119   2.006  -3.231  0.00  0.00    +0.041 A 
ATOM     30  C   UNL     1       1.889   2.417  -3.588  0.00  0.00    +0.195 A 
ATOM     31  O   UNL     1       1.120   2.460  -2.488  0.00  0.00    -0.469 OA
ENDBRANCH  20  27
ENDBRANCH  17  20
ENDBRANCH   2  17
TORSDOF 6
