REMARK  Name = ZINC39226326
REMARK  6 active torsions:
REMARK  status: ('A' for Active; 'I' for Inactive)
REMARK    1  A    between atoms: C_1  and  C_2
REMARK    2  A    between atoms: C_2  and  C_3
REMARK    3  A    between atoms: C_2  and  N_4
REMARK    4  A    between atoms: C_15  and  C_20
REMARK    5  A    between atoms: C_24  and  C_26
REMARK    6  A    between atoms: N_28  and  N_29
REMARK                            x       y       z     vdW  Elec       q    Type
REMARK                         _______ _______ _______ _____ _____    ______ ____
ROOT
ATOM      1  N   UNL     1      -1.376  -0.512   0.012  0.00  0.00    +0.381 N 
ATOM      2  C   UNL     1      -1.354  -1.980   0.014  0.00  0.00    -0.075 C 
ATOM      3  C   UNL     1      -2.785  -2.515   0.107  0.00  0.00    +0.030 C 
ATOM      4  C   UNL     1      -3.591  -2.013  -1.093  0.00  0.00    +0.114 C 
ATOM      5  C   UNL     1      -3.544  -0.484  -1.129  0.00  0.00    +0.030 C 
ATOM      6  C   UNL     1      -2.085  -0.025  -1.177  0.00  0.00    -0.075 C 
ATOM      7  C   UNL     1      -5.050  -2.472  -0.954  0.00  0.00    +0.127 C 
ATOM      8  C   UNL     1      -5.795  -1.968  -2.177  0.00  0.00    +0.170 C 
ATOM      9  O   UNL     1      -6.921  -1.524  -2.100  0.00  0.00    -0.292 OA
ATOM     10  C   UNL     1      -5.078  -2.045  -3.463  0.00  0.00    +0.060 A 
ATOM     11  C   UNL     1      -5.752  -1.839  -4.666  0.00  0.00    +0.023 A 
ATOM     12  C   UNL     1      -5.053  -1.912  -5.864  0.00  0.00    -0.017 A 
ATOM     13  C   UNL     1      -3.684  -2.190  -5.856  0.00  0.00    +0.012 A 
ATOM     14  C   UNL     1      -3.017  -2.396  -4.668  0.00  0.00    +0.047 A 
ATOM     15  C   UNL     1      -3.701  -2.328  -3.461  0.00  0.00    +0.132 A 
ATOM     16  O   UNL     1      -3.040  -2.540  -2.298  0.00  0.00    -0.485 OA
ATOM     17  H   UNL     1      -1.848  -0.184   0.842  0.00  0.00    -0.081 HD
ENDROOT
BRANCH  12  18
ATOM     18  C   UNL     1      -5.759  -1.695  -7.151  0.00  0.00    -0.017 A 
ATOM     19  C   UNL     1      -7.124  -1.411  -7.159  0.00  0.00    +0.008 A 
ATOM     20  C   UNL     1      -7.784  -1.208  -8.355  0.00  0.00    +0.001 A 
ATOM     21  C   UNL     1      -7.098  -1.285  -9.550  0.00  0.00    +0.013 A 
ATOM     22  C   UNL     1      -5.731  -1.568  -9.556  0.00  0.00    +0.039 A 
ATOM     23  C   UNL     1      -5.059  -1.768  -8.351  0.00  0.00    +0.021 A 
BRANCH  22  24
ATOM     24  C   UNL     1      -4.996  -1.650 -10.836  0.00  0.00    +0.258 C 
ATOM     25  O   UNL     1      -3.805  -1.897 -10.839  0.00  0.00    -0.269 OA
ATOM     26  N   UNL     1      -5.646  -1.452 -12.000  0.00  0.00    -0.244 N 
ATOM     27  H   UNL     1      -6.595  -1.256 -11.998  0.00  0.00    +0.170 HD
BRANCH  26  28
ATOM     28  N   UNL     1      -4.967  -1.528 -13.183  0.00  0.00    -0.226 NA
ATOM     29  C   UNL     1      -5.598  -2.515 -14.096  0.00  0.00    +0.109 C 
ATOM     30  C   UNL     1      -5.100  -2.120 -15.503  0.00  0.00    +0.009 C 
ATOM     31  C   UNL     1      -6.275  -2.229 -16.495  0.00  0.00    +0.005 C 
ATOM     32  C   UNL     1      -6.166  -0.949 -17.360  0.00  0.00    +0.001 C 
ATOM     33  C   UNL     1      -5.738   0.124 -16.328  0.00  0.00    +0.005 C 
ATOM     34  C   UNL     1      -4.734  -0.619 -15.389  0.00  0.00    +0.009 C 
ATOM     35  C   UNL     1      -5.044  -0.244 -13.925  0.00  0.00    +0.109 C 
ENDBRANCH  26  28
ENDBRANCH  22  24
ENDBRANCH  12  18
BRANCH   1  37
ATOM     36  C   UNL     1      -0.019   1.526   0.010  0.00  0.00    -0.014 C 
ATOM     37  C   UNL     1       0.002  -0.004   0.002  0.00  0.00    -0.075 C 
ATOM     38  C   UNL     1       0.742  -0.511   1.242  0.00  0.00    -0.014 C 
ENDBRANCH   1  37
TORSDOF 4
