REMARK  Name = ZINC39706735
REMARK  12 active torsions:
REMARK  status: ('A' for Active; 'I' for Inactive)
REMARK    1  A    between atoms: C_1  and  C_2
REMARK    2  A    between atoms: C_6  and  N_9
REMARK    3  A    between atoms: C_7  and  C_8
REMARK    4  A    between atoms: C_10  and  C_30
REMARK    5  A    between atoms: C_13  and  S_14
REMARK    6  A    between atoms: S_14  and  C_15
REMARK    7  A    between atoms: C_15  and  C_16
REMARK    8  A    between atoms: N_18  and  C_19
REMARK    9  A    between atoms: C_22  and  O_25
REMARK   10  A    between atoms: O_25  and  C_26
REMARK   11  A    between atoms: C_30  and  C_31
REMARK   12  A    between atoms: N_35  and  C_36
REMARK                            x       y       z     vdW  Elec       q    Type
REMARK                         _______ _______ _______ _____ _____    ______ ____
ROOT
ATOM      1  N   UNL     1       0.032  -2.896   2.497  0.00  0.00    -0.274 N 
ATOM      2  C   UNL     1      -0.944  -3.259   3.386  0.00  0.00    +0.144 A 
ATOM      3  N   UNL     1      -0.347  -3.719   4.450  0.00  0.00    -0.133 NA
ATOM      4  N   UNL     1       0.928  -3.673   4.297  0.00  0.00    -0.122 NA
ATOM      5  C   UNL     1       1.219  -3.182   3.114  0.00  0.00    +0.197 A 
ENDROOT
BRANCH   1  11
ATOM      6  C   UNL     1      -0.099   1.041  -0.449  0.00  0.00    +0.044 C 
ATOM      7  C   UNL     1      -0.217  -0.447  -0.238  0.00  0.00    -0.046 A 
ATOM      8  C   UNL     1      -0.503  -1.276  -1.307  0.00  0.00    +0.004 A 
ATOM      9  C   UNL     1      -0.612  -2.641  -1.117  0.00  0.00    +0.002 A 
ATOM     10  C   UNL     1      -0.435  -3.181   0.142  0.00  0.00    +0.026 A 
ATOM     11  C   UNL     1      -0.148  -2.351   1.217  0.00  0.00    +0.053 A 
ATOM     12  C   UNL     1      -0.033  -0.981   1.022  0.00  0.00    -0.024 A 
ATOM     13  C   UNL     1       0.284  -0.078   2.186  0.00  0.00    +0.046 C 
ENDBRANCH   1  11
BRANCH   5  14
ATOM     14  S   UNL     1       2.832  -2.935   2.450  0.00  0.00    -0.076 S 
BRANCH  14  15
ATOM     15  C   UNL     1       3.941  -3.513   3.764  0.00  0.00    +0.173 C 
BRANCH  15  16
ATOM     16  C   UNL     1       5.372  -3.355   3.319  0.00  0.00    +0.227 C 
ATOM     17  O   UNL     1       5.620  -2.897   2.224  0.00  0.00    -0.275 OA
ATOM     18  N   UNL     1       6.377  -3.723   4.139  0.00  0.00    -0.285 N 
ATOM     19  H   UNL     1       6.182  -4.025   5.040  0.00  0.00    +0.155 HD
BRANCH  18  20
ATOM     20  C   UNL     1       7.703  -3.668   3.690  0.00  0.00    +0.034 A 
ATOM     21  C   UNL     1       8.616  -4.630   4.101  0.00  0.00    +0.027 A 
ATOM     22  C   UNL     1       9.922  -4.576   3.658  0.00  0.00    +0.048 A 
ATOM     23  C   UNL     1      10.323  -3.560   2.802  0.00  0.00    +0.130 A 
ATOM     24  C   UNL     1       9.412  -2.598   2.392  0.00  0.00    +0.048 A 
ATOM     25  C   UNL     1       8.104  -2.655   2.829  0.00  0.00    +0.027 A 
BRANCH  23  26
ATOM     26  O   UNL     1      11.610  -3.507   2.366  0.00  0.00    -0.406 OA
BRANCH  26  27
ATOM     27  C   UNL     1      11.954  -2.434   1.487  0.00  0.00    +0.575 C 
ATOM     28  F   UNL     1      11.724  -1.213   2.130  0.00  0.00    -0.133 F 
ATOM     29  F   UNL     1      13.305  -2.530   1.139  0.00  0.00    -0.133 F 
ATOM     30  F   UNL     1      11.168  -2.508   0.332  0.00  0.00    -0.133 F 
ENDBRANCH  26  27
ENDBRANCH  23  26
ENDBRANCH  18  20
ENDBRANCH  15  16
ENDBRANCH  14  15
ENDBRANCH   5  14
BRANCH   2  31
ATOM     31  C   UNL     1      -2.432  -3.147   3.175  0.00  0.00    +0.130 C 
BRANCH  31  32
ATOM     32  C   UNL     1      -2.898  -1.778   3.599  0.00  0.00    +0.026 A 
ATOM     33  C   UNL     1      -2.906  -0.672   2.828  0.00  0.00    +0.023 A 
ATOM     34  C   UNL     1      -3.416   0.383   3.609  0.00  0.00    +0.019 A 
ATOM     35  C   UNL     1      -3.700  -0.118   4.828  0.00  0.00    +0.085 A 
ATOM     36  N   UNL     1      -3.390  -1.446   4.826  0.00  0.00    -0.353 N 
ATOM     37  C   UNL     1      -3.555  -2.363   5.957  0.00  0.00    +0.148 C 
ENDBRANCH  31  32
ENDBRANCH   2  31
TORSDOF 9
