REMARK  Name = ZINC47537850
REMARK  7 active torsions:
REMARK  status: ('A' for Active; 'I' for Inactive)
REMARK    1  A    between atoms: C_4  and  C_7
REMARK    2  A    between atoms: C_12  and  N_22
REMARK    3  A    between atoms: C_14  and  C_16
REMARK    4  A    between atoms: N_22  and  C_23
REMARK    5  A    between atoms: C_23  and  C_24
REMARK    6  A    between atoms: C_24  and  S_25
REMARK    7  A    between atoms: S_25  and  N_28
REMARK                            x       y       z     vdW  Elec       q    Type
REMARK                         _______ _______ _______ _____ _____    ______ ____
ROOT
ATOM      1  C   UNL     1       3.719  -0.650  -0.006  0.00  0.00    +0.002 A 
ATOM      2  C   UNL     1       4.648  -0.377  -0.953  0.00  0.00    +0.056 A 
ATOM      3  S   UNL     1       5.987  -1.483  -0.554  0.00  0.00    -0.076 S 
ATOM      4  C   UNL     1       5.279  -2.282   0.862  0.00  0.00    +0.114 A 
ATOM      5  C   UNL     1       4.017  -1.665   0.997  0.00  0.00    +0.055 A 
ATOM      6  C   UNL     1       3.223  -2.126   2.083  0.00  0.00    +0.132 A 
ATOM      7  N   UNL     1       3.697  -3.068   2.879  0.00  0.00    -0.212 NA
ATOM      8  C   UNL     1       4.900  -3.604   2.698  0.00  0.00    +0.164 A 
ATOM      9  N   UNL     1       5.680  -3.220   1.696  0.00  0.00    -0.220 NA
ENDROOT
BRANCH   1  13
ATOM     10  C   UNL     1       0.012   1.429   0.051  0.00  0.00    +0.000 A 
ATOM     11  C   UNL     1       0.858   1.500   1.143  0.00  0.00    +0.001 A 
ATOM     12  C   UNL     1       2.063   0.827   1.130  0.00  0.00    +0.008 A 
ATOM     13  C   UNL     1       2.426   0.075   0.014  0.00  0.00    -0.017 A 
ATOM     14  C   UNL     1       1.569   0.007  -1.084  0.00  0.00    +0.008 A 
ATOM     15  C   UNL     1       0.367   0.684  -1.060  0.00  0.00    +0.001 A 
ENDBRANCH   1  13
BRANCH   8  16
ATOM     16  C   UNL     1       5.374  -4.658   3.627  0.00  0.00    +0.037 A 
ATOM     17  C   UNL     1       6.637  -5.235   3.462  0.00  0.00    +0.014 A 
ATOM     18  C   UNL     1       7.033  -6.214   4.356  0.00  0.00    +0.020 A 
ATOM     19  C   UNL     1       6.175  -6.588   5.374  0.00  0.00    +0.111 A 
ATOM     20  N   UNL     1       4.989  -6.026   5.504  0.00  0.00    -0.263 NA
ATOM     21  C   UNL     1       4.570  -5.086   4.681  0.00  0.00    +0.122 A 
ENDBRANCH   8  16
BRANCH   6  22
ATOM     22  N   UNL     1       1.966  -1.591   2.304  0.00  0.00    -0.327 N 
ATOM     23  H   UNL     1       1.586  -0.966   1.668  0.00  0.00    +0.148 HD
BRANCH  22  24
ATOM     24  C   UNL     1       1.209  -1.971   3.500  0.00  0.00    +0.127 C 
BRANCH  24  25
ATOM     25  C   UNL     1      -0.137  -1.244   3.503  0.00  0.00    +0.203 C 
BRANCH  25  26
ATOM     26  S   UNL     1      -1.074  -1.714   4.984  0.00  0.00    +0.028 S 
ATOM     27  O   UNL     1      -1.456  -3.080   4.909  0.00  0.00    -0.158 OA
ATOM     28  O   UNL     1      -0.440  -1.202   6.148  0.00  0.00    -0.158 OA
BRANCH  26  29
ATOM     29  N   UNL     1      -2.496  -0.871   4.873  0.00  0.00    -0.208 NA
ATOM     30  H   UNL     1      -3.308  -1.238   5.257  0.00  0.00    +0.144 HD
ATOM     31  H   UNL     1      -2.516  -0.012   4.424  0.00  0.00    +0.144 HD
ENDBRANCH  26  29
ENDBRANCH  25  26
ENDBRANCH  24  25
ENDBRANCH  22  24
ENDBRANCH   6  22
TORSDOF 7
