REMARK  Name = ZINC28448765
REMARK  8 active torsions:
REMARK  status: ('A' for Active; 'I' for Inactive)
REMARK    1  A    between atoms: C_1  and  C_2
REMARK    2  A    between atoms: N_4  and  C_5
REMARK    3  A    between atoms: C_6  and  C_14
REMARK    4  A    between atoms: C_14  and  O_16
REMARK    5  A    between atoms: O_16  and  C_17
REMARK    6  A    between atoms: C_17  and  C_18
REMARK    7  A    between atoms: N_20  and  C_21
REMARK    8  A    between atoms: C_26  and  C_27
REMARK                            x       y       z     vdW  Elec       q    Type
REMARK                         _______ _______ _______ _____ _____    ______ ____
ROOT
ATOM      1  O   UNL     1      -4.037   3.746   1.226  0.00  0.00    -0.452 OA
ENDROOT
BRANCH   1   2
ATOM      2  C   UNL     1      -3.914   3.095   0.051  0.00  0.00    +0.342 C 
ATOM      3  O   UNL     1      -4.028   3.704  -0.996  0.00  0.00    -0.245 OA
BRANCH   2   5
ATOM      4  C   UNL     1      -2.344   1.167   0.030  0.00  0.00    +0.086 A 
ATOM      5  C   UNL     1      -3.644   1.656   0.036  0.00  0.00    +0.091 A 
ATOM      6  C   UNL     1      -4.726   0.686   0.022  0.00  0.00    -0.021 A 
ATOM      7  C   UNL     1      -4.339  -0.608   0.015  0.00  0.00    -0.004 A 
ATOM      8  S   UNL     1      -2.569  -0.551   0.019  0.00  0.00    -0.077 S 
ATOM      9  C   UNL     1      -5.224  -1.816   0.007  0.00  0.00    +0.043 C 
ATOM     10  C   UNL     1      -6.646  -1.376   0.386  0.00  0.00    +0.005 C 
ATOM     11  C   UNL     1      -7.019  -0.144  -0.444  0.00  0.00    +0.005 C 
ATOM     12  C   UNL     1      -6.202   1.063   0.021  0.00  0.00    +0.037 C 
BRANCH   4  16
ATOM     13  C   UNL     1       1.315   2.001   0.036  0.00  0.00    +0.109 C 
ATOM     14  C   UNL     1       0.022   1.226   0.035  0.00  0.00    +0.214 C 
ATOM     15  O   UNL     1       0.043   0.013   0.027  0.00  0.00    -0.276 OA
ATOM     16  N   UNL     1      -1.156   1.880   0.036  0.00  0.00    -0.280 N 
ATOM     17  H   UNL     1      -1.174   2.980   0.043  0.00  0.00    +0.155 HD
ENDBRANCH   4  16
ENDBRANCH   2   5
ENDBRANCH   1   2
BRANCH   1  18
ATOM     18  C   UNL     1      -4.305   5.172   1.166  0.00  0.00    +0.328 C 
BRANCH  18  19
ATOM     19  C   UNL     1      -4.410   5.723   2.564  0.00  0.00    +0.255 C 
ATOM     20  O   UNL     1      -4.272   4.987   3.518  0.00  0.00    -0.272 OA
ATOM     21  N   UNL     1      -4.656   7.034   2.755  0.00  0.00    -0.282 N 
ATOM     22  H   UNL     1      -4.707   7.715   1.893  0.00  0.00    +0.155 HD
BRANCH  21  23
ATOM     23  C   UNL     1      -4.847   7.530   4.050  0.00  0.00    +0.045 A 
ATOM     24  C   UNL     1      -4.138   6.986   5.114  0.00  0.00    +0.025 A 
ATOM     25  C   UNL     1      -4.328   7.477   6.391  0.00  0.00    +0.022 A 
ATOM     26  C   UNL     1      -5.223   8.509   6.611  0.00  0.00    +0.042 A 
ATOM     27  C   UNL     1      -5.930   9.052   5.553  0.00  0.00    +0.034 A 
ATOM     28  C   UNL     1      -5.740   8.569   4.273  0.00  0.00    +0.077 A 
ATOM     29 CL   UNL     1      -5.459   9.124   8.217  0.00  0.00    -0.084 Cl
BRANCH  28  30
ATOM     30  C   UNL     1      -6.506   9.165   3.120  0.00  0.00    +0.419 C 
ATOM     31  F   UNL     1      -7.336  10.188   3.591  0.00  0.00    -0.166 F 
ATOM     32  F   UNL     1      -5.608   9.687   2.183  0.00  0.00    -0.166 F 
ATOM     33  F   UNL     1      -7.286   8.173   2.516  0.00  0.00    -0.166 F 
ENDBRANCH  28  30
ENDBRANCH  21  23
ENDBRANCH  18  19
ENDBRANCH   1  18
TORSDOF 7
