REMARK  Name = ZINC16437379
REMARK  19 active torsions:
REMARK  status: ('A' for Active; 'I' for Inactive)
REMARK    1  A    between atoms: C_1  and  C_2
REMARK    2  A    between atoms: C_7  and  N_8
REMARK    3  A    between atoms: C_9  and  N_17
REMARK    4  A    between atoms: C_11  and  C_13
REMARK    5  A    between atoms: C_13  and  C_14
REMARK    6  A    between atoms: C_13  and  C_15
REMARK    7  A    between atoms: C_13  and  C_16
REMARK    8  A    between atoms: C_18  and  C_20
REMARK    9  A    between atoms: C_20  and  N_21
REMARK   10  A    between atoms: N_21  and  C_22
REMARK   11  A    between atoms: C_22  and  C_23
REMARK   12  A    between atoms: C_23  and  C_24
REMARK   13  A    between atoms: C_24  and  O_25
REMARK   14  A    between atoms: O_25  and  C_26
REMARK   15  A    between atoms: C_27  and  C_29
REMARK   16  A    between atoms: C_32  and  C_35
REMARK   17  A    between atoms: C_35  and  C_36
REMARK   18  A    between atoms: C_35  and  C_37
REMARK   19  A    between atoms: C_35  and  C_38
REMARK                            x       y       z     vdW  Elec       q    Type
REMARK                         _______ _______ _______ _____ _____    ______ ____
ROOT
ATOM      1  N   UNL     1       3.383   0.380   0.707  0.00  0.00    -0.269 N 
ATOM      2  C   UNL     1       4.722   0.432   0.850  0.00  0.00    +0.236 C 
ATOM      3  O   UNL     1       5.234   1.367   1.429  0.00  0.00    -0.274 OA
ATOM      4  H   UNL     1       2.974  -0.368   0.244  0.00  0.00    +0.156 HD
ENDROOT
BRANCH   1   6
ATOM      5  N   UNL     1       1.226   1.422   1.257  0.00  0.00    -0.218 N 
ATOM      6  C   UNL     1       2.586   1.399   1.226  0.00  0.00    +0.129 A 
ATOM      7  C   UNL     1       3.026   2.555   1.795  0.00  0.00    +0.069 A 
ATOM      8  C   UNL     1       1.906   3.297   2.180  0.00  0.00    +0.071 A 
ATOM      9  N   UNL     1       0.831   2.625   1.855  0.00  0.00    -0.169 NA
BRANCH   5  16
ATOM     10  C   UNL     1      -0.869   0.500   2.950  0.00  0.00    +0.046 C 
ATOM     11  C   UNL     1      -0.662  -0.055   1.564  0.00  0.00    -0.025 A 
ATOM     12  C   UNL     1      -1.502  -1.041   1.083  0.00  0.00    +0.005 A 
ATOM     13  C   UNL     1      -1.317  -1.548  -0.190  0.00  0.00    +0.000 A 
ATOM     14  C   UNL     1      -0.284  -1.078  -0.981  0.00  0.00    +0.002 A 
ATOM     15  C   UNL     1       0.559  -0.093  -0.505  0.00  0.00    +0.028 A 
ATOM     16  C   UNL     1       0.372   0.422   0.771  0.00  0.00    +0.070 A 
ENDBRANCH   5  16
BRANCH   8  17
ATOM     17  C   UNL     1       1.932   4.647   2.850  0.00  0.00    +0.006 C 
ATOM     18  C   UNL     1       2.296   5.720   1.823  0.00  0.00    +0.017 C 
ATOM     19  C   UNL     1       0.552   4.950   3.438  0.00  0.00    +0.017 C 
ATOM     20  C   UNL     1       2.973   4.640   3.971  0.00  0.00    +0.017 C 
ENDBRANCH   8  17
ENDBRANCH   1   6
BRANCH   2  21
ATOM     21  C   UNL     1       5.584  -0.670   0.289  0.00  0.00    +0.204 C 
BRANCH  21  22
ATOM     22  N   UNL     1       6.992  -0.381   0.573  0.00  0.00    -0.289 N 
ATOM     23  C   UNL     1       7.809   0.027  -0.418  0.00  0.00    +0.247 C 
ATOM     24  O   UNL     1       8.991   0.204  -0.197  0.00  0.00    -0.270 OA
BRANCH  23  25
ATOM     25  C   UNL     1       7.267   0.260  -1.774  0.00  0.00    +0.037 A 
ATOM     26  C   UNL     1       5.925   0.602  -1.943  0.00  0.00    +0.013 A 
ATOM     27  C   UNL     1       5.427   0.822  -3.211  0.00  0.00    +0.005 A 
ATOM     28  C   UNL     1       6.253   0.695  -4.313  0.00  0.00    -0.042 A 
ATOM     29  C   UNL     1       7.584   0.352  -4.153  0.00  0.00    +0.005 A 
ATOM     30  C   UNL     1       8.095   0.134  -2.890  0.00  0.00    +0.013 A 
BRANCH  28  31
ATOM     31  C   UNL     1       5.701   0.932  -5.695  0.00  0.00    -0.013 C 
ATOM     32  C   UNL     1       5.861  -0.338  -6.533  0.00  0.00    +0.015 C 
ATOM     33  C   UNL     1       4.218   1.295  -5.597  0.00  0.00    +0.015 C 
ATOM     34  C   UNL     1       6.463   2.081  -6.359  0.00  0.00    +0.015 C 
ENDBRANCH  28  31
ENDBRANCH  23  25
BRANCH  22  35
ATOM     35  C   UNL     1       7.512  -0.537   1.934  0.00  0.00    +0.111 C 
BRANCH  35  36
ATOM     36  C   UNL     1       7.920  -1.994   2.160  0.00  0.00    +0.047 C 
BRANCH  36  37
ATOM     37  C   UNL     1       8.463  -2.156   3.582  0.00  0.00    +0.161 C 
BRANCH  37  38
ATOM     38  O   UNL     1       8.845  -3.517   3.793  0.00  0.00    -0.383 OA
ATOM     39  C   UNL     1       9.368  -3.778   5.097  0.00  0.00    +0.193 C 
ENDBRANCH  37  38
ENDBRANCH  36  37
ENDBRANCH  35  36
ENDBRANCH  22  35
ENDBRANCH  21  22
ENDBRANCH   2  21
TORSDOF 11
