REMARK  Name = ZINC61749472
REMARK  5 active torsions:
REMARK  status: ('A' for Active; 'I' for Inactive)
REMARK    1  A    between atoms: C_3  and  C_6
REMARK    2  A    between atoms: C_6  and  N_7
REMARK    3  A    between atoms: C_10  and  C_13
REMARK    4  A    between atoms: C_13  and  N_14
REMARK    5  A    between atoms: N_17  and  C_18
REMARK                            x       y       z     vdW  Elec       q    Type
REMARK                         _______ _______ _______ _____ _____    ______ ____
ROOT
ATOM      1  N   UNL     1       7.845   2.276   5.053  0.00  0.00    -0.299 N 
ATOM      2  C   UNL     1       8.399   2.574   6.245  0.00  0.00    +0.304 C 
ATOM      3  O   UNL     1       7.764   2.411   7.268  0.00  0.00    -0.253 OA
ATOM      4  N   UNL     1       9.658   3.051   6.302  0.00  0.00    -0.269 N 
ATOM      5  H   UNL     1       8.352   2.406   4.236  0.00  0.00    +0.150 HD
ATOM      6  H   UNL     1      10.189   3.118   5.492  0.00  0.00    +0.156 HD
ENDROOT
BRANCH   4   7
ATOM      7  C   UNL     1      10.201   3.451   7.530  0.00  0.00    +0.035 A 
ATOM      8  C   UNL     1      11.068   4.534   7.587  0.00  0.00    +0.025 A 
ATOM      9  C   UNL     1      11.602   4.929   8.797  0.00  0.00    +0.025 A 
ATOM     10  C   UNL     1      11.272   4.242   9.958  0.00  0.00    +0.037 A 
ATOM     11  C   UNL     1      10.405   3.159   9.901  0.00  0.00    -0.024 A 
ATOM     12  C   UNL     1       9.867   2.768   8.692  0.00  0.00    +0.028 A 
ATOM     13  C   UNL     1      10.048   2.418  11.163  0.00  0.00    +0.046 C 
ATOM     14  C   UNL     1      11.250   2.408  12.108  0.00  0.00    +0.101 C 
ATOM     15  C   UNL     1      11.812   3.798  12.236  0.00  0.00    +0.218 C 
ATOM     16  O   UNL     1      12.271   4.164  13.298  0.00  0.00    -0.275 OA
ATOM     17  N   UNL     1      11.812   4.640  11.187  0.00  0.00    -0.285 N 
ATOM     18  H   UNL     1      12.189   5.529  11.282  0.00  0.00    +0.155 HD
ENDBRANCH   4   7
BRANCH   1  19
ATOM     19  C   UNL     1       6.476   1.758   4.990  0.00  0.00    +0.109 C 
BRANCH  19  23
ATOM     20  N   UNL     1       4.247   1.979   1.349  0.00  0.00    +0.383 N 
ATOM     21  C   UNL     1       4.299   0.669   2.008  0.00  0.00    -0.078 C 
ATOM     22  C   UNL     1       4.711   0.846   3.471  0.00  0.00    -0.014 C 
ATOM     23  C   UNL     1       6.092   1.505   3.531  0.00  0.00    +0.003 C 
ATOM     24  C   UNL     1       6.045   2.836   2.776  0.00  0.00    -0.014 C 
ATOM     25  C   UNL     1       5.584   2.585   1.339  0.00  0.00    -0.078 C 
ATOM     26  H   UNL     1       3.610   2.581   1.850  0.00  0.00    -0.081 HD
BRANCH  20  27
ATOM     27  C   UNL     1       3.777   1.812  -0.033  0.00  0.00    -0.036 C 
BRANCH  27  30
ATOM     28  C   UNL     1      -0.001   1.325  -0.006  0.00  0.00    +0.008 A 
ATOM     29  C   UNL     1       1.199   2.009  -0.015  0.00  0.00    +0.009 A 
ATOM     30  C   UNL     1       2.357   1.305  -0.022  0.00  0.00    -0.027 A 
ATOM     31  S   UNL     1       1.766  -0.379  -0.015  0.00  0.00    -0.103 S 
ATOM     32  C   UNL     1       0.015  -0.031  -0.004  0.00  0.00    +0.045 A 
ENDBRANCH  27  30
ENDBRANCH  20  27
ENDBRANCH  19  23
ENDBRANCH   1  19
TORSDOF 5
