REMARK  Name = ZINC43209936
REMARK  7 active torsions:
REMARK  status: ('A' for Active; 'I' for Inactive)
REMARK    1  A    between atoms: C_1  and  C_2
REMARK    2  A    between atoms: C_2  and  C_4
REMARK    3  A    between atoms: C_2  and  O_25
REMARK    4  A    between atoms: C_4  and  C_6
REMARK    5  A    between atoms: C_4  and  N_24
REMARK    6  A    between atoms: C_8  and  C_11
REMARK    7  A    between atoms: N_13  and  C_14
REMARK                            x       y       z     vdW  Elec       q    Type
REMARK                         _______ _______ _______ _____ _____    ______ ____
ROOT
ATOM      1  C   UNL     1       0.870  -2.011   1.172  0.00  0.00    +0.184 A 
ATOM      2  N   UNL     1       0.171  -2.858   1.865  0.00  0.00    -0.210 NA
ATOM      3  C   UNL     1       0.566  -4.117   1.533  0.00  0.00    +0.163 A 
ATOM      4  C   UNL     1       1.546  -3.995   0.597  0.00  0.00    +0.230 A 
ATOM      5  O   UNL     1       1.719  -2.682   0.380  0.00  0.00    -0.449 OA
ENDROOT
BRANCH   3   6
ATOM      6  C   UNL     1       0.032  -5.377   2.083  0.00  0.00    +0.266 C 
ATOM      7  O   UNL     1       0.474  -6.443   1.700  0.00  0.00    -0.268 OA
ATOM      8  N   UNL     1      -0.944  -5.346   3.011  0.00  0.00    -0.307 N 
ATOM      9  H   UNL     1      -1.296  -4.496   3.317  0.00  0.00    +0.149 HD
BRANCH   8  10
ATOM     10  C   UNL     1      -1.474  -6.598   3.558  0.00  0.00    +0.079 C 
ATOM     11  C   UNL     1      -2.570  -7.134   2.635  0.00  0.00    +0.010 C 
ATOM     12  C   UNL     1      -3.123  -8.441   3.207  0.00  0.00    +0.009 C 
ATOM     13  C   UNL     1      -3.709  -8.183   4.596  0.00  0.00    -0.010 C 
ATOM     14  C   UNL     1      -4.836  -7.154   4.492  0.00  0.00    +0.007 C 
ATOM     15  C   UNL     1      -4.283  -5.847   3.920  0.00  0.00    -0.010 C 
ATOM     16  C   UNL     1      -3.698  -6.106   2.531  0.00  0.00    +0.009 C 
ATOM     17  C   UNL     1      -3.187  -5.311   4.844  0.00  0.00    +0.009 C 
ATOM     18  C   UNL     1      -2.059  -6.340   4.948  0.00  0.00    +0.010 C 
ATOM     19  C   UNL     1      -2.613  -7.646   5.519  0.00  0.00    +0.009 C 
ENDBRANCH   8  10
ENDBRANCH   3   6
BRANCH   1  20
ATOM     20  C   UNL     1       0.742  -0.511   1.242  0.00  0.00    +0.042 C 
BRANCH  20  21
ATOM     21  N   UNL     1       2.080   0.093   1.294  0.00  0.00    +0.387 N 
ATOM     22  H   UNL     1       2.568  -0.241   2.111  0.00  0.00    -0.089 HD
ATOM     23  H   UNL     1       2.597  -0.163   0.466  0.00  0.00    -0.089 HD
ATOM     24  H   UNL     1       1.995   1.097   1.341  0.00  0.00    -0.089 HD
ENDBRANCH  20  21
BRANCH  20  26
ATOM     25  C   UNL     1      -0.019   1.526   0.010  0.00  0.00    +0.036 C 
ATOM     26  C   UNL     1       0.002  -0.004   0.002  0.00  0.00    +0.106 C 
BRANCH  26  27
ATOM     27  O   UNL     1       0.671  -0.465  -1.174  0.00  0.00    -0.393 OA
ATOM     28  H   UNL     1       0.256  -0.181  -1.999  0.00  0.00    +0.210 HD
ENDBRANCH  26  27
ENDBRANCH  20  26
ENDBRANCH   1  20
TORSDOF 6
