REMARK  Name = ZINC25011945
REMARK  6 active torsions:
REMARK  status: ('A' for Active; 'I' for Inactive)
REMARK    1  A    between atoms: C_3  and  S_18
REMARK    2  A    between atoms: C_6  and  C_7
REMARK    3  A    between atoms: C_7  and  C_8
REMARK    4  A    between atoms: C_8  and  N_9
REMARK    5  A    between atoms: C_10  and  C_12
REMARK    6  A    between atoms: S_18  and  N_21
REMARK                            x       y       z     vdW  Elec       q    Type
REMARK                         _______ _______ _______ _____ _____    ______ ____
ROOT
ATOM      1  C   UNL     1      -2.559   1.412   3.121  0.00  0.00    +0.005 A 
ATOM      2  C   UNL     1      -1.846   1.033   2.000  0.00  0.00    +0.029 A 
ATOM      3  C   UNL     1      -0.927   1.900   1.439  0.00  0.00    +0.105 A 
ATOM      4  C   UNL     1      -0.717   3.145   2.004  0.00  0.00    +0.029 A 
ATOM      5  C   UNL     1      -1.434   3.526   3.123  0.00  0.00    +0.005 A 
ATOM      6  C   UNL     1      -2.354   2.659   3.683  0.00  0.00    -0.046 A 
ENDROOT
BRANCH   3   7
ATOM      7  S   UNL     1      -0.017   1.417   0.010  0.00  0.00    +0.056 S 
ATOM      8  O   UNL     1       0.002  -0.004   0.002  0.00  0.00    -0.153 OA
ATOM      9  O   UNL     1       1.172   2.195   0.003  0.00  0.00    -0.153 OA
BRANCH   7  10
ATOM     10  N   UNL     1      -0.897   1.885  -1.312  0.00  0.00    -0.204 NA
ATOM     11  H   UNL     1      -0.361   1.601  -2.229  0.00  0.00    +0.144 HD
ATOM     12  H   UNL     1      -1.036   2.977  -1.292  0.00  0.00    +0.144 HD
ENDBRANCH   7  10
ENDBRANCH   3   7
BRANCH   6  13
ATOM     13  C   UNL     1      -3.132   3.072   4.905  0.00  0.00    +0.054 C 
BRANCH  13  14
ATOM     14  C   UNL     1      -2.364   2.662   6.162  0.00  0.00    +0.109 C 
BRANCH  14  15
ATOM     15  N   UNL     1      -3.121   3.064   7.350  0.00  0.00    -0.309 N 
ATOM     16  C   UNL     1      -2.634   2.804   8.580  0.00  0.00    +0.279 C 
ATOM     17  O   UNL     1      -1.565   2.235   8.703  0.00  0.00    -0.267 OA
ATOM     18  H   UNL     1      -4.086   3.579   7.239  0.00  0.00    +0.149 HD
BRANCH  16  19
ATOM     19  C   UNL     1      -3.391   3.206   9.768  0.00  0.00    +0.191 A 
ATOM     20  C   UNL     1      -3.017   3.000  11.066  0.00  0.00    +0.056 A 
ATOM     21  C   UNL     1      -4.030   3.545  11.869  0.00  0.00    +0.063 A 
ATOM     22  C   UNL     1      -4.972   4.047  11.037  0.00  0.00    +0.195 A 
ATOM     23  O   UNL     1      -4.582   3.841   9.772  0.00  0.00    -0.439 OA
ATOM     24 CL   UNL     1      -6.441   4.830  11.528  0.00  0.00    -0.043 Cl
ENDBRANCH  16  19
ENDBRANCH  14  15
ENDBRANCH  13  14
ENDBRANCH   6  13
TORSDOF 6
