REMARK  Name = ZINC22058511
REMARK  5 active torsions:
REMARK  status: ('A' for Active; 'I' for Inactive)
REMARK    1  A    between atoms: C_1  and  C_2
REMARK    2  A    between atoms: C_2  and  C_24
REMARK    3  A    between atoms: N_5  and  C_9
REMARK    4  A    between atoms: C_9  and  C_10
REMARK    5  A    between atoms: N_12  and  C_13
REMARK                            x       y       z     vdW  Elec       q    Type
REMARK                         _______ _______ _______ _____ _____    ______ ____
ROOT
ATOM      1  C   UNL     1      -1.670  -5.215   0.650  0.00  0.00    +0.047 C 
ATOM      2  C   UNL     1      -3.024  -4.702   0.158  0.00  0.00    +0.135 C 
ATOM      3  C   UNL     1      -3.320  -3.334   0.742  0.00  0.00    +0.251 C 
ATOM      4  O   UNL     1      -3.438  -3.049   1.914  0.00  0.00    -0.272 OA
ATOM      5  N   UNL     1      -3.424  -2.502  -0.313  0.00  0.00    -0.215 N 
ATOM      6  C   UNL     1      -3.241  -3.147  -1.470  0.00  0.00    +0.310 C 
ATOM      7  O   UNL     1      -3.292  -2.609  -2.559  0.00  0.00    -0.252 OA
ATOM      8  N   UNL     1      -2.992  -4.458  -1.295  0.00  0.00    -0.281 N 
ATOM      9  H   UNL     1      -2.791  -5.288  -1.988  0.00  0.00    +0.152 HD
ENDROOT
BRANCH   2  10
ATOM     10  C   UNL     1      -4.118  -5.676   0.508  0.00  0.00    -0.015 A 
ATOM     11  C   UNL     1      -4.822  -5.530   1.689  0.00  0.00    +0.007 A 
ATOM     12  C   UNL     1      -5.830  -6.420   2.008  0.00  0.00    +0.020 A 
ATOM     13  C   UNL     1      -6.127  -7.465   1.151  0.00  0.00    +0.041 A 
ATOM     14  C   UNL     1      -5.418  -7.615  -0.028  0.00  0.00    +0.020 A 
ATOM     15  C   UNL     1      -4.414  -6.720  -0.349  0.00  0.00    +0.007 A 
ATOM     16 CL   UNL     1      -7.387  -8.588   1.555  0.00  0.00    -0.084 Cl
ENDBRANCH   2  10
BRANCH   5  17
ATOM     17  C   UNL     1      -3.708  -1.069  -0.205  0.00  0.00    +0.214 C 
BRANCH  17  18
ATOM     18  C   UNL     1      -2.413  -0.307  -0.092  0.00  0.00    +0.235 C 
ATOM     19  O   UNL     1      -1.356  -0.903  -0.101  0.00  0.00    -0.274 OA
ATOM     20  N   UNL     1      -2.428   1.036   0.018  0.00  0.00    -0.283 N 
ATOM     21  H   UNL     1      -3.385   1.569   0.117  0.00  0.00    +0.155 HD
BRANCH  20  22
ATOM     22  C   UNL     1      -1.224   1.754   0.006  0.00  0.00    +0.056 A 
ATOM     23  C   UNL     1      -0.102   1.218  -0.610  0.00  0.00    +0.074 A 
ATOM     24  C   UNL     1       1.086   1.931  -0.628  0.00  0.00    +0.164 A 
ATOM     25  C   UNL     1       1.154   3.181  -0.023  0.00  0.00    +0.164 A 
ATOM     26  C   UNL     1       0.033   3.711   0.598  0.00  0.00    +0.071 A 
ATOM     27  C   UNL     1      -1.153   3.000   0.616  0.00  0.00    +0.066 A 
ATOM     28 CL   UNL     1      -2.553   3.667   1.395  0.00  0.00    -0.082 Cl
ATOM     29  O   UNL     1       2.312   3.898  -0.034  0.00  0.00    -0.485 OA
ATOM     30  C   UNL     1       3.512   3.178  -0.336  0.00  0.00    +0.270 C 
ATOM     31  C   UNL     1       3.244   2.291  -1.560  0.00  0.00    +0.270 C 
ATOM     32  O   UNL     1       2.178   1.393  -1.238  0.00  0.00    -0.485 OA
ENDBRANCH  20  22
ENDBRANCH  17  18
ENDBRANCH   5  17
TORSDOF 4
