REMARK  Name = ZINC39675229
REMARK  9 active torsions:
REMARK  status: ('A' for Active; 'I' for Inactive)
REMARK    1  A    between atoms: C_1  and  C_2
REMARK    2  A    between atoms: C_2  and  C_4
REMARK    3  A    between atoms: C_2  and  N_14
REMARK    4  A    between atoms: C_4  and  C_5
REMARK    5  A    between atoms: C_5  and  C_6
REMARK    6  A    between atoms: C_9  and  O_12
REMARK    7  A    between atoms: O_12  and  C_13
REMARK    8  A    between atoms: C_15  and  C_17
REMARK    9  A    between atoms: C_28  and  C_30
REMARK                            x       y       z     vdW  Elec       q    Type
REMARK                         _______ _______ _______ _____ _____    ______ ____
ROOT
ATOM      1  C   UNL     1       2.778  -1.101   2.401  0.00  0.00    +0.100 C 
ATOM      2  C   UNL     1       2.275  -2.508   2.795  0.00  0.00    +0.121 C 
ATOM      3  N   UNL     1       3.225  -3.441   2.145  0.00  0.00    -0.296 N 
ATOM      4  C   UNL     1       4.548  -2.790   2.304  0.00  0.00    +0.115 C 
ATOM      5  C   UNL     1       4.270  -1.290   2.082  0.00  0.00    -0.004 C 
ATOM      6  C   UNL     1       4.553  -0.910   0.632  0.00  0.00    -0.010 C 
ATOM      7  C   UNL     1       6.053  -1.052   0.356  0.00  0.00    -0.082 C 
ATOM      8  N   UNL     1       6.805  -0.180   1.267  0.00  0.00    +0.379 N 
ATOM      9  C   UNL     1       6.600  -0.610   2.655  0.00  0.00    -0.082 C 
ATOM     10  C   UNL     1       5.123  -0.450   3.028  0.00  0.00    -0.010 C 
ATOM     11  C   UNL     1       2.949  -4.615   1.544  0.00  0.00    +0.249 C 
ATOM     12  O   UNL     1       1.794  -4.972   1.408  0.00  0.00    -0.270 OA
ATOM     13  H   UNL     1       7.787  -0.229   1.042  0.00  0.00    -0.086 HD
ATOM     14  H   UNL     1       6.485   0.771   1.160  0.00  0.00    -0.086 HD
ENDROOT
BRANCH  11  15
ATOM     15  C   UNL     1       4.048  -5.469   1.053  0.00  0.00    +0.072 A 
ATOM     16  C   UNL     1       5.256  -5.529   1.752  0.00  0.00    +0.019 A 
ATOM     17  C   UNL     1       6.279  -6.327   1.288  0.00  0.00    +0.039 A 
ATOM     18  C   UNL     1       6.112  -7.072   0.130  0.00  0.00    +0.126 A 
ATOM     19  C   UNL     1       4.918  -7.018  -0.570  0.00  0.00    +0.077 A 
ATOM     20  C   UNL     1       3.882  -6.226  -0.112  0.00  0.00    +0.138 A 
ATOM     21  F   UNL     1       2.715  -6.178  -0.791  0.00  0.00    -0.205 F 
ATOM     22  F   UNL     1       7.120  -7.852  -0.319  0.00  0.00    -0.205 F 
ENDBRANCH  11  15
BRANCH   1  24
ATOM     23  N   UNL     1       1.834   0.720   1.017  0.00  0.00    -0.312 N 
ATOM     24  C   UNL     1       2.041  -0.602   1.185  0.00  0.00    +0.218 C 
ATOM     25  O   UNL     1       1.634  -1.389   0.356  0.00  0.00    -0.275 OA
ATOM     26  H   UNL     1       2.159   1.349   1.679  0.00  0.00    +0.149 HD
BRANCH  23  28
ATOM     27  C   UNL     1       2.099   1.360  -1.328  0.00  0.00    +0.028 C 
ATOM     28  C   UNL     1       1.117   1.205  -0.165  0.00  0.00    +0.070 C 
BRANCH  28  29
ATOM     29  C   UNL     1       0.477   2.559   0.146  0.00  0.00    +0.026 C 
BRANCH  29  30
ATOM     30  C   UNL     1      -0.594   2.381   1.224  0.00  0.00    +0.037 C 
BRANCH  30  31
ATOM     31  C   UNL     1      -1.225   3.714   1.531  0.00  0.00    -0.047 A 
ATOM     32  C   UNL     1      -0.688   4.521   2.517  0.00  0.00    +0.007 A 
ATOM     33  C   UNL     1      -1.265   5.744   2.801  0.00  0.00    +0.046 A 
ATOM     34  C   UNL     1      -2.383   6.163   2.095  0.00  0.00    +0.120 A 
ATOM     35  C   UNL     1      -2.919   5.352   1.105  0.00  0.00    +0.046 A 
ATOM     36  C   UNL     1      -2.336   4.132   0.822  0.00  0.00    +0.007 A 
BRANCH  34  37
ATOM     37  O   UNL     1      -2.952   7.365   2.372  0.00  0.00    -0.495 OA
ATOM     38  C   UNL     1      -4.101   7.731   1.605  0.00  0.00    +0.277 C 
ENDBRANCH  34  37
ENDBRANCH  30  31
ENDBRANCH  29  30
ENDBRANCH  28  29
ENDBRANCH  23  28
ENDBRANCH   1  24
TORSDOF 7
