REMARK  Name = ZINC59303990
REMARK  4 active torsions:
REMARK  status: ('A' for Active; 'I' for Inactive)
REMARK    1  A    between atoms: C_1  and  C_2
REMARK    2  A    between atoms: C_7  and  C_8
REMARK    3  A    between atoms: N_9  and  N_10
REMARK    4  A    between atoms: C_11  and  C_13
REMARK                            x       y       z     vdW  Elec       q    Type
REMARK                         _______ _______ _______ _____ _____    ______ ____
ROOT
ATOM      1  N   UNL     1       0.237   2.002   3.716  0.00  0.00    -0.200 N 
ATOM      2  C   UNL     1       0.119   3.344   3.741  0.00  0.00    +0.299 C 
ATOM      3  O   UNL     1      -0.082   3.956   2.708  0.00  0.00    -0.265 OA
ATOM      4  H   UNL     1       0.398   1.514   4.539  0.00  0.00    +0.178 HD
ENDROOT
BRANCH   2   5
ATOM      5  C   UNL     1       0.233   4.069   5.014  0.00  0.00    +0.192 A 
ATOM      6  C   UNL     1       0.126   5.415   5.159  0.00  0.00    +0.063 A 
ATOM      7  C   UNL     1       0.305   5.684   6.585  0.00  0.00    +0.021 A 
ATOM      8  C   UNL     1       0.307   6.843   7.365  0.00  0.00    +0.011 A 
ATOM      9  C   UNL     1       0.510   6.752   8.713  0.00  0.00    +0.001 A 
ATOM     10  C   UNL     1       0.714   5.516   9.312  0.00  0.00    +0.004 A 
ATOM     11  C   UNL     1       0.715   4.361   8.561  0.00  0.00    +0.047 A 
ATOM     12  C   UNL     1       0.511   4.428   7.187  0.00  0.00    +0.136 A 
ATOM     13  O   UNL     1       0.454   3.497   6.216  0.00  0.00    -0.450 OA
ENDBRANCH   2   5
BRANCH   1  15
ATOM     14  C   UNL     1       0.243   0.018   2.479  0.00  0.00    +0.138 C 
ATOM     15  N   UNL     1       0.129   1.311   2.502  0.00  0.00    -0.187 NA
BRANCH  14  22
ATOM     16  C   UNL     1      -0.490   1.457   0.078  0.00  0.00    +0.044 C 
ATOM     17  C   UNL     1      -0.224  -0.026   0.034  0.00  0.00    -0.042 A 
ATOM     18  C   UNL     1      -0.323  -0.712  -1.159  0.00  0.00    +0.004 A 
ATOM     19  C   UNL     1      -0.080  -2.073  -1.200  0.00  0.00    +0.000 A 
ATOM     20  C   UNL     1       0.264  -2.757  -0.047  0.00  0.00    +0.001 A 
ATOM     21  C   UNL     1       0.366  -2.085   1.153  0.00  0.00    +0.010 A 
ATOM     22  C   UNL     1       0.128  -0.709   1.201  0.00  0.00    -0.003 A 
ENDBRANCH  14  22
ENDBRANCH   1  15
TORSDOF 3
