REMARK  Name = ZINC34774327
REMARK  9 active torsions:
REMARK  status: ('A' for Active; 'I' for Inactive)
REMARK    1  A    between atoms: C_1  and  C_2
REMARK    2  A    between atoms: C_5  and  N_8
REMARK    3  A    between atoms: C_9  and  C_11
REMARK    4  A    between atoms: C_11  and  N_12
REMARK    5  A    between atoms: C_20  and  C_32
REMARK    6  A    between atoms: C_25  and  S_27
REMARK    7  A    between atoms: S_27  and  C_28
REMARK    8  A    between atoms: C_28  and  C_29
REMARK    9  A    between atoms: C_29  and  C_31
REMARK                            x       y       z     vdW  Elec       q    Type
REMARK                         _______ _______ _______ _____ _____    ______ ____
ROOT
ATOM      1  N   UNL     1       0.082  -7.374   2.364  0.00  0.00    +0.387 N 
ATOM      2  C   UNL     1       1.459  -6.959   2.660  0.00  0.00    -0.059 C 
ATOM      3  C   UNL     1       1.724  -7.105   4.162  0.00  0.00    +0.088 C 
ATOM      4  N   UNL     1       1.408  -8.486   4.559  0.00  0.00    -0.318 N 
ATOM      5  C   UNL     1       0.105  -9.041   4.159  0.00  0.00    +0.088 C 
ATOM      6  C   UNL     1      -0.084  -8.803   2.657  0.00  0.00    -0.059 C 
ATOM      7  C   UNL     1       2.309  -9.241   5.287  0.00  0.00    +0.134 A 
ATOM      8  C   UNL     1       2.090  -9.483   6.671  0.00  0.00    +0.055 A 
ATOM      9  C   UNL     1       0.995  -9.040   7.529  0.00  0.00    +0.002 A 
ATOM     10  C   UNL     1       1.004  -9.402   8.833  0.00  0.00    +0.056 A 
ATOM     11  S   UNL     1       2.495 -10.365   8.989  0.00  0.00    -0.076 S 
ATOM     12  C   UNL     1       3.071 -10.264   7.314  0.00  0.00    +0.115 A 
ATOM     13  N   UNL     1       4.117 -10.732   6.661  0.00  0.00    -0.214 NA
ATOM     14  C   UNL     1       4.270 -10.475   5.369  0.00  0.00    +0.191 A 
ATOM     15  N   UNL     1       3.381  -9.749   4.702  0.00  0.00    -0.206 NA
ATOM     16  H   UNL     1      -0.557  -6.839   2.933  0.00  0.00    -0.081 HD
ENDROOT
BRANCH   9  17
ATOM     17  C   UNL     1      -0.105  -8.211   6.983  0.00  0.00    -0.017 A 
ATOM     18  C   UNL     1       0.168  -6.957   6.438  0.00  0.00    +0.008 A 
ATOM     19  C   UNL     1      -0.861  -6.190   5.930  0.00  0.00    +0.001 A 
ATOM     20  C   UNL     1      -2.160  -6.662   5.962  0.00  0.00    +0.000 A 
ATOM     21  C   UNL     1      -2.437  -7.906   6.501  0.00  0.00    +0.001 A 
ATOM     22  C   UNL     1      -1.416  -8.685   7.006  0.00  0.00    +0.008 A 
ENDBRANCH   9  17
BRANCH   1  23
ATOM     23  C   UNL     1      -0.207  -7.131   0.945  0.00  0.00    +0.019 C 
BRANCH  23  25
ATOM     24  N   UNL     1      -0.393  -5.188  -0.575  0.00  0.00    -0.287 N 
ATOM     25  C   UNL     1      -0.158  -5.650   0.669  0.00  0.00    +0.201 C 
ATOM     26  O   UNL     1       0.093  -4.874   1.567  0.00  0.00    -0.278 OA
ATOM     27  H   UNL     1      -0.650  -5.803  -1.280  0.00  0.00    +0.155 HD
BRANCH  24  32
ATOM     28  C   UNL     1       0.121   0.351  -1.688  0.00  0.00    +0.044 C 
ATOM     29  C   UNL     1      -0.015  -1.120  -1.392  0.00  0.00    -0.050 A 
ATOM     30  C   UNL     1      -0.497  -1.536  -0.164  0.00  0.00    +0.005 A 
ATOM     31  C   UNL     1      -0.624  -2.883   0.110  0.00  0.00    +0.023 A 
ATOM     32  C   UNL     1      -0.267  -3.822  -0.850  0.00  0.00    +0.033 A 
ATOM     33  C   UNL     1       0.216  -3.401  -2.082  0.00  0.00    +0.023 A 
ATOM     34  C   UNL     1       0.336  -2.052  -2.351  0.00  0.00    +0.005 A 
ENDBRANCH  24  32
ENDBRANCH  23  25
ENDBRANCH   1  23
BRANCH  14  35
ATOM     35  S   UNL     1       5.677 -11.112   4.521  0.00  0.00    -0.082 S 
BRANCH  35  36
ATOM     36  C   UNL     1       6.586 -12.022   5.801  0.00  0.00    +0.107 C 
BRANCH  36  37
ATOM     37  C   UNL     1       7.829 -12.626   5.201  0.00  0.00    -0.069 C 
ATOM     38  C   UNL     1       9.001 -12.095   5.448  0.00  0.00    +0.008 C 
ATOM     39  C   UNL     1       7.725 -13.841   4.316  0.00  0.00    +0.039 C 
ENDBRANCH  36  37
ENDBRANCH  35  36
ENDBRANCH  14  35
TORSDOF 7
