REMARK  Name = ZINC22241662
REMARK  8 active torsions:
REMARK  status: ('A' for Active; 'I' for Inactive)
REMARK    1  A    between atoms: C_1  and  C_2
REMARK    2  A    between atoms: C_3  and  C_25
REMARK    3  A    between atoms: C_5  and  N_9
REMARK    4  A    between atoms: C_6  and  C_7
REMARK    5  A    between atoms: C_10  and  C_12
REMARK    6  A    between atoms: C_12  and  N_13
REMARK    7  A    between atoms: N_16  and  C_19
REMARK    8  A    between atoms: C_19  and  C_20
REMARK                            x       y       z     vdW  Elec       q    Type
REMARK                         _______ _______ _______ _____ _____    ______ ____
ROOT
ATOM      1  C   UNL     1       0.002  -0.004   0.002  0.00  0.00    +0.019 C 
ENDROOT
BRANCH   1   2
ATOM      2  N   UNL     1       1.393  -0.475  -0.014  0.00  0.00    +0.387 N 
ATOM      3  C   UNL     1       2.058  -0.112  -1.274  0.00  0.00    -0.063 C 
ATOM      4  C   UNL     1       3.524  -0.549  -1.218  0.00  0.00    +0.066 C 
ATOM      5  N   UNL     1       3.592  -1.999  -0.988  0.00  0.00    -0.301 NA
ATOM      6  C   UNL     1       2.927  -2.361   0.271  0.00  0.00    +0.066 C 
ATOM      7  C   UNL     1       1.462  -1.925   0.216  0.00  0.00    -0.063 C 
ATOM      8  H   UNL     1       1.927   0.025   0.808  0.00  0.00    -0.081 HD
BRANCH   5   9
ATOM      9  C   UNL     1       4.983  -2.470  -1.004  0.00  0.00    +0.126 C 
BRANCH   9  10
ATOM     10  C   UNL     1       5.701  -1.876  -2.189  0.00  0.00    +0.004 A 
ATOM     11  C   UNL     1       6.389  -0.711  -2.274  0.00  0.00    +0.012 A 
ATOM     12  C   UNL     1       6.976  -0.365  -3.476  0.00  0.00    +0.008 A 
ATOM     13  C   UNL     1       6.838  -1.197  -4.538  0.00  0.00    +0.045 A 
ATOM     14  S   UNL     1       5.859  -2.520  -3.846  0.00  0.00    -0.100 S 
ENDBRANCH   9  10
ENDBRANCH   5   9
ENDBRANCH   1   2
BRANCH   1  16
ATOM     15  N   UNL     1      -1.195   2.161   0.019  0.00  0.00    -0.257 N 
ATOM     16  C   UNL     1      -0.018   1.503   0.010  0.00  0.00    +0.203 C 
ATOM     17  O   UNL     1       1.024   2.123   0.004  0.00  0.00    -0.277 OA
ATOM     18  H   UNL     1      -2.140   1.598   0.021  0.00  0.00    +0.158 HD
BRANCH  15  23
ATOM     19  C   UNL     1      -2.670   6.989   0.051  0.00  0.00    +0.049 C 
ATOM     20  C   UNL     1      -1.845   5.728   0.041  0.00  0.00    +0.010 A 
ATOM     21  C   UNL     1      -0.507   5.641   0.034  0.00  0.00    +0.109 A 
ATOM     22  O   UNL     1      -0.140   4.348   0.026  0.00  0.00    -0.445 OA
ATOM     23  C   UNL     1      -1.213   3.545   0.027  0.00  0.00    +0.210 A 
ATOM     24  C   UNL     1      -2.345   4.344   0.031  0.00  0.00    +0.115 A 
ATOM     25  C   UNL     1       0.440   6.812   0.036  0.00  0.00    +0.086 C 
BRANCH  24  26
ATOM     26  C   UNL     1      -3.711   3.915   0.029  0.00  0.00    +0.105 C 
ATOM     27  N   UNL     1      -4.795   3.574   0.028  0.00  0.00    -0.191 NA
ENDBRANCH  24  26
ENDBRANCH  15  23
ENDBRANCH   1  16
TORSDOF 6
