REMARK  Name = ZINC63350409
REMARK  4 active torsions:
REMARK  status: ('A' for Active; 'I' for Inactive)
REMARK    1  A    between atoms: C_1  and  C_2
REMARK    2  A    between atoms: N_18  and  C_21
REMARK    3  A    between atoms: C_24  and  O_27
REMARK    4  A    between atoms: O_27  and  C_28
REMARK                            x       y       z     vdW  Elec       q    Type
REMARK                         _______ _______ _______ _____ _____    ______ ____
ROOT
ATOM      1  C   UNL     1      -0.027   1.515  -0.021  0.00  0.00    +0.044 C 
ATOM      2  C   UNL     1       0.005  -0.015  -0.004  0.00  0.00    +0.137 C 
ATOM      3  C   UNL     1       0.738  -0.569  -1.227  0.00  0.00    +0.139 C 
ATOM      4  C   UNL     1       1.859  -1.461  -0.715  0.00  0.00    -0.034 C 
ATOM      5  C   UNL     1       1.672  -2.653  -1.276  0.00  0.00    -0.001 A 
ATOM      6  C   UNL     1       2.457  -3.895  -1.214  0.00  0.00    +0.010 A 
ATOM      7  C   UNL     1       1.962  -4.952  -1.912  0.00  0.00    +0.001 A 
ATOM      8  C   UNL     1       0.780  -4.896  -2.656  0.00  0.00    +0.002 A 
ATOM      9  C   UNL     1      -0.003  -3.794  -2.772  0.00  0.00    +0.026 A 
ATOM     10  C   UNL     1       0.416  -2.617  -2.085  0.00  0.00    +0.043 A 
ATOM     11  N   UNL     1      -0.131  -1.421  -2.041  0.00  0.00    -0.375 N 
ATOM     12  C   UNL     1       2.892  -1.012   0.290  0.00  0.00    +0.052 C 
ATOM     13  C   UNL     1       2.123  -0.402   1.480  0.00  0.00    +0.115 C 
ATOM     14  N   UNL     1       0.690  -0.528   1.200  0.00  0.00    -0.268 N 
ATOM     15  C   UNL     1      -0.245  -1.138   1.943  0.00  0.00    +0.316 C 
ATOM     16  O   UNL     1      -0.045  -1.574   3.059  0.00  0.00    -0.252 OA
ATOM     17  N   UNL     1      -1.425  -1.211   1.312  0.00  0.00    -0.192 N 
ATOM     18  C   UNL     1      -1.387  -0.595   0.113  0.00  0.00    +0.253 C 
ATOM     19  O   UNL     1      -2.282  -0.522  -0.702  0.00  0.00    -0.272 OA
ATOM     20  H   UNL     1      -0.960  -1.147  -2.464  0.00  0.00    +0.160 HD
ENDROOT
BRANCH  17  21
ATOM     21  C   UNL     1      -2.560  -1.849   1.836  0.00  0.00    +0.046 A 
ATOM     22  C   UNL     1      -2.471  -2.560   3.024  0.00  0.00    +0.027 A 
ATOM     23  C   UNL     1      -3.588  -3.188   3.539  0.00  0.00    +0.048 A 
ATOM     24  C   UNL     1      -4.800  -3.107   2.869  0.00  0.00    +0.129 A 
ATOM     25  C   UNL     1      -4.890  -2.395   1.681  0.00  0.00    +0.048 A 
ATOM     26  C   UNL     1      -3.774  -1.763   1.168  0.00  0.00    +0.027 A 
BRANCH  24  27
ATOM     27  O   UNL     1      -5.900  -3.724   3.375  0.00  0.00    -0.450 OA
BRANCH  27  28
ATOM     28  C   UNL     1      -7.067  -3.619   2.685  0.00  0.00    +0.204 A 
ATOM     29  C   UNL     1      -7.935  -2.567   2.945  0.00  0.00    +0.206 A 
ATOM     30  C   UNL     1      -9.123  -2.460   2.241  0.00  0.00    +0.200 A 
ATOM     31  C   UNL     1      -9.446  -3.403   1.278  0.00  0.00    +0.199 A 
ATOM     32  C   UNL     1      -8.580  -4.454   1.018  0.00  0.00    +0.200 A 
ATOM     33  C   UNL     1      -7.388  -4.559   1.716  0.00  0.00    +0.206 A 
ATOM     34  F   UNL     1      -6.542  -5.580   1.458  0.00  0.00    -0.198 F 
ATOM     35  F   UNL     1      -8.896  -5.373   0.079  0.00  0.00    -0.199 F 
ATOM     36  F   UNL     1     -10.605  -3.299   0.593  0.00  0.00    -0.199 F 
ATOM     37  F   UNL     1      -9.968  -1.437   2.494  0.00  0.00    -0.199 F 
ATOM     38  F   UNL     1      -7.621  -1.648   3.884  0.00  0.00    -0.198 F 
ENDBRANCH  27  28
ENDBRANCH  24  27
ENDBRANCH  17  21
TORSDOF 3
