REMARK  Name = ZINC15835645
REMARK  4 active torsions:
REMARK  status: ('A' for Active; 'I' for Inactive)
REMARK    1  A    between atoms: C_3  and  C_6
REMARK    2  A    between atoms: C_6  and  N_7
REMARK    3  A    between atoms: C_8  and  C_10
REMARK    4  A    between atoms: C_11  and  N_27
REMARK                            x       y       z     vdW  Elec       q    Type
REMARK                         _______ _______ _______ _____ _____    ______ ____
ROOT
ATOM      1  C   UNL     1      -6.395   0.020  -0.863  0.00  0.00    +0.097 A 
ATOM      2  C   UNL     1      -5.071   0.316  -1.111  0.00  0.00    +0.054 A 
ATOM      3  C   UNL     1      -4.237   0.731   0.005  0.00  0.00    +0.031 A 
ATOM      4  C   UNL     1      -2.857   1.082  -0.009  0.00  0.00    -0.030 A 
ATOM      5  C   UNL     1      -2.253   1.451   1.147  0.00  0.00    -0.005 A 
ATOM      6  C   UNL     1      -2.988   1.475   2.343  0.00  0.00    +0.103 A 
ATOM      7  C   UNL     1      -4.890   0.787   1.255  0.00  0.00    +0.089 A 
ATOM      8  S   UNL     1      -6.556   0.293   0.890  0.00  0.00    -0.064 S 
ATOM      9  N   UNL     1      -2.363   1.848   3.523  0.00  0.00    -0.316 N 
ATOM     10  C   UNL     1      -1.881   3.251   3.450  0.00  0.00    +0.106 C 
ATOM     11  C   UNL     1      -1.716   3.647   4.939  0.00  0.00    +0.020 C 
ATOM     12  C   UNL     1      -2.915   2.946   5.618  0.00  0.00    +0.020 C 
ATOM     13  C   UNL     1      -3.309   1.806   4.660  0.00  0.00    +0.106 C 
ATOM     14  C   UNL     1      -0.801   1.852   1.211  0.00  0.00    +0.039 C 
ATOM     15  C   UNL     1      -0.055   1.366  -0.030  0.00  0.00    +0.005 C 
ATOM     16  C   UNL     1      -0.836   1.814  -1.272  0.00  0.00    +0.005 C 
ATOM     17  C   UNL     1      -2.140   1.020  -1.330  0.00  0.00    +0.036 C 
ATOM     18  N   UNL     1      -4.306   1.147   2.422  0.00  0.00    -0.337 N 
ATOM     19  H   UNL     1      -4.824   1.171   3.309  0.00  0.00    +0.168 HD
ENDROOT
BRANCH   1  21
ATOM     20  N   UNL     1      -8.641  -0.645  -1.353  0.00  0.00    -0.304 N 
ATOM     21  C   UNL     1      -7.387  -0.400  -1.781  0.00  0.00    +0.253 C 
ATOM     22  O   UNL     1      -7.107  -0.539  -2.959  0.00  0.00    -0.270 OA
ATOM     23  H   UNL     1      -8.863  -0.535  -0.415  0.00  0.00    +0.149 HD
BRANCH  20  24
ATOM     24  C   UNL     1      -9.668  -1.080  -2.303  0.00  0.00    +0.179 C 
BRANCH  24  27
ATOM     25  C   UNL     1     -12.963  -0.970  -0.657  0.00  0.00    +0.041 A 
ATOM     26  C   UNL     1     -11.919  -0.350  -1.382  0.00  0.00    +0.046 A 
ATOM     27  C   UNL     1     -10.971  -1.285  -1.575  0.00  0.00    +0.122 A 
ATOM     28  O   UNL     1     -11.386  -2.432  -1.014  0.00  0.00    -0.466 OA
ATOM     29  C   UNL     1     -12.591  -2.246  -0.452  0.00  0.00    +0.195 A 
ENDBRANCH  24  27
ENDBRANCH  20  24
ENDBRANCH   1  21
BRANCH   2  30
ATOM     30  N   UNL     1      -4.548   0.220  -2.393  0.00  0.00    -0.356 N 
ATOM     31  H   UNL     1      -3.607   0.023  -2.519  0.00  0.00    +0.142 HD
ATOM     32  H   UNL     1      -5.124   0.349  -3.162  0.00  0.00    +0.142 HD
ENDBRANCH   2  30
TORSDOF 4
