REMARK  Name = ZINC09417656
REMARK  8 active torsions:
REMARK  status: ('A' for Active; 'I' for Inactive)
REMARK    1  A    between atoms: C_4  and  C_7
REMARK    2  A    between atoms: C_7  and  C_8
REMARK    3  A    between atoms: C_13  and  O_14
REMARK    4  A    between atoms: O_14  and  C_15
REMARK    5  A    between atoms: C_15  and  C_16
REMARK    6  A    between atoms: N_18  and  C_19
REMARK    7  A    between atoms: C_19  and  C_20
REMARK    8  A    between atoms: C_26  and  C_29
REMARK                            x       y       z     vdW  Elec       q    Type
REMARK                         _______ _______ _______ _____ _____    ______ ____
ROOT
ATOM      1  C   UNL     1      -0.268   1.258  -2.409  0.00  0.00    +0.251 C 
ATOM      2  O   UNL     1       0.726   0.575  -2.534  0.00  0.00    -0.272 OA
ATOM      3  N   UNL     1      -0.721   1.571  -1.179  0.00  0.00    -0.305 N 
ATOM      4  H   UNL     1      -1.516   2.118  -1.079  0.00  0.00    +0.149 HD
ENDROOT
BRANCH   1   5
ATOM      5  C   UNL     1      -0.997   1.758  -3.630  0.00  0.00    +0.324 C 
BRANCH   5   6
ATOM      6  O   UNL     1      -0.328   1.297  -4.806  0.00  0.00    -0.482 OA
BRANCH   6  12
ATOM      7  C   UNL     1      -0.260   1.254  -7.183  0.00  0.00    -0.001 A 
ATOM      8  C   UNL     1      -0.806   1.622  -8.398  0.00  0.00    +0.007 A 
ATOM      9  C   UNL     1      -1.945   2.404  -8.436  0.00  0.00    +0.001 A 
ATOM     10  C   UNL     1      -2.544   2.816  -7.259  0.00  0.00    +0.004 A 
ATOM     11  C   UNL     1      -2.004   2.447  -6.043  0.00  0.00    +0.046 A 
ATOM     12  C   UNL     1      -0.861   1.661  -6.002  0.00  0.00    +0.125 A 
BRANCH   7  13
ATOM     13  C   UNL     1       0.986   0.406  -7.142  0.00  0.00    +0.074 C 
BRANCH  13  17
ATOM     14  C   UNL     1      -0.103  -3.707  -6.758  0.00  0.00    +0.000 A 
ATOM     15  C   UNL     1       0.042  -3.144  -8.012  0.00  0.00    +0.000 A 
ATOM     16  C   UNL     1       0.394  -1.813  -8.137  0.00  0.00    +0.004 A 
ATOM     17  C   UNL     1       0.602  -1.045  -7.007  0.00  0.00    -0.043 A 
ATOM     18  C   UNL     1       0.462  -1.609  -5.752  0.00  0.00    +0.004 A 
ATOM     19  C   UNL     1       0.105  -2.938  -5.628  0.00  0.00    +0.000 A 
ENDBRANCH  13  17
ENDBRANCH   7  13
ENDBRANCH   6  12
ENDBRANCH   5   6
ENDBRANCH   1   5
BRANCH   3  20
ATOM     20  C   UNL     1      -0.013   1.086   0.008  0.00  0.00    +0.181 C 
BRANCH  20  21
ATOM     21  C   UNL     1      -0.718   1.572   1.248  0.00  0.00    +0.155 A 
ATOM     22  N   UNL     1      -0.479   2.688   1.886  0.00  0.00    -0.132 NA
ATOM     23  N   UNL     1      -1.262   2.798   2.901  0.00  0.00    -0.129 NA
ATOM     24  C   UNL     1      -2.048   1.736   2.970  0.00  0.00    +0.161 A 
ATOM     25  N   UNL     1      -1.716   0.927   1.911  0.00  0.00    -0.285 N 
ATOM     26  C   UNL     1      -2.365  -0.257   1.715  0.00  0.00    +0.107 A 
ATOM     27  C   UNL     1      -3.342  -0.650   2.559  0.00  0.00    +0.071 A 
ATOM     28  C   UNL     1      -3.704   0.156   3.652  0.00  0.00    +0.017 A 
ATOM     29  C   UNL     1      -3.066   1.339   3.859  0.00  0.00    +0.049 A 
BRANCH  27  30
ATOM     30  C   UNL     1      -4.048  -1.961   2.329  0.00  0.00    +0.419 C 
ATOM     31  F   UNL     1      -5.013  -2.153   3.324  0.00  0.00    -0.166 F 
ATOM     32  F   UNL     1      -4.668  -1.943   1.075  0.00  0.00    -0.166 F 
ATOM     33  F   UNL     1      -3.118  -3.006   2.373  0.00  0.00    -0.166 F 
ENDBRANCH  27  30
ENDBRANCH  20  21
ENDBRANCH   3  20
TORSDOF 8
