REMARK  Name = ZINC09576438
REMARK  10 active torsions:
REMARK  status: ('A' for Active; 'I' for Inactive)
REMARK    1  A    between atoms: C_1  and  C_2
REMARK    2  A    between atoms: C_2  and  C_4
REMARK    3  A    between atoms: C_2  and  C_19
REMARK    4  A    between atoms: N_21  and  C_22
REMARK    5  A    between atoms: C_22  and  C_23
REMARK    6  A    between atoms: C_23  and  C_25
REMARK    7  A    between atoms: C_23  and  O_33
REMARK    8  A    between atoms: C_25  and  O_26
REMARK    9  A    between atoms: O_26  and  C_27
REMARK   10  A    between atoms: C_27  and  C_28
REMARK                            x       y       z     vdW  Elec       q    Type
REMARK                         _______ _______ _______ _____ _____    ______ ____
ROOT
ATOM      1  C   UNL     1       0.306   6.303  -1.217  0.00  0.00    +0.022 C 
ATOM      2  C   UNL     1       0.913   5.643   0.023  0.00  0.00    +0.102 C 
ENDROOT
BRANCH   2   3
ATOM      3  C   UNL     1       0.590   4.171   0.019  0.00  0.00    -0.034 A 
ATOM      4  C   UNL     1      -0.734   3.758   0.029  0.00  0.00    +0.005 A 
ATOM      5  C   UNL     1      -1.042   2.415   0.020  0.00  0.00    +0.011 A 
ATOM      6  C   UNL     1      -0.018   1.470   0.010  0.00  0.00    +0.007 A 
ATOM      7  C   UNL     1       0.002  -0.004   0.002  0.00  0.00    +0.009 A 
ATOM      8  C   UNL     1      -0.996  -0.976   0.006  0.00  0.00    +0.030 A 
ATOM      9  C   UNL     1      -0.651  -2.312  -0.005  0.00  0.00    +0.042 A 
ATOM     10  C   UNL     1       0.684  -2.688  -0.020  0.00  0.00    +0.022 A 
ATOM     11  C   UNL     1       1.681  -1.736  -0.024  0.00  0.00    +0.027 A 
ATOM     12  C   UNL     1       1.352  -0.384  -0.013  0.00  0.00    +0.048 A 
ATOM     13  N   UNL     1       2.128   0.763  -0.014  0.00  0.00    -0.354 N 
ATOM     14  H   UNL     1       3.098   0.776  -0.024  0.00  0.00    +0.166 HD
ATOM     15  C   UNL     1       1.321   1.887  -0.000  0.00  0.00    +0.048 A 
ATOM     16  C   UNL     1       1.612   3.248   0.004  0.00  0.00    +0.030 A 
ATOM     17 CL   UNL     1      -1.892  -3.525  -0.001  0.00  0.00    -0.084 Cl
ENDBRANCH   2   3
BRANCH   2  18
ATOM     18  C   UNL     1       0.339   6.280   1.262  0.00  0.00    +0.220 C 
ATOM     19  O   UNL     1      -0.272   5.605   2.063  0.00  0.00    -0.275 OA
ATOM     20  N   UNL     1       0.505   7.600   1.481  0.00  0.00    -0.312 N 
ATOM     21  H   UNL     1       0.994   8.140   0.840  0.00  0.00    +0.149 HD
BRANCH  20  22
ATOM     22  C   UNL     1      -0.053   8.219   2.686  0.00  0.00    +0.137 C 
BRANCH  22  23
ATOM     23  C   UNL     1       0.275   9.713   2.690  0.00  0.00    +0.157 C 
BRANCH  23  24
ATOM     24  O   UNL     1       1.693   9.889   2.677  0.00  0.00    -0.388 OA
ATOM     25  H   UNL     1       2.145   9.496   3.436  0.00  0.00    +0.210 HD
ENDBRANCH  23  24
BRANCH  23  26
ATOM     26  C   UNL     1      -0.308  10.359   3.949  0.00  0.00    +0.193 C 
BRANCH  26  27
ATOM     27  O   UNL     1      -0.103  11.773   3.896  0.00  0.00    -0.370 OA
BRANCH  27  28
ATOM     28  C   UNL     1      -0.614  12.476   5.031  0.00  0.00    +0.234 C 
BRANCH  28  29
ATOM     29  C   UNL     1      -0.344  13.950   4.871  0.00  0.00    +0.130 A 
ATOM     30  C   UNL     1      -1.163  14.840   4.281  0.00  0.00    +0.047 A 
ATOM     31  C   UNL     1      -0.520  16.097   4.352  0.00  0.00    +0.041 A 
ATOM     32  C   UNL     1       0.652  15.901   4.981  0.00  0.00    +0.195 A 
ATOM     33  O   UNL     1       0.751  14.599   5.298  0.00  0.00    -0.465 OA
ENDBRANCH  28  29
ENDBRANCH  27  28
ENDBRANCH  26  27
ENDBRANCH  23  26
ENDBRANCH  22  23
ENDBRANCH  20  22
ENDBRANCH   2  18
TORSDOF 9
