REMARK  Name = ZINC36589129
REMARK  14 active torsions:
REMARK  status: ('A' for Active; 'I' for Inactive)
REMARK    1  A    between atoms: C_1  and  C_2
REMARK    2  A    between atoms: C_2  and  C_31
REMARK    3  A    between atoms: C_3  and  C_4
REMARK    4  A    between atoms: N_6  and  C_7
REMARK    5  A    between atoms: N_6  and  C_27
REMARK    6  A    between atoms: C_7  and  C_9
REMARK    7  A    between atoms: C_7  and  C_18
REMARK    8  A    between atoms: C_10  and  O_17
REMARK    9  A    between atoms: C_12  and  O_16
REMARK   10  A    between atoms: C_14  and  O_15
REMARK   11  A    between atoms: N_20  and  C_21
REMARK   12  A    between atoms: C_27  and  C_28
REMARK   13  A    between atoms: C_27  and  C_29
REMARK   14  A    between atoms: C_27  and  C_30
REMARK                            x       y       z     vdW  Elec       q    Type
REMARK                         _______ _______ _______ _____ _____    ______ ____
ROOT
ATOM      1  C   UNL     1       5.224   0.369  -0.115  0.00  0.00    +0.200 C 
ENDROOT
BRANCH   1   2
ATOM      2  C   UNL     1       5.303   0.611  -1.600  0.00  0.00    +0.065 A 
ATOM      3  C   UNL     1       4.903  -0.379  -2.486  0.00  0.00    +0.129 A 
ATOM      4  C   UNL     1       4.976  -0.156  -3.853  0.00  0.00    +0.091 A 
ATOM      5  C   UNL     1       5.448   1.056  -4.334  0.00  0.00    +0.124 A 
ATOM      6  C   UNL     1       5.848   2.045  -3.448  0.00  0.00    +0.091 A 
ATOM      7  C   UNL     1       5.771   1.824  -2.081  0.00  0.00    +0.129 A 
BRANCH   7   8
ATOM      8  O   UNL     1       6.158   2.796  -1.213  0.00  0.00    -0.506 OA
ATOM      9  H   UNL     1       7.093   2.756  -0.970  0.00  0.00    +0.292 HD
ENDBRANCH   7   8
BRANCH   5  10
ATOM     10  O   UNL     1       5.521   1.273  -5.673  0.00  0.00    -0.507 OA
ATOM     11  H   UNL     1       4.720   1.660  -6.053  0.00  0.00    +0.292 HD
ENDBRANCH   5  10
BRANCH   3  12
ATOM     12  O   UNL     1       4.440  -1.566  -2.014  0.00  0.00    -0.506 OA
ATOM     13  H   UNL     1       3.479  -1.598  -1.906  0.00  0.00    +0.292 HD
ENDBRANCH   3  12
ENDBRANCH   1   2
BRANCH   1  14
ATOM     14  C   UNL     1       5.981  -0.887   0.231  0.00  0.00    +0.239 C 
ATOM     15  O   UNL     1       5.379  -1.911   0.475  0.00  0.00    -0.273 OA
ATOM     16  N   UNL     1       7.329  -0.873   0.269  0.00  0.00    -0.311 N 
ATOM     17  H   UNL     1       7.811  -0.054   0.073  0.00  0.00    +0.149 HD
BRANCH  16  18
ATOM     18  C   UNL     1       8.065  -2.094   0.605  0.00  0.00    +0.073 C 
ATOM     19  C   UNL     1       8.170  -2.224   2.126  0.00  0.00    +0.022 C 
ATOM     20  C   UNL     1       8.939  -3.499   2.476  0.00  0.00    +0.002 C 
ATOM     21  C   UNL     1      10.343  -3.430   1.872  0.00  0.00    +0.000 C 
ATOM     22  C   UNL     1      10.238  -3.300   0.351  0.00  0.00    +0.002 C 
ATOM     23  C   UNL     1       9.469  -2.025   0.001  0.00  0.00    +0.022 C 
ENDBRANCH  16  18
ENDBRANCH   1  14
BRANCH   1  26
ATOM     24  C   UNL     1       2.849   0.261  -0.651  0.00  0.00    +0.241 C 
ATOM     25  O   UNL     1       3.125   0.531  -1.804  0.00  0.00    -0.271 OA
ATOM     26  N   UNL     1       3.822   0.218   0.281  0.00  0.00    -0.277 N 
BRANCH  24  29
ATOM     27  C   UNL     1       0.894  -0.300  -2.651  0.00  0.00    +0.039 C 
ATOM     28  C   UNL     1       0.512  -0.079  -1.210  0.00  0.00    -0.071 C 
ATOM     29  C   UNL     1       1.456  -0.019  -0.274  0.00  0.00    +0.066 C 
ATOM     30  C   UNL     1      -0.938   0.076  -0.830  0.00  0.00    +0.039 C 
ENDBRANCH  24  29
BRANCH  26  31
ATOM     31  C   UNL     1       3.476   0.020   1.691  0.00  0.00    +0.030 C 
ATOM     32  C   UNL     1       2.819  -1.350   1.868  0.00  0.00    +0.031 C 
ATOM     33  C   UNL     1       4.745   0.091   2.542  0.00  0.00    +0.031 C 
ATOM     34  C   UNL     1       2.502   1.113   2.136  0.00  0.00    +0.031 C 
ENDBRANCH  26  31
ENDBRANCH   1  26
TORSDOF 9
