REMARK  Name = ZINC39635746
REMARK  5 active torsions:
REMARK  status: ('A' for Active; 'I' for Inactive)
REMARK    1  A    between atoms: C_1  and  C_2
REMARK    2  A    between atoms: C_8  and  N_10
REMARK    3  A    between atoms: C_11  and  C_13
REMARK    4  A    between atoms: C_24  and  C_26
REMARK    5  A    between atoms: C_32  and  C_34
REMARK                            x       y       z     vdW  Elec       q    Type
REMARK                         _______ _______ _______ _____ _____    ______ ____
ROOT
ATOM      1  C   UNL     1       4.209   0.649   2.377  0.00  0.00    +0.100 C 
ATOM      2  C   UNL     1       5.154  -0.371   1.704  0.00  0.00    +0.121 C 
ATOM      3  N   UNL     1       6.408  -0.294   2.489  0.00  0.00    -0.299 N 
ATOM      4  C   UNL     1       5.957  -0.151   3.894  0.00  0.00    +0.115 C 
ATOM      5  C   UNL     1       4.739   0.790   3.814  0.00  0.00    -0.004 C 
ATOM      6  C   UNL     1       3.672   0.358   4.816  0.00  0.00    -0.010 C 
ATOM      7  C   UNL     1       4.200   0.562   6.238  0.00  0.00    -0.082 C 
ATOM      8  N   UNL     1       4.542   1.975   6.437  0.00  0.00    +0.379 N 
ATOM      9  C   UNL     1       5.634   2.358   5.534  0.00  0.00    -0.082 C 
ATOM     10  C   UNL     1       5.166   2.230   4.081  0.00  0.00    -0.010 C 
ATOM     11  C   UNL     1       7.675  -0.341   2.029  0.00  0.00    +0.236 C 
ATOM     12  O   UNL     1       8.604  -0.265   2.804  0.00  0.00    -0.274 OA
ATOM     13  H   UNL     1       3.733   2.546   6.245  0.00  0.00    -0.086 HD
ATOM     14  H   UNL     1       4.832   2.119   7.393  0.00  0.00    -0.086 HD
ENDROOT
BRANCH  11  15
ATOM     15  C   UNL     1       7.935  -0.490   0.552  0.00  0.00    +0.162 C 
ATOM     16  C   UNL     1       7.783  -1.969   0.139  0.00  0.00    +0.033 C 
ATOM     17  C   UNL     1       8.920  -2.157  -0.900  0.00  0.00    +0.021 C 
ATOM     18  C   UNL     1      10.031  -1.252  -0.312  0.00  0.00    +0.109 C 
ATOM     19  N   UNL     1       9.315  -0.086   0.245  0.00  0.00    -0.283 N 
ATOM     20  C   UNL     1       9.836   1.141   0.440  0.00  0.00    +0.320 C 
ATOM     21  O   UNL     1       9.149   2.025   0.906  0.00  0.00    -0.266 OA
BRANCH  20  22
ATOM     22  C   UNL     1      11.273   1.415   0.077  0.00  0.00    +0.470 C 
ATOM     23  F   UNL     1      11.581   2.749   0.368  0.00  0.00    -0.162 F 
ATOM     24  F   UNL     1      12.110   0.572   0.816  0.00  0.00    -0.162 F 
ATOM     25  F   UNL     1      11.463   1.180  -1.289  0.00  0.00    -0.162 F 
ENDBRANCH  20  22
ENDBRANCH  11  15
BRANCH   1  27
ATOM     26  N   UNL     1       1.759   0.989   2.358  0.00  0.00    -0.312 N 
ATOM     27  C   UNL     1       2.795   0.128   2.388  0.00  0.00    +0.218 C 
ATOM     28  O   UNL     1       2.590  -1.067   2.424  0.00  0.00    -0.275 OA
ATOM     29  H   UNL     1       1.923   1.945   2.330  0.00  0.00    +0.149 HD
BRANCH  26  36
ATOM     30  C   UNL     1      -0.119   1.888   4.372  0.00  0.00    +0.009 C 
ATOM     31  C   UNL     1      -0.549   1.550   2.943  0.00  0.00    +0.006 C 
ATOM     32  C   UNL     1      -0.476   2.809   2.077  0.00  0.00    +0.005 C 
ATOM     33  C   UNL     1      -0.906   2.471   0.648  0.00  0.00    +0.000 C 
ATOM     34  C   UNL     1       0.027   1.403   0.074  0.00  0.00    +0.002 C 
ATOM     35  C   UNL     1      -0.045   0.144   0.940  0.00  0.00    +0.022 C 
ATOM     36  C   UNL     1       0.384   0.482   2.369  0.00  0.00    +0.076 C 
ENDBRANCH  26  36
ENDBRANCH   1  27
TORSDOF 4
