REMARK  Name = ZINC64678415
REMARK  7 active torsions:
REMARK  status: ('A' for Active; 'I' for Inactive)
REMARK    1  A    between atoms: C_1  and  C_2
REMARK    2  A    between atoms: C_7  and  C_12
REMARK    3  A    between atoms: C_15  and  C_18
REMARK    4  A    between atoms: C_18  and  C_19
REMARK    5  A    between atoms: C_19  and  N_20
REMARK    6  A    between atoms: N_20  and  C_21
REMARK    7  A    between atoms: C_22  and  C_24
REMARK                            x       y       z     vdW  Elec       q    Type
REMARK                         _______ _______ _______ _____ _____    ______ ____
ROOT
ATOM      1  C   UNL     1       1.779  -5.366   1.499  0.00  0.00    +0.318 C 
ATOM      2  N   UNL     1       1.986  -6.715   0.948  0.00  0.00    -0.291 N 
ATOM      3  C   UNL     1       1.674  -7.605   1.948  0.00  0.00    +0.139 C 
ATOM      4  N   UNL     1       1.309  -7.001   3.020  0.00  0.00    -0.072 NA
ATOM      5  O   UNL     1       1.341  -5.594   2.848  0.00  0.00    -0.367 OA
ATOM      6  H   UNL     1       2.286  -6.934   0.052  0.00  0.00    +0.151 HD
ENDROOT
BRANCH   1  13
ATOM      7  C   UNL     1       1.336   1.041  -1.436  0.00  0.00    +0.044 C 
ATOM      8  C   UNL     1       1.273  -0.453  -1.254  0.00  0.00    -0.050 A 
ATOM      9  C   UNL     1       1.561  -1.286  -2.344  0.00  0.00    +0.005 A 
ATOM     10  C   UNL     1       1.526  -2.633  -2.262  0.00  0.00    +0.026 A 
ATOM     11  C   UNL     1       1.188  -3.270  -1.036  0.00  0.00    +0.043 A 
ATOM     12  N   UNL     1       1.087  -4.535  -0.708  0.00  0.00    -0.373 N 
ATOM     13  C   UNL     1       0.702  -4.623   0.705  0.00  0.00    +0.165 C 
ATOM     14  C   UNL     1       0.584  -3.197   1.192  0.00  0.00    +0.012 C 
ATOM     15  C   UNL     1       0.880  -2.412   0.131  0.00  0.00    -0.004 A 
ATOM     16  C   UNL     1       0.946  -0.956  -0.042  0.00  0.00    +0.013 A 
ATOM     17  H   UNL     1       1.240  -5.287  -1.301  0.00  0.00    +0.160 HD
ENDBRANCH   1  13
BRANCH   3  18
ATOM     18  C   UNL     1       1.750  -9.104   1.804  0.00  0.00    +0.094 C 
BRANCH  18  19
ATOM     19  C   UNL     1       1.330  -9.765   3.118  0.00  0.00    +0.115 C 
BRANCH  19  20
ATOM     20  N   UNL     1       1.403 -11.221   2.977  0.00  0.00    -0.300 N 
ATOM     21  C   UNL     1       2.645 -11.927   3.303  0.00  0.00    +0.132 C 
ATOM     22  C   UNL     1       0.329 -11.912   2.547  0.00  0.00    +0.247 C 
ATOM     23  O   UNL     1      -0.669 -11.320   2.186  0.00  0.00    -0.270 OA
BRANCH  22  24
ATOM     24  C   UNL     1       0.364 -13.389   2.516  0.00  0.00    +0.051 A 
ATOM     25  C   UNL     1       0.874 -14.102   3.603  0.00  0.00    +0.014 A 
ATOM     26  C   UNL     1       0.903 -15.480   3.568  0.00  0.00    +0.001 A 
ATOM     27  C   UNL     1       0.430 -16.158   2.458  0.00  0.00    +0.001 A 
ATOM     28  C   UNL     1      -0.076 -15.459   1.377  0.00  0.00    +0.016 A 
ATOM     29  C   UNL     1      -0.117 -14.079   1.401  0.00  0.00    +0.030 A 
ATOM     30 BR   UNL     1      -0.817 -13.125  -0.074  0.00  0.00    -0.050 Br
ENDBRANCH  22  24
ENDBRANCH  19  20
ENDBRANCH  18  19
ENDBRANCH   3  18
TORSDOF 5
