REMARK  Name = ZINC02633391
REMARK  6 active torsions:
REMARK  status: ('A' for Active; 'I' for Inactive)
REMARK    1  A    between atoms: C_4  and  N_26
REMARK    2  A    between atoms: C_5  and  C_7
REMARK    3  A    between atoms: C_7  and  O_9
REMARK    4  A    between atoms: O_9  and  C_10
REMARK    5  A    between atoms: C_10  and  C_11
REMARK    6  A    between atoms: C_27  and  C_29
REMARK                            x       y       z     vdW  Elec       q    Type
REMARK                         _______ _______ _______ _____ _____    ______ ____
ROOT
ATOM      1  C   UNL     1       4.362   6.651  -0.005  0.00  0.00    +0.341 C 
ATOM      2  O   UNL     1       5.575   6.712  -0.012  0.00  0.00    -0.245 OA
ENDROOT
BRANCH   1   7
ATOM      3  C   UNL     1       1.427   8.987  -0.082  0.00  0.00    +0.001 A 
ATOM      4  C   UNL     1       2.054  10.218   0.024  0.00  0.00    +0.002 A 
ATOM      5  C   UNL     1       3.429  10.296   0.121  0.00  0.00    +0.024 A 
ATOM      6  C   UNL     1       4.194   9.137   0.113  0.00  0.00    +0.048 A 
ATOM      7  C   UNL     1       3.562   7.888   0.005  0.00  0.00    +0.080 A 
ATOM      8  C   UNL     1       2.169   7.826  -0.097  0.00  0.00    +0.017 A 
BRANCH   6   9
ATOM      9  N   UNL     1       5.580   9.213   0.209  0.00  0.00    -0.278 N 
ATOM     10  C   UNL     1       6.151  10.170   0.968  0.00  0.00    +0.284 C 
ATOM     11  O   UNL     1       5.456  10.906   1.643  0.00  0.00    -0.266 OA
ATOM     12  H   UNL     1       6.135   8.578  -0.269  0.00  0.00    +0.155 HD
BRANCH  10  13
ATOM     13  C   UNL     1       7.608  10.324   0.979  0.00  0.00    +0.189 A 
ATOM     14  C   UNL     1       8.313  11.247   1.698  0.00  0.00    +0.054 A 
ATOM     15  C   UNL     1       9.669  11.034   1.408  0.00  0.00    +0.042 A 
ATOM     16  C   UNL     1       9.733  10.004   0.536  0.00  0.00    +0.196 A 
ATOM     17  O   UNL     1       8.490   9.575   0.284  0.00  0.00    -0.458 OA
ENDBRANCH  10  13
ENDBRANCH   6   9
ENDBRANCH   1   7
BRANCH   1  18
ATOM     18  O   UNL     1       3.748   5.451  -0.008  0.00  0.00    -0.453 OA
BRANCH  18  19
ATOM     19  C   UNL     1       4.599   4.275  -0.019  0.00  0.00    +0.306 C 
BRANCH  19  20
ATOM     20  C   UNL     1       3.742   3.035  -0.021  0.00  0.00    +0.149 A 
ATOM     21  N   UNL     1       4.354   1.827  -0.031  0.00  0.00    -0.308 N 
ATOM     22  H   UNL     1       5.323   1.799  -0.036  0.00  0.00    +0.170 HD
ATOM     23  C   UNL     1       3.675   0.654  -0.033  0.00  0.00    +0.260 A 
ATOM     24  O   UNL     1       4.244  -0.424  -0.040  0.00  0.00    -0.267 OA
ATOM     25  C   UNL     1       2.244   0.764  -0.024  0.00  0.00    +0.075 A 
ATOM     26  C   UNL     1       1.288  -0.329  -0.025  0.00  0.00    -0.023 A 
ATOM     27  C   UNL     1      -0.022   0.011  -0.017  0.00  0.00    -0.004 A 
ATOM     28  S   UNL     1      -0.042   1.786  -0.008  0.00  0.00    -0.073 S 
ATOM     29  C   UNL     1       1.700   2.067  -0.015  0.00  0.00    +0.116 A 
ATOM     30  N   UNL     1       2.434   3.176  -0.013  0.00  0.00    -0.223 NA
ATOM     31  C   UNL     1      -1.200  -0.914  -0.017  0.00  0.00    +0.043 C 
ATOM     32  C   UNL     1      -0.714  -2.320  -0.400  0.00  0.00    +0.005 C 
ATOM     33  C   UNL     1       0.529  -2.652   0.431  0.00  0.00    +0.005 C 
ATOM     34  C   UNL     1       1.708  -1.797  -0.033  0.00  0.00    +0.037 C 
ENDBRANCH  19  20
ENDBRANCH  18  19
ENDBRANCH   1  18
TORSDOF 6
