REMARK  Name = ZINC12130680
REMARK  3 active torsions:
REMARK  status: ('A' for Active; 'I' for Inactive)
REMARK    1  A    between atoms: C_5  and  C_6
REMARK    2  A    between atoms: N_8  and  C_9
REMARK    3  A    between atoms: C_11  and  C_26
REMARK                            x       y       z     vdW  Elec       q    Type
REMARK                         _______ _______ _______ _____ _____    ______ ____
ROOT
ATOM      1  C   UNL     1      -3.953  -0.379  -1.789  0.00  0.00    +0.132 A 
ATOM      2  C   UNL     1      -3.292   0.333  -0.837  0.00  0.00    +0.069 A 
ATOM      3  C   UNL     1      -2.164   0.907  -1.435  0.00  0.00    +0.068 A 
ATOM      4  N   UNL     1      -2.134   0.552  -2.693  0.00  0.00    -0.167 NA
ATOM      5  N   UNL     1      -3.247  -0.259  -2.951  0.00  0.00    -0.185 N 
ATOM      6  C   UNL     1      -3.572  -0.835  -4.165  0.00  0.00    +0.234 A 
ATOM      7  N   UNL     1      -2.769  -0.625  -5.241  0.00  0.00    -0.291 N 
ATOM      8  H   UNL     1      -1.972  -0.079  -5.157  0.00  0.00    +0.172 HD
ATOM      9  C   UNL     1      -3.087  -1.183  -6.426  0.00  0.00    +0.256 A 
ATOM     10  O   UNL     1      -2.378  -1.008  -7.403  0.00  0.00    -0.267 OA
ATOM     11  C   UNL     1      -4.255  -1.974  -6.521  0.00  0.00    +0.038 A 
ATOM     12  C   UNL     1      -5.015  -2.154  -5.412  0.00  0.00    +0.053 A 
ATOM     13  N   UNL     1      -4.649  -1.579  -4.259  0.00  0.00    -0.217 NA
ATOM     14  C   UNL     1      -6.268  -2.989  -5.413  0.00  0.00    +0.056 C 
ATOM     15  C   UNL     1      -6.774  -3.198  -6.839  0.00  0.00    +0.006 C 
ATOM     16  C   UNL     1      -5.608  -3.707  -7.696  0.00  0.00    +0.005 C 
ATOM     17  C   UNL     1      -4.600  -2.570  -7.859  0.00  0.00    +0.042 C 
ENDROOT
BRANCH   1  20
ATOM     18  C   UNL     1      -5.723  -1.132  -0.400  0.00  0.00    +0.285 C 
ATOM     19  O   UNL     1      -5.230  -0.529   0.536  0.00  0.00    -0.266 OA
ATOM     20  N   UNL     1      -5.129  -1.100  -1.609  0.00  0.00    -0.264 N 
ATOM     21  H   UNL     1      -5.522  -1.581  -2.355  0.00  0.00    +0.157 HD
BRANCH  18  26
ATOM     22  C   UNL     1      -7.659  -2.011   0.957  0.00  0.00    +0.056 A 
ATOM     23  C   UNL     1      -8.772  -2.820   0.682  0.00  0.00    +0.058 A 
ATOM     24  C   UNL     1      -8.701  -3.162  -0.625  0.00  0.00    +0.171 A 
ATOM     25  O   UNL     1      -7.609  -2.600  -1.159  0.00  0.00    -0.444 OA
ATOM     26  C   UNL     1      -6.961  -1.891  -0.211  0.00  0.00    +0.191 A 
ATOM     27 BR   UNL     1      -9.941  -4.254  -1.546  0.00  0.00    -0.008 Br
ENDBRANCH  18  26
ENDBRANCH   1  20
BRANCH   3  28
ATOM     28  C   UNL     1      -1.150   1.781  -0.743  0.00  0.00    +0.040 C 
ATOM     29  C   UNL     1      -0.013   1.086   0.008  0.00  0.00    +0.010 C 
ATOM     30  C   UNL     1      -1.136   1.773   0.788  0.00  0.00    +0.010 C 
ENDBRANCH   3  28
TORSDOF 3
