REMARK  Name = ZINC64369810
REMARK  6 active torsions:
REMARK  status: ('A' for Active; 'I' for Inactive)
REMARK    1  A    between atoms: C_3  and  C_6
REMARK    2  A    between atoms: N_11  and  C_13
REMARK    3  A    between atoms: C_13  and  C_14
REMARK    4  A    between atoms: N_16  and  C_17
REMARK    5  A    between atoms: C_17  and  C_18
REMARK    6  A    between atoms: C_18  and  C_19
REMARK                            x       y       z     vdW  Elec       q    Type
REMARK                         _______ _______ _______ _____ _____    ______ ____
ROOT
ATOM      1  C   UNL     1       7.106   0.205  -2.290  0.00  0.00    +0.232 C 
ATOM      2  O   UNL     1       6.336   0.844  -2.975  0.00  0.00    -0.274 OA
ATOM      3  N   UNL     1       7.972  -0.651  -2.868  0.00  0.00    -0.314 N 
ATOM      4  H   UNL     1       8.588  -1.163  -2.320  0.00  0.00    +0.149 HD
ENDROOT
BRANCH   1   5
ATOM      5  C   UNL     1       7.095   0.368  -0.792  0.00  0.00    +0.226 C 
BRANCH   5  11
ATOM      6  C   UNL     1       3.736   1.823  -0.024  0.00  0.00    +0.055 C 
ATOM      7  C   UNL     1       3.970   3.135  -0.013  0.00  0.00    +0.008 C 
ATOM      8  C   UNL     1       5.361   3.695  -0.017  0.00  0.00    +0.126 C 
ATOM      9  C   UNL     1       6.366   2.659  -0.428  0.00  0.00    +0.236 C 
ATOM     10  O   UNL     1       7.471   3.014  -0.780  0.00  0.00    -0.274 OA
ATOM     11  N   UNL     1       6.073   1.347  -0.415  0.00  0.00    -0.213 N 
ATOM     12  N   UNL     1       4.794   0.913  -0.039  0.00  0.00    -0.261 N 
ATOM     13  H   UNL     1       4.644  -0.013   0.207  0.00  0.00    +0.170 HD
BRANCH   6  16
ATOM     14  C   UNL     1      -0.016   1.354   0.009  0.00  0.00    +0.008 A 
ATOM     15  C   UNL     1       1.177   2.041   0.002  0.00  0.00    +0.017 A 
ATOM     16  C   UNL     1       2.347   1.329  -0.013  0.00  0.00    +0.034 A 
ATOM     17  S   UNL     1       1.752  -0.355  -0.017  0.00  0.00    -0.095 S 
ATOM     18  C   UNL     1       0.002  -0.004   0.002  0.00  0.00    +0.046 A 
ENDBRANCH   6  16
ENDBRANCH   5  11
ENDBRANCH   1   5
BRANCH   3  19
ATOM     19  C   UNL     1       7.983  -0.810  -4.324  0.00  0.00    +0.108 C 
BRANCH  19  20
ATOM     20  C   UNL     1       9.050  -1.833  -4.718  0.00  0.00    +0.052 C 
BRANCH  20  21
ATOM     21  C   UNL     1       9.062  -1.996  -6.216  0.00  0.00    -0.040 C 
ATOM     22  C   UNL     1       9.868  -1.361  -7.097  0.00  0.00    +0.000 A 
ATOM     23  C   UNL     1      10.935  -0.367  -6.930  0.00  0.00    +0.030 A 
ATOM     24  C   UNL     1      11.579   0.095  -8.027  0.00  0.00    +0.042 A 
ATOM     25  C   UNL     1      11.252  -0.352  -9.316  0.00  0.00    +0.022 A 
ATOM     26  C   UNL     1      10.285  -1.264  -9.549  0.00  0.00    +0.027 A 
ATOM     27  C   UNL     1       9.544  -1.817  -8.468  0.00  0.00    +0.043 A 
ATOM     28  N   UNL     1       8.574  -2.698  -8.435  0.00  0.00    -0.380 N 
ATOM     29  C   UNL     1       8.178  -2.907  -7.038  0.00  0.00    +0.144 C 
ATOM     30 CL   UNL     1      12.841   1.271  -7.834  0.00  0.00    -0.084 Cl
ATOM     31  H   UNL     1       8.186  -3.142  -9.206  0.00  0.00    +0.160 HD
ENDBRANCH  20  21
ENDBRANCH  19  20
ENDBRANCH   3  19
TORSDOF 6
