REMARK  Name = ZINC39531060
REMARK  10 active torsions:
REMARK  status: ('A' for Active; 'I' for Inactive)
REMARK    1  A    between atoms: C_4  and  C_7
REMARK    2  A    between atoms: C_7  and  C_8
REMARK    3  A    between atoms: C_11  and  C_14
REMARK    4  A    between atoms: C_14  and  C_16
REMARK    5  A    between atoms: C_14  and  N_27
REMARK    6  A    between atoms: C_16  and  N_17
REMARK    7  A    between atoms: N_17  and  S_18
REMARK    8  A    between atoms: S_18  and  C_21
REMARK    9  A    between atoms: C_31  and  C_34
REMARK   10  A    between atoms: C_39  and  O_40
REMARK                            x       y       z     vdW  Elec       q    Type
REMARK                         _______ _______ _______ _____ _____    ______ ____
ROOT
ATOM      1  C   UNL     1       5.311  -1.689   5.306  0.00  0.00    +0.102 C 
ENDROOT
BRANCH   1   2
ATOM      2  N   UNL     1       5.506  -3.141   5.407  0.00  0.00    -0.297 NA
ATOM      3  C   UNL     1       5.794  -3.539   6.793  0.00  0.00    +0.066 C 
ATOM      4  C   UNL     1       5.932  -5.061   6.865  0.00  0.00    -0.066 C 
ATOM      5  N   UNL     1       7.017  -5.498   5.977  0.00  0.00    +0.385 N 
ATOM      6  C   UNL     1       6.704  -5.115   4.594  0.00  0.00    -0.023 C 
ATOM      7  C   UNL     1       6.572  -3.593   4.503  0.00  0.00    +0.074 C 
ATOM      8  H   UNL     1       7.880  -5.058   6.260  0.00  0.00    -0.085 HD
ATOM      9  H   UNL     1       7.116  -6.500   6.034  0.00  0.00    -0.085 HD
BRANCH   6  10
ATOM     10  C   UNL     1       7.810  -5.580   3.682  0.00  0.00    -0.019 A 
ATOM     11  C   UNL     1       9.056  -5.875   4.200  0.00  0.00    +0.005 A 
ATOM     12  C   UNL     1      10.071  -6.301   3.364  0.00  0.00    +0.000 A 
ATOM     13  C   UNL     1       9.842  -6.432   2.006  0.00  0.00    +0.004 A 
ATOM     14  C   UNL     1       8.598  -6.138   1.483  0.00  0.00    +0.045 A 
ATOM     15  C   UNL     1       7.576  -5.716   2.321  0.00  0.00    +0.118 A 
BRANCH  15  16
ATOM     16  O   UNL     1       6.350  -5.432   1.809  0.00  0.00    -0.507 OA
ATOM     17  H   UNL     1       6.242  -4.511   1.534  0.00  0.00    +0.292 HD
ENDBRANCH  15  16
ENDBRANCH   6  10
ENDBRANCH   1   2
BRANCH   1  21
ATOM     18  C   UNL     1       4.269  -0.670   1.291  0.00  0.00    -0.043 A 
ATOM     19  C   UNL     1       5.132   0.139   2.008  0.00  0.00    +0.004 A 
ATOM     20  C   UNL     1       5.468  -0.191   3.307  0.00  0.00    +0.005 A 
ATOM     21  C   UNL     1       4.943  -1.329   3.890  0.00  0.00    -0.029 A 
ATOM     22  C   UNL     1       4.080  -2.137   3.174  0.00  0.00    +0.005 A 
ATOM     23  C   UNL     1       3.740  -1.805   1.875  0.00  0.00    +0.004 A 
BRANCH  18  24
ATOM     24  C   UNL     1       3.902  -0.310  -0.126  0.00  0.00    +0.070 C 
BRANCH  24  28
ATOM     25  C   UNL     1       0.435   2.185  -0.111  0.00  0.00    +0.000 A 
ATOM     26  C   UNL     1       1.694   2.751  -0.047  0.00  0.00    +0.000 A 
ATOM     27  C   UNL     1       2.816   1.944  -0.052  0.00  0.00    +0.004 A 
ATOM     28  C   UNL     1       2.679   0.570  -0.120  0.00  0.00    -0.043 A 
ATOM     29  C   UNL     1       1.420   0.004  -0.183  0.00  0.00    +0.004 A 
ATOM     30  C   UNL     1       0.298   0.811  -0.179  0.00  0.00    +0.000 A 
ENDBRANCH  24  28
ENDBRANCH  18  24
ENDBRANCH   1  21
BRANCH   1  31
ATOM     31  C   UNL     1       4.186  -1.259   6.251  0.00  0.00    +0.129 C 
BRANCH  31  32
ATOM     32  N   UNL     1       4.043   0.198   6.208  0.00  0.00    -0.188 NA
ATOM     33  H   UNL     1       4.753   0.745   5.835  0.00  0.00    +0.148 HD
BRANCH  32  34
ATOM     34  S   UNL     1       2.670   0.913   6.796  0.00  0.00    +0.058 S 
ATOM     35  O   UNL     1       2.843   2.315   6.639  0.00  0.00    -0.153 OA
ATOM     36  O   UNL     1       1.572   0.213   6.227  0.00  0.00    -0.153 OA
BRANCH  34  37
ATOM     37  C   UNL     1       2.622   0.602   8.530  0.00  0.00    +0.105 A 
ATOM     38  C   UNL     1       1.997  -0.533   9.011  0.00  0.00    +0.028 A 
ATOM     39  C   UNL     1       1.960  -0.778  10.371  0.00  0.00    +0.002 A 
ATOM     40  C   UNL     1       2.547   0.113  11.250  0.00  0.00    +0.000 A 
ATOM     41  C   UNL     1       3.173   1.248  10.768  0.00  0.00    +0.002 A 
ATOM     42  C   UNL     1       3.214   1.490   9.408  0.00  0.00    +0.028 A 
ENDBRANCH  34  37
ENDBRANCH  32  34
ENDBRANCH  31  32
ENDBRANCH   1  31
TORSDOF 10
