REMARK  Name = ZINC12246984
REMARK  10 active torsions:
REMARK  status: ('A' for Active; 'I' for Inactive)
REMARK    1  A    between atoms: C_1  and  C_2
REMARK    2  A    between atoms: C_2  and  C_3
REMARK    3  A    between atoms: C_3  and  C_4
REMARK    4  A    between atoms: C_4  and  C_19
REMARK    5  A    between atoms: N_7  and  C_11
REMARK    6  A    between atoms: C_11  and  C_12
REMARK    7  A    between atoms: C_12  and  C_13
REMARK    8  A    between atoms: C_18  and  N_71
REMARK    9  A    between atoms: C_25  and  C_27
REMARK   10  A    between atoms: C_28  and  C_29
REMARK                            x       y       z     vdW  Elec       q    Type
REMARK                         _______ _______ _______ _____ _____    ______ ____
ROOT
ATOM      1  C   UNL     1      -0.328  -2.286  -0.363  0.00  0.00    +0.115 C 
ATOM      2  C   UNL     1      -0.726  -0.852  -0.650  0.00  0.00    +0.247 C 
ATOM      3  O   UNL     1      -1.680  -0.471  -1.294  0.00  0.00    -0.273 OA
ATOM      4  N   UNL     1       0.200  -0.087  -0.038  0.00  0.00    -0.224 N 
ATOM      5  C   UNL     1       1.122  -0.831   0.584  0.00  0.00    +0.309 C 
ATOM      6  O   UNL     1       2.060  -0.367   1.202  0.00  0.00    -0.252 OA
ATOM      7  N   UNL     1       0.891  -2.150   0.453  0.00  0.00    -0.285 N 
ATOM      8  H   UNL     1       1.426  -2.871   0.821  0.00  0.00    +0.151 HD
ENDROOT
BRANCH   1   9
ATOM      9  C   UNL     1      -0.024  -3.030  -1.665  0.00  0.00    +0.024 C 
ATOM     10  C   UNL     1       0.391  -4.469  -1.344  0.00  0.00    +0.025 C 
ATOM     11  C   UNL     1       0.660  -5.221  -2.651  0.00  0.00    +0.108 C 
ATOM     12  N   UNL     1       1.650  -4.468  -3.434  0.00  0.00    -0.298 N 
ATOM     13  C   UNL     1       1.393  -3.050  -3.722  0.00  0.00    +0.108 C 
ATOM     14  C   UNL     1       1.115  -2.322  -2.403  0.00  0.00    +0.025 C 
ATOM     15  C   UNL     1       2.772  -5.067  -3.880  0.00  0.00    +0.239 C 
ATOM     16  O   UNL     1       3.628  -4.412  -4.444  0.00  0.00    -0.271 OA
BRANCH  15  17
ATOM     17  C   UNL     1       2.961  -6.508  -3.685  0.00  0.00    +0.069 C 
ATOM     18  C   UNL     1       4.126  -7.087  -4.033  0.00  0.00    +0.033 C 
BRANCH  18  19
ATOM     19  C   UNL     1       4.316  -8.536  -3.838  0.00  0.00    +0.064 A 
ATOM     20  C   UNL     1       5.527  -9.131  -4.200  0.00  0.00    +0.028 A 
ATOM     21  C   UNL     1       5.689 -10.493  -4.010  0.00  0.00    +0.004 A 
ATOM     22  C   UNL     1       4.638 -11.215  -3.464  0.00  0.00    +0.020 A 
ATOM     23  C   UNL     1       3.465 -10.561  -3.127  0.00  0.00    +0.111 A 
ATOM     24  N   UNL     1       3.337  -9.265  -3.312  0.00  0.00    -0.256 NA
ENDBRANCH  18  19
ENDBRANCH  15  17
ENDBRANCH   1   9
BRANCH   1  25
ATOM     25  C   UNL     1      -1.428  -3.004   0.422  0.00  0.00    +0.035 C 
BRANCH  25  27
ATOM     26  C   UNL     1      -2.775  -2.987   2.526  0.00  0.00    +0.004 C 
ATOM     27  C   UNL     1      -1.675  -2.269   1.741  0.00  0.00    -0.001 C 
ENDBRANCH  25  27
ENDBRANCH   1  25
BRANCH   4  28
ATOM     28  C   UNL     1       0.201   1.378  -0.058  0.00  0.00    +0.116 C 
BRANCH  28  29
ATOM     29  C   UNL     1      -0.602   1.905   1.133  0.00  0.00    +0.004 C 
BRANCH  29  30
ATOM     30  C   UNL     1      -0.499   3.430   1.183  0.00  0.00    -0.068 C 
ATOM     31  C   UNL     1       0.954   3.862   1.479  0.00  0.00    -0.017 C 
ATOM     32  C   UNL     1       0.826   5.093   2.400  0.00  0.00    -0.020 C 
ATOM     33  C   UNL     1      -0.692   5.302   2.583  0.00  0.00    -0.079 C 
ATOM     34  C   UNL     1      -2.711   4.083   1.964  0.00  0.00    -0.096 C 
ATOM     35  N   UNL     1      -1.257   3.981   2.311  0.00  0.00    +0.380 N 
ATOM     36  H   UNL     1      -1.150   3.378   3.135  0.00  0.00    -0.082 HD
ENDBRANCH  29  30
ENDBRANCH  28  29
ENDBRANCH   4  28
TORSDOF 8
