REMARK  Name = ZINC14251377
REMARK  10 active torsions:
REMARK  status: ('A' for Active; 'I' for Inactive)
REMARK    1  A    between atoms: C_1  and  C_2
REMARK    2  A    between atoms: C_2  and  C_4
REMARK    3  A    between atoms: C_2  and  N_13
REMARK    4  A    between atoms: N_9  and  C_10
REMARK    5  A    between atoms: C_10  and  C_11
REMARK    6  A    between atoms: C_10  and  C_12
REMARK    7  A    between atoms: C_16  and  C_19
REMARK    8  A    between atoms: C_19  and  C_20
REMARK    9  A    between atoms: C_20  and  C_21
REMARK   10  A    between atoms: C_24  and  O_27
REMARK                            x       y       z     vdW  Elec       q    Type
REMARK                         _______ _______ _______ _____ _____    ______ ____
ROOT
ATOM      1  N   UNL     1       0.324  -0.924   1.101  0.00  0.00    +0.387 N 
ATOM      2  C   UNL     1      -0.449  -0.551   2.292  0.00  0.00    -0.078 C 
ATOM      3  C   UNL     1      -0.058  -1.456   3.462  0.00  0.00    -0.015 C 
ATOM      4  C   UNL     1      -0.354  -2.913   3.096  0.00  0.00    -0.014 C 
ATOM      5  C   UNL     1       0.399  -3.268   1.811  0.00  0.00    -0.015 C 
ATOM      6  C   UNL     1      -0.009  -2.297   0.701  0.00  0.00    -0.078 C 
ATOM      7  H   UNL     1       1.309  -0.866   1.310  0.00  0.00    -0.081 HD
ENDROOT
BRANCH   1   9
ATOM      8  C   UNL     1       0.361   1.425   0.412  0.00  0.00    -0.004 C 
ATOM      9  C   UNL     1       0.002  -0.004   0.002  0.00  0.00    +0.017 C 
BRANCH   9  10
ATOM     10  C   UNL     1       0.792  -0.388  -1.223  0.00  0.00    +0.207 C 
ATOM     11  O   UNL     1       1.867  -0.935  -1.103  0.00  0.00    -0.277 OA
ATOM     12  N   UNL     1       0.302  -0.124  -2.450  0.00  0.00    -0.242 N 
ATOM     13  C   UNL     1       1.009  -0.468  -3.546  0.00  0.00    +0.306 C 
ATOM     14  O   UNL     1       2.087  -1.016  -3.426  0.00  0.00    -0.252 OA
ATOM     15  N   UNL     1       0.519  -0.203  -4.773  0.00  0.00    -0.297 N 
ATOM     16  H   UNL     1      -0.558   0.314  -2.546  0.00  0.00    +0.159 HD
ATOM     17  H   UNL     1      -0.341   0.234  -4.869  0.00  0.00    +0.151 HD
BRANCH  15  18
ATOM     18  C   UNL     1       1.287  -0.577  -5.964  0.00  0.00    +0.068 C 
ATOM     19  C   UNL     1       0.995  -2.036  -6.322  0.00  0.00    +0.027 C 
ATOM     20  C   UNL     1       0.887   0.325  -7.133  0.00  0.00    +0.027 C 
ENDBRANCH  15  18
ENDBRANCH   9  10
ENDBRANCH   1   9
BRANCH   4  21
ATOM     21  C   UNL     1       0.108  -3.830   4.230  0.00  0.00    +0.008 C 
BRANCH  21  22
ATOM     22  C   UNL     1      -0.300  -5.271   3.919  0.00  0.00    +0.035 C 
BRANCH  22  23
ATOM     23  C   UNL     1       0.155  -6.174   5.036  0.00  0.00    -0.047 A 
ATOM     24  C   UNL     1       1.408  -6.757   4.986  0.00  0.00    +0.007 A 
ATOM     25  C   UNL     1       1.827  -7.586   6.008  0.00  0.00    +0.045 A 
ATOM     26  C   UNL     1       0.990  -7.833   7.087  0.00  0.00    +0.117 A 
ATOM     27  C   UNL     1      -0.266  -7.247   7.135  0.00  0.00    +0.045 A 
ATOM     28  C   UNL     1      -0.679  -6.415   6.112  0.00  0.00    +0.007 A 
BRANCH  26  29
ATOM     29  O   UNL     1       1.400  -8.648   8.094  0.00  0.00    -0.507 OA
ATOM     30  H   UNL     1       1.860  -8.188   8.809  0.00  0.00    +0.292 HD
ENDBRANCH  26  29
ENDBRANCH  22  23
ENDBRANCH  21  22
ENDBRANCH   4  21
TORSDOF 7
