REMARK  Name = ZINC36442627
REMARK  7 active torsions:
REMARK  status: ('A' for Active; 'I' for Inactive)
REMARK    1  A    between atoms: C_1  and  C_2
REMARK    2  A    between atoms: C_3  and  N_14
REMARK    3  A    between atoms: C_4  and  C_13
REMARK    4  A    between atoms: N_5  and  C_7
REMARK    5  A    between atoms: C_15  and  C_17
REMARK    6  A    between atoms: C_17  and  N_18
REMARK    7  A    between atoms: C_26  and  C_28
REMARK                            x       y       z     vdW  Elec       q    Type
REMARK                         _______ _______ _______ _____ _____    ______ ____
ROOT
ATOM      1  N   UNL     1      -0.015  -0.279  -2.450  0.00  0.00    -0.282 N 
ATOM      2  C   UNL     1       0.604   0.882  -2.740  0.00  0.00    +0.231 C 
ATOM      3  O   UNL     1       1.249   1.456  -1.888  0.00  0.00    -0.274 OA
ATOM      4  H   UNL     1      -0.494  -0.760  -3.142  0.00  0.00    +0.155 HD
ENDROOT
BRANCH   1   7
ATOM      5  C   UNL     1      -1.058   1.216   0.076  0.00  0.00    +0.069 C 
ATOM      6  C   UNL     1      -0.425  -0.151   0.018  0.00  0.00    +0.082 A 
ATOM      7  C   UNL     1       0.035  -0.794  -1.141  0.00  0.00    +0.078 A 
ATOM      8  C   UNL     1       0.535  -2.002  -0.775  0.00  0.00    +0.063 A 
ATOM      9  N   UNL     1       0.394  -2.114   0.574  0.00  0.00    -0.235 N 
ATOM     10  N   UNL     1      -0.205  -0.937   1.041  0.00  0.00    -0.170 NA
ATOM     11  C   UNL     1       1.137  -3.033  -1.696  0.00  0.00    +0.068 C 
BRANCH   9  12
ATOM     12  C   UNL     1       0.782  -3.209   1.356  0.00  0.00    +0.066 A 
ATOM     13  C   UNL     1       2.021  -3.804   1.154  0.00  0.00    +0.028 A 
ATOM     14  C   UNL     1       2.401  -4.883   1.927  0.00  0.00    +0.002 A 
ATOM     15  C   UNL     1       1.550  -5.372   2.902  0.00  0.00    +0.000 A 
ATOM     16  C   UNL     1       0.316  -4.781   3.106  0.00  0.00    +0.002 A 
ATOM     17  C   UNL     1      -0.067  -3.698   2.340  0.00  0.00    +0.028 A 
ENDBRANCH   9  12
ENDBRANCH   1   7
BRANCH   2  18
ATOM     18  C   UNL     1       0.493   1.469  -4.124  0.00  0.00    +0.181 C 
BRANCH  18  19
ATOM     19  N   UNL     1       1.250   2.727  -4.185  0.00  0.00    -0.282 NA
ATOM     20  C   UNL     1       2.687   2.487  -3.989  0.00  0.00    +0.091 C 
ATOM     21  C   UNL     1       3.370   3.823  -3.650  0.00  0.00    +0.058 C 
ATOM     22  C   UNL     1       2.877   4.845  -4.621  0.00  0.00    -0.004 A 
ATOM     23  C   UNL     1       1.804   4.727  -5.452  0.00  0.00    -0.015 A 
ATOM     24  C   UNL     1       1.533   5.816  -6.277  0.00  0.00    +0.013 A 
ATOM     25  C   UNL     1       2.319   6.917  -6.224  0.00  0.00    +0.046 A 
ATOM     26  S   UNL     1       3.511   6.460  -4.974  0.00  0.00    -0.101 S 
ATOM     27  C   UNL     1       0.975   3.446  -5.435  0.00  0.00    +0.125 C 
BRANCH  27  28
ATOM     28  C   UNL     1      -0.490   3.790  -5.510  0.00  0.00    +0.011 A 
ATOM     29  C   UNL     1      -1.324   3.745  -6.577  0.00  0.00    +0.013 A 
ATOM     30  C   UNL     1      -2.647   4.110  -6.410  0.00  0.00    +0.008 A 
ATOM     31  C   UNL     1      -3.071   4.502  -5.184  0.00  0.00    +0.045 A 
ATOM     32  S   UNL     1      -1.580   4.355  -4.213  0.00  0.00    -0.100 S 
ENDBRANCH  27  28
ENDBRANCH  18  19
ENDBRANCH   2  18
TORSDOF 5
