REMARK  Name = ZINC07535630
REMARK  8 active torsions:
REMARK  status: ('A' for Active; 'I' for Inactive)
REMARK    1  A    between atoms: C_1  and  C_2
REMARK    2  A    between atoms: C_9  and  N_15
REMARK    3  A    between atoms: C_10  and  C_11
REMARK    4  A    between atoms: C_11  and  O_13
REMARK    5  A    between atoms: O_13  and  C_14
REMARK    6  A    between atoms: C_16  and  C_18
REMARK    7  A    between atoms: C_18  and  S_19
REMARK    8  A    between atoms: S_19  and  C_20
REMARK                            x       y       z     vdW  Elec       q    Type
REMARK                         _______ _______ _______ _____ _____    ______ ____
ROOT
ATOM      1  C   UNL     1      -1.520  -5.425  -4.698  0.00  0.00    +0.008 C 
ATOM      2  C   UNL     1      -1.755  -4.485  -3.514  0.00  0.00    -0.009 C 
ATOM      3  C   UNL     1      -0.871  -3.243  -3.657  0.00  0.00    +0.008 C 
ATOM      4  C   UNL     1      -1.276  -2.193  -2.622  0.00  0.00    +0.037 C 
ATOM      5  C   UNL     1      -1.289  -2.843  -1.244  0.00  0.00    -0.021 A 
ATOM      6  C   UNL     1      -1.340  -4.185  -1.108  0.00  0.00    -0.004 A 
ATOM      7  S   UNL     1      -1.334  -4.465   0.640  0.00  0.00    -0.077 S 
ATOM      8  C   UNL     1      -1.259  -2.822   1.186  0.00  0.00    +0.086 A 
ATOM      9  C   UNL     1      -1.248  -2.096   0.003  0.00  0.00    +0.091 A 
ATOM     10  C   UNL     1      -1.391  -5.203  -2.206  0.00  0.00    +0.046 C 
ENDROOT
BRANCH   8  11
ATOM     11  N   UNL     1      -1.221  -2.349   2.488  0.00  0.00    -0.279 N 
ATOM     12  C   UNL     1      -1.240  -3.214   3.521  0.00  0.00    +0.228 C 
ATOM     13  O   UNL     1      -1.289  -4.407   3.312  0.00  0.00    -0.275 OA
ATOM     14  H   UNL     1      -1.181  -1.394   2.656  0.00  0.00    +0.155 HD
BRANCH  12  15
ATOM     15  C   UNL     1      -1.198  -2.699   4.937  0.00  0.00    +0.172 C 
BRANCH  15  16
ATOM     16  S   UNL     1      -1.236  -4.098   6.091  0.00  0.00    -0.088 S 
BRANCH  16  17
ATOM     17  C   UNL     1      -1.183  -3.340   7.681  0.00  0.00    +0.160 A 
ATOM     18  N   UNL     1      -1.122  -2.061   7.996  0.00  0.00    -0.133 NA
ATOM     19  N   UNL     1      -1.093  -1.682   9.318  0.00  0.00    -0.125 NA
ATOM     20  C   UNL     1      -1.115  -2.600  10.264  0.00  0.00    +0.180 A 
ATOM     21  S   UNL     1      -1.188  -4.100   9.297  0.00  0.00    -0.025 S 
ATOM     22  N   UNL     1      -1.088  -2.442  11.645  0.00  0.00    -0.336 N 
ATOM     23  H   UNL     1      -1.110  -3.221  12.223  0.00  0.00    +0.144 HD
ATOM     24  H   UNL     1      -1.048  -1.553  12.031  0.00  0.00    +0.144 HD
ENDBRANCH  16  17
ENDBRANCH  15  16
ENDBRANCH  12  15
ENDBRANCH   8  11
BRANCH   9  25
ATOM     25  C   UNL     1      -1.191  -0.633   0.010  0.00  0.00    +0.342 C 
ATOM     26  O   UNL     1      -2.220   0.016   0.023  0.00  0.00    -0.245 OA
BRANCH  25  27
ATOM     27  O   UNL     1       0.002  -0.004   0.002  0.00  0.00    -0.464 OA
ATOM     28  C   UNL     1      -0.018   1.448   0.010  0.00  0.00    +0.280 C 
ENDBRANCH  25  27
ENDBRANCH   9  25
TORSDOF 6
