REMARK  Name = ZINC01764157
REMARK  10 active torsions:
REMARK  status: ('A' for Active; 'I' for Inactive)
REMARK    1  A    between atoms: C_1  and  C_2
REMARK    2  A    between atoms: C_2  and  C_3
REMARK    3  A    between atoms: C_2  and  C_4
REMARK    4  A    between atoms: C_2  and  C_5
REMARK    5  A    between atoms: C_7  and  C_16
REMARK    6  A    between atoms: C_9  and  C_12
REMARK    7  A    between atoms: C_10  and  O_11
REMARK    8  A    between atoms: C_12  and  C_13
REMARK    9  A    between atoms: C_12  and  C_14
REMARK   10  A    between atoms: C_12  and  C_15
REMARK                            x       y       z     vdW  Elec       q    Type
REMARK                         _______ _______ _______ _____ _____    ______ ____
ROOT
ATOM      1  C   UNL     1      -1.842   5.930   0.331  0.00  0.00    +0.000 A 
ATOM      2  C   UNL     1      -2.036   4.581   0.235  0.00  0.00    +0.015 A 
ATOM      3  C   UNL     1      -0.932   3.723   0.124  0.00  0.00    -0.023 A 
ATOM      4  C   UNL     1       0.365   4.255   0.118  0.00  0.00    +0.015 A 
ATOM      5  C   UNL     1       0.546   5.606   0.209  0.00  0.00    +0.000 A 
ATOM      6  C   UNL     1      -0.552   6.452   0.320  0.00  0.00    +0.124 A 
ENDROOT
BRANCH   3   7
ATOM      7  C   UNL     1      -1.134   2.276   0.020  0.00  0.00    +0.023 C 
ATOM      8  C   UNL     1      -0.348   1.531  -0.829  0.00  0.00    +0.070 C 
ATOM      9  C   UNL     1       0.610   2.050  -1.823  0.00  0.00    +0.198 C 
ATOM     10  O   UNL     1       0.853   3.220  -2.041  0.00  0.00    -0.287 OA
ATOM     11  C   UNL     1       1.222   0.886  -2.509  0.00  0.00    +0.033 A 
ATOM     12  C   UNL     1       2.175   0.809  -3.519  0.00  0.00    +0.012 A 
ATOM     13  C   UNL     1       2.585  -0.425  -3.993  0.00  0.00    +0.001 A 
ATOM     14  C   UNL     1       2.051  -1.587  -3.468  0.00  0.00    +0.001 A 
ATOM     15  C   UNL     1       1.101  -1.528  -2.463  0.00  0.00    +0.012 A 
ATOM     16  C   UNL     1       0.678  -0.295  -1.976  0.00  0.00    +0.033 A 
ATOM     17  C   UNL     1      -0.305   0.060  -0.924  0.00  0.00    +0.198 C 
ATOM     18  O   UNL     1      -0.958  -0.721  -0.260  0.00  0.00    -0.287 OA
ENDBRANCH   3   7
BRANCH   1  20
ATOM     19  C   UNL     1      -4.317   6.032   0.440  0.00  0.00    +0.015 C 
ATOM     20  C   UNL     1      -3.026   6.853   0.451  0.00  0.00    -0.009 C 
ATOM     21  C   UNL     1      -2.932   7.637   1.762  0.00  0.00    +0.015 C 
ATOM     22  C   UNL     1      -3.033   7.830  -0.727  0.00  0.00    +0.015 C 
ENDBRANCH   1  20
BRANCH   5  23
ATOM     23  C   UNL     1       1.940   6.180   0.197  0.00  0.00    -0.009 C 
ATOM     24  C   UNL     1       2.958   5.045   0.068  0.00  0.00    +0.015 C 
ATOM     25  C   UNL     1       2.087   7.136  -0.988  0.00  0.00    +0.015 C 
ATOM     26  C   UNL     1       2.188   6.942   1.501  0.00  0.00    +0.015 C 
ENDBRANCH   5  23
BRANCH   6  27
ATOM     27  O   UNL     1      -0.366   7.793   0.416  0.00  0.00    -0.506 OA
ATOM     28  H   UNL     1      -0.276   8.113   1.324  0.00  0.00    +0.292 HD
ENDBRANCH   6  27
TORSDOF 4
