REMARK  Name = ZINC59400717
REMARK  7 active torsions:
REMARK  status: ('A' for Active; 'I' for Inactive)
REMARK    1  A    between atoms: C_3  and  N_11
REMARK    2  A    between atoms: C_4  and  N_8
REMARK    3  A    between atoms: N_11  and  C_12
REMARK    4  A    between atoms: C_12  and  C_13
REMARK    5  A    between atoms: C_13  and  N_14
REMARK    6  A    between atoms: C_15  and  C_17
REMARK    7  A    between atoms: C_20  and  C_22
REMARK                            x       y       z     vdW  Elec       q    Type
REMARK                         _______ _______ _______ _____ _____    ______ ____
ROOT
ATOM      1  N   UNL     1       5.062   5.495  -0.480  0.00  0.00    -0.307 N 
ATOM      2  C   UNL     1       6.231   6.161  -0.539  0.00  0.00    +0.279 C 
ATOM      3  O   UNL     1       7.283   5.553  -0.462  0.00  0.00    -0.267 OA
ATOM      4  H   UNL     1       4.224   5.979  -0.541  0.00  0.00    +0.149 HD
ENDROOT
BRANCH   2   5
ATOM      5  C   UNL     1       6.237   7.618  -0.696  0.00  0.00    +0.190 A 
ATOM      6  C   UNL     1       7.356   8.418  -0.776  0.00  0.00    +0.055 A 
ATOM      7  C   UNL     1       6.902   9.733  -0.920  0.00  0.00    +0.051 A 
ATOM      8  C   UNL     1       5.537   9.688  -0.924  0.00  0.00    +0.137 A 
ATOM      9  O   UNL     1       5.148   8.409  -0.794  0.00  0.00    -0.450 OA
BRANCH   8  10
ATOM     10  C   UNL     1       4.638  10.852  -1.054  0.00  0.00    +0.037 A 
ATOM     11  C   UNL     1       4.824  11.977  -0.247  0.00  0.00    +0.033 A 
ATOM     12  C   UNL     1       3.980  13.061  -0.375  0.00  0.00    +0.042 A 
ATOM     13  C   UNL     1       2.949  13.036  -1.300  0.00  0.00    +0.021 A 
ATOM     14  C   UNL     1       2.759  11.926  -2.102  0.00  0.00    +0.022 A 
ATOM     15  C   UNL     1       3.600  10.836  -1.990  0.00  0.00    +0.052 A 
ATOM     16 CL   UNL     1       3.363   9.447  -3.003  0.00  0.00    -0.083 Cl
ATOM     17 CL   UNL     1       4.209  14.460   0.628  0.00  0.00    -0.084 Cl
ENDBRANCH   8  10
ENDBRANCH   2   5
BRANCH   1  18
ATOM     18  C   UNL     1       5.056   4.038  -0.323  0.00  0.00    +0.123 C 
BRANCH  18  19
ATOM     19  C   UNL     1       3.611   3.535  -0.284  0.00  0.00    +0.120 C 
BRANCH  19  20
ATOM     20  N   UNL     1       3.606   2.079  -0.127  0.00  0.00    -0.341 N 
ATOM     21  H   UNL     1       4.444   1.594  -0.065  0.00  0.00    +0.146 HD
BRANCH  20  24
ATOM     22  C   UNL     1      -0.001   1.375  -0.215  0.00  0.00    +0.022 A 
ATOM     23  C   UNL     1       1.197   2.061  -0.276  0.00  0.00    +0.026 A 
ATOM     24  C   UNL     1       2.393   1.387  -0.066  0.00  0.00    +0.058 A 
ATOM     25  C   UNL     1       2.381   0.025   0.204  0.00  0.00    +0.148 A 
ATOM     26  C   UNL     1       1.181  -0.656   0.264  0.00  0.00    +0.054 A 
ATOM     27  C   UNL     1      -0.009   0.018   0.054  0.00  0.00    +0.043 A 
ATOM     28 CL   UNL     1      -1.516  -0.841   0.131  0.00  0.00    -0.083 Cl
BRANCH  25  29
ATOM     29  N   UNL     1       3.654  -0.697   0.428  0.00  0.00    +0.058 N 
ATOM     30  O   UNL     1       3.792  -1.823   0.010  0.00  0.00    -0.126 OA
ATOM     31  O   UNL     1       4.556  -0.160   1.029  0.00  0.00    -0.126 OA
ENDBRANCH  25  29
ENDBRANCH  20  24
ENDBRANCH  19  20
ENDBRANCH  18  19
ENDBRANCH   1  18
TORSDOF 7
