REMARK  Name = ZINC31829203
REMARK  9 active torsions:
REMARK  status: ('A' for Active; 'I' for Inactive)
REMARK    1  A    between atoms: C_1  and  O_2
REMARK    2  A    between atoms: O_2  and  C_3
REMARK    3  A    between atoms: C_6  and  C_11
REMARK    4  A    between atoms: C_7  and  O_9
REMARK    5  A    between atoms: O_9  and  C_10
REMARK    6  A    between atoms: N_12  and  N_13
REMARK    7  A    between atoms: C_16  and  C_27
REMARK    8  A    between atoms: C_17  and  N_19
REMARK    9  A    between atoms: C_20  and  C_22
REMARK                            x       y       z     vdW  Elec       q    Type
REMARK                         _______ _______ _______ _____ _____    ______ ____
ROOT
ATOM      1  N   UNL     1      -5.454  -1.976  -0.986  0.00  0.00    -0.215 N 
ATOM      2  C   UNL     1      -4.169  -1.769  -1.459  0.00  0.00    +0.180 A 
ATOM      3  N   UNL     1      -3.359  -2.614  -2.068  0.00  0.00    -0.222 NA
ATOM      4  C   UNL     1      -2.143  -2.241  -2.465  0.00  0.00    +0.102 A 
ATOM      5  C   UNL     1      -1.728  -0.954  -2.221  0.00  0.00    +0.101 A 
ATOM      6  S   UNL     1      -3.171  -0.287  -1.404  0.00  0.00    -0.035 S 
ATOM      7  H   UNL     1      -5.963  -2.931  -1.178  0.00  0.00    +0.176 HD
ENDROOT
BRANCH   4   8
ATOM      8  C   UNL     1      -1.251  -3.200  -3.155  0.00  0.00    +0.003 A 
ATOM      9  C   UNL     1      -0.394  -2.759  -4.163  0.00  0.00    +0.011 A 
ATOM     10  C   UNL     1       0.439  -3.657  -4.799  0.00  0.00    +0.020 A 
ATOM     11  C   UNL     1       0.418  -4.995  -4.445  0.00  0.00    +0.041 A 
ATOM     12  C   UNL     1      -0.434  -5.440  -3.449  0.00  0.00    +0.020 A 
ATOM     13  C   UNL     1      -1.268  -4.550  -2.802  0.00  0.00    +0.011 A 
ATOM     14 CL   UNL     1       1.464  -6.120  -5.254  0.00  0.00    -0.084 Cl
ENDBRANCH   4   8
BRANCH   5  15
ATOM     15  N   UNL     1      -0.517  -0.336  -2.531  0.00  0.00    -0.272 N 
ATOM     16  C   UNL     1      -0.316   0.955  -2.203  0.00  0.00    +0.284 C 
ATOM     17  O   UNL     1      -1.193   1.584  -1.640  0.00  0.00    -0.266 OA
ATOM     18  H   UNL     1       0.274  -0.903  -3.044  0.00  0.00    +0.156 HD
BRANCH  16  19
ATOM     19  C   UNL     1       0.957   1.605  -2.529  0.00  0.00    +0.189 A 
ATOM     20  C   UNL     1       1.291   2.900  -2.255  0.00  0.00    +0.054 A 
ATOM     21  C   UNL     1       2.594   3.093  -2.740  0.00  0.00    +0.042 A 
ATOM     22  C   UNL     1       2.994   1.921  -3.282  0.00  0.00    +0.196 A 
ATOM     23  O   UNL     1       2.007   1.025  -3.148  0.00  0.00    -0.458 OA
ENDBRANCH  16  19
ENDBRANCH   5  15
BRANCH   1  25
ATOM     24  C   UNL     1      -7.253  -1.207   0.296  0.00  0.00    +0.142 C 
ATOM     25  N   UNL     1      -6.106  -0.967  -0.264  0.00  0.00    -0.188 NA
BRANCH  24  29
ATOM     26  C   UNL     1      -8.358  -5.196   1.252  0.00  0.00    +0.124 A 
ATOM     27  C   UNL     1      -7.021  -4.873   1.054  0.00  0.00    +0.046 A 
ATOM     28  C   UNL     1      -6.658  -3.580   0.744  0.00  0.00    +0.016 A 
ATOM     29  C   UNL     1      -7.637  -2.590   0.627  0.00  0.00    +0.036 A 
ATOM     30  C   UNL     1      -8.985  -2.917   0.832  0.00  0.00    +0.132 A 
ATOM     31  C   UNL     1      -9.337  -4.220   1.138  0.00  0.00    +0.091 A 
BRANCH  26  33
ATOM     32  C   UNL     1      -7.650  -7.428   1.659  0.00  0.00    +0.277 C 
ATOM     33  O   UNL     1      -8.707  -6.473   1.557  0.00  0.00    -0.495 OA
ENDBRANCH  26  33
BRANCH  30  34
ATOM     34  O   UNL     1      -9.942  -1.959   0.726  0.00  0.00    -0.494 OA
ATOM     35  C   UNL     1     -11.277  -2.336   1.066  0.00  0.00    +0.277 C 
ENDBRANCH  30  34
ENDBRANCH  24  29
ENDBRANCH   1  25
TORSDOF 7
