REMARK  Name = ZINC24988939
REMARK  11 active torsions:
REMARK  status: ('A' for Active; 'I' for Inactive)
REMARK    1  A    between atoms: C_1  and  C_2
REMARK    2  A    between atoms: C_4  and  S_32
REMARK    3  A    between atoms: C_6  and  N_9
REMARK    4  A    between atoms: C_7  and  C_8
REMARK    5  A    between atoms: C_10  and  C_12
REMARK    6  A    between atoms: C_12  and  C_13
REMARK    7  A    between atoms: C_13  and  C_14
REMARK    8  A    between atoms: C_23  and  C_24
REMARK    9  A    between atoms: C_27  and  O_30
REMARK   10  A    between atoms: O_30  and  C_31
REMARK   11  A    between atoms: S_32  and  N_35
REMARK                            x       y       z     vdW  Elec       q    Type
REMARK                         _______ _______ _______ _____ _____    ______ ____
ROOT
ATOM      1  C   UNL     1      -5.038  -1.424   4.071  0.00  0.00    +0.101 C 
ENDROOT
BRANCH   1   3
ATOM      2  N   UNL     1      -3.819   0.697   4.433  0.00  0.00    -0.285 N 
ATOM      3  C   UNL     1      -3.991  -0.411   3.686  0.00  0.00    +0.218 C 
ATOM      4  O   UNL     1      -3.303  -0.594   2.704  0.00  0.00    -0.275 OA
ATOM      5  H   UNL     1      -4.388   0.826   5.366  0.00  0.00    +0.155 HD
BRANCH   2  11
ATOM      6  C   UNL     1      -2.589   5.449   4.146  0.00  0.00    +0.044 C 
ATOM      7  C   UNL     1      -2.297   3.997   3.869  0.00  0.00    -0.044 A 
ATOM      8  C   UNL     1      -1.133   3.639   3.212  0.00  0.00    +0.032 A 
ATOM      9  C   UNL     1      -0.865   2.308   2.951  0.00  0.00    +0.107 A 
ATOM     10  C   UNL     1      -1.752   1.330   3.356  0.00  0.00    +0.052 A 
ATOM     11  C   UNL     1      -2.918   1.685   4.021  0.00  0.00    +0.038 A 
ATOM     12  C   UNL     1      -3.188   3.024   4.277  0.00  0.00    -0.026 A 
ATOM     13  C   UNL     1      -4.452   3.414   4.998  0.00  0.00    +0.046 C 
BRANCH   9  14
ATOM     14  S   UNL     1       0.615   1.859   2.107  0.00  0.00    +0.056 S 
ATOM     15  O   UNL     1       0.899   0.515   2.472  0.00  0.00    -0.153 OA
ATOM     16  O   UNL     1       1.540   2.917   2.317  0.00  0.00    -0.153 OA
BRANCH  14  17
ATOM     17  N   UNL     1       0.270   1.846   0.487  0.00  0.00    -0.204 NA
ATOM     18  H   UNL     1       1.173   1.568  -0.077  0.00  0.00    +0.144 HD
ATOM     19  H   UNL     1      -0.064   2.846   0.176  0.00  0.00    +0.144 HD
ENDBRANCH  14  17
ENDBRANCH   9  14
ENDBRANCH   2  11
ENDBRANCH   1   3
BRANCH   1  20
ATOM     20  C   UNL     1      -5.026  -2.578   3.066  0.00  0.00    +0.047 C 
BRANCH  20  21
ATOM     21  C   UNL     1      -6.151  -3.530   3.379  0.00  0.00    -0.014 A 
ATOM     22  C   UNL     1      -7.541  -3.409   2.941  0.00  0.00    +0.003 A 
ATOM     23  C   UNL     1      -8.230  -2.482   2.153  0.00  0.00    +0.010 A 
ATOM     24  C   UNL     1      -9.563  -2.656   1.912  0.00  0.00    +0.001 A 
ATOM     25  C   UNL     1     -10.238  -3.750   2.437  0.00  0.00    +0.002 A 
ATOM     26  C   UNL     1      -9.577  -4.680   3.210  0.00  0.00    +0.026 A 
ATOM     27  C   UNL     1      -8.220  -4.523   3.470  0.00  0.00    +0.047 A 
ATOM     28  N   UNL     1      -7.304  -5.261   4.188  0.00  0.00    -0.354 N 
ATOM     29  H   UNL     1      -7.620  -6.184   4.697  0.00  0.00    +0.166 HD
ATOM     30  C   UNL     1      -6.069  -4.658   4.127  0.00  0.00    +0.051 A 
BRANCH  30  31
ATOM     31  C   UNL     1      -4.841  -5.162   4.778  0.00  0.00    -0.001 A 
ATOM     32  C   UNL     1      -3.652  -5.254   4.053  0.00  0.00    +0.013 A 
ATOM     33  C   UNL     1      -2.508  -5.720   4.665  0.00  0.00    +0.046 A 
ATOM     34  C   UNL     1      -2.540  -6.108   5.997  0.00  0.00    +0.120 A 
ATOM     35  C   UNL     1      -3.722  -6.023   6.721  0.00  0.00    +0.046 A 
ATOM     36  C   UNL     1      -4.869  -5.553   6.118  0.00  0.00    +0.013 A 
BRANCH  34  37
ATOM     37  O   UNL     1      -1.411  -6.572   6.595  0.00  0.00    -0.495 OA
ATOM     38  C   UNL     1      -0.230  -6.633   5.793  0.00  0.00    +0.277 C 
ENDBRANCH  34  37
ENDBRANCH  30  31
ENDBRANCH  20  21
ENDBRANCH   1  20
TORSDOF 8
