REMARK  Name = ZINC17729222
REMARK  4 active torsions:
REMARK  status: ('A' for Active; 'I' for Inactive)
REMARK    1  A    between atoms: C_1  and  S_2
REMARK    2  A    between atoms: S_2  and  C_3
REMARK    3  A    between atoms: C_8  and  C_20
REMARK    4  A    between atoms: C_11  and  C_13
REMARK                            x       y       z     vdW  Elec       q    Type
REMARK                         _______ _______ _______ _____ _____    ______ ____
ROOT
ATOM      1  C   UNL     1      -1.702  -0.454   0.016  0.00  0.00    +0.210 A 
ATOM      2  N   UNL     1      -2.729   0.404   0.025  0.00  0.00    -0.184 NA
ATOM      3  C   UNL     1      -3.858  -0.261   0.036  0.00  0.00    +0.250 A 
ATOM      4  N   UNL     1      -3.553  -1.594   0.027  0.00  0.00    -0.221 N 
ATOM      5  N   UNL     1      -2.165  -1.688   0.014  0.00  0.00    -0.141 NA
ATOM      6  C   UNL     1      -4.577  -2.638   0.019  0.00  0.00    +0.147 C 
ATOM      7  C   UNL     1      -5.818  -2.090   0.734  0.00  0.00    +0.087 C 
ATOM      8  C   UNL     1      -6.097  -0.672   0.322  0.00  0.00    +0.055 C 
ATOM      9  N   UNL     1      -5.146   0.176   0.034  0.00  0.00    -0.215 NA
ENDROOT
BRANCH   8  10
ATOM     10  C   UNL     1      -7.495  -0.222   0.240  0.00  0.00    -0.003 A 
ATOM     11  C   UNL     1      -8.536  -1.103   0.547  0.00  0.00    +0.011 A 
ATOM     12  C   UNL     1      -9.844  -0.674   0.468  0.00  0.00    +0.016 A 
ATOM     13  C   UNL     1     -10.127   0.627   0.085  0.00  0.00    +0.018 A 
ATOM     14  C   UNL     1      -9.101   1.505  -0.222  0.00  0.00    +0.016 A 
ATOM     15  C   UNL     1      -7.788   1.092  -0.141  0.00  0.00    +0.011 A 
ATOM     16 BR   UNL     1     -11.924   1.206  -0.021  0.00  0.00    -0.050 Br
ENDBRANCH   8  10
BRANCH   6  17
ATOM     17  C   UNL     1      -4.926  -2.999  -1.402  0.00  0.00    -0.023 A 
ATOM     18  C   UNL     1      -5.424  -2.034  -2.258  0.00  0.00    +0.007 A 
ATOM     19  C   UNL     1      -5.743  -2.365  -3.562  0.00  0.00    +0.015 A 
ATOM     20  C   UNL     1      -5.564  -3.661  -4.010  0.00  0.00    +0.018 A 
ATOM     21  C   UNL     1      -5.065  -4.626  -3.154  0.00  0.00    +0.015 A 
ATOM     22  C   UNL     1      -4.741  -4.293  -1.852  0.00  0.00    +0.007 A 
ATOM     23 BR   UNL     1      -6.001  -4.114  -5.793  0.00  0.00    -0.050 Br
ENDBRANCH   6  17
BRANCH   1  25
ATOM     24  C   UNL     1      -0.022   1.810   0.012  0.00  0.00    +0.093 C 
ATOM     25  S   UNL     1       0.002  -0.004   0.002  0.00  0.00    -0.088 S 
ENDBRANCH   1  25
TORSDOF 3
