REMARK  Name = ZINC64982014
REMARK  14 active torsions:
REMARK  status: ('A' for Active; 'I' for Inactive)
REMARK    1  A    between atoms: C_1  and  C_2
REMARK    2  A    between atoms: C_2  and  C_3
REMARK    3  A    between atoms: C_3  and  C_4
REMARK    4  A    between atoms: C_7  and  O_10
REMARK    5  A    between atoms: O_10  and  C_11
REMARK    6  A    between atoms: C_11  and  C_13
REMARK    7  A    between atoms: C_11  and  C_14
REMARK    8  A    between atoms: N_16  and  C_17
REMARK    9  A    between atoms: C_18  and  C_26
REMARK   10  A    between atoms: C_22  and  C_23
REMARK   11  A    between atoms: C_23  and  C_24
REMARK   12  A    between atoms: C_23  and  C_25
REMARK   13  A    between atoms: C_26  and  C_27
REMARK   14  A    between atoms: C_26  and  C_28
REMARK                            x       y       z     vdW  Elec       q    Type
REMARK                         _______ _______ _______ _____ _____    ______ ____
ROOT
ATOM      1  C   UNL     1      -0.448  -8.380  -1.871  0.00  0.00    +0.258 C 
ATOM      2  O   UNL     1       0.271  -9.023  -1.135  0.00  0.00    -0.271 OA
ATOM      3  N   UNL     1      -0.857  -8.906  -3.042  0.00  0.00    -0.282 N 
ATOM      4  H   UNL     1      -1.382  -8.371  -3.657  0.00  0.00    +0.155 HD
ENDROOT
BRANCH   3   5
ATOM      5  C   UNL     1      -0.525 -10.225  -3.370  0.00  0.00    +0.040 A 
ATOM      6  C   UNL     1       0.807 -10.615  -3.421  0.00  0.00    -0.023 A 
ATOM      7  C   UNL     1       1.132 -11.918  -3.746  0.00  0.00    +0.006 A 
ATOM      8  C   UNL     1       0.133 -12.833  -4.020  0.00  0.00    +0.001 A 
ATOM      9  C   UNL     1      -1.194 -12.448  -3.971  0.00  0.00    +0.006 A 
ATOM     10  C   UNL     1      -1.526 -11.149  -3.641  0.00  0.00    -0.023 A 
BRANCH  10  11
ATOM     11  C   UNL     1      -2.973 -10.732  -3.580  0.00  0.00    +0.015 C 
ATOM     12  C   UNL     1      -3.624 -10.949  -4.947  0.00  0.00    +0.012 C 
ATOM     13  C   UNL     1      -3.702 -11.571  -2.529  0.00  0.00    +0.012 C 
ENDBRANCH  10  11
BRANCH   6  14
ATOM     14  C   UNL     1       1.897  -9.618  -3.123  0.00  0.00    +0.015 C 
ATOM     15  C   UNL     1       2.822 -10.181  -2.043  0.00  0.00    +0.012 C 
ATOM     16  C   UNL     1       2.703  -9.348  -4.395  0.00  0.00    +0.012 C 
ENDBRANCH   6  14
ENDBRANCH   3   5
BRANCH   1  17
ATOM     17  C   UNL     1      -0.883  -6.993  -1.475  0.00  0.00    +0.256 C 
ATOM     18  C   UNL     1      -2.399  -6.973  -1.268  0.00  0.00    +0.062 C 
BRANCH  17  19
ATOM     19  O   UNL     1      -0.232  -6.617  -0.260  0.00  0.00    -0.480 OA
BRANCH  19  23
ATOM     20  C   UNL     1       0.095  -2.580   0.521  0.00  0.00    -0.047 A 
ATOM     21  C   UNL     1      -0.563  -3.012  -0.616  0.00  0.00    +0.007 A 
ATOM     22  C   UNL     1      -0.674  -4.363  -0.880  0.00  0.00    +0.046 A 
ATOM     23  C   UNL     1      -0.124  -5.287  -0.003  0.00  0.00    +0.122 A 
ATOM     24  C   UNL     1       0.536  -4.851   1.137  0.00  0.00    +0.046 A 
ATOM     25  C   UNL     1       0.649  -3.498   1.393  0.00  0.00    +0.007 A 
BRANCH  20  26
ATOM     26  C   UNL     1       0.214  -1.105   0.806  0.00  0.00    +0.035 C 
BRANCH  26  28
ATOM     27  C   UNL     1       1.613   0.935   0.452  0.00  0.00    +0.004 C 
ATOM     28  C   UNL     1       1.492  -0.562   0.163  0.00  0.00    +0.001 C 
ENDBRANCH  26  28
ENDBRANCH  20  26
ENDBRANCH  19  23
ENDBRANCH  17  19
ENDBRANCH   1  17
TORSDOF 8
