REMARK  Name = ZINC39986304
REMARK  6 active torsions:
REMARK  status: ('A' for Active; 'I' for Inactive)
REMARK    1  A    between atoms: C_1  and  C_2
REMARK    2  A    between atoms: C_5  and  N_24
REMARK    3  A    between atoms: C_7  and  S_8
REMARK    4  A    between atoms: S_8  and  N_11
REMARK    5  A    between atoms: N_11  and  C_12
REMARK    6  A    between atoms: C_15  and  O_22
REMARK                            x       y       z     vdW  Elec       q    Type
REMARK                         _______ _______ _______ _____ _____    ______ ____
ROOT
ATOM      1  N   UNL     1       1.176   1.029   2.916  0.00  0.00    -0.216 N 
ATOM      2  H   UNL     1       1.870   0.864   3.574  0.00  0.00    +0.174 HD
ENDROOT
BRANCH   1   3
ATOM      3  C   UNL     1       1.215   2.188   2.136  0.00  0.00    +0.057 A 
ATOM      4  C   UNL     1       0.045   2.822   1.781  0.00  0.00    +0.048 A 
ATOM      5  C   UNL     1       0.069   3.978   1.003  0.00  0.00    +0.085 A 
ATOM      6  C   UNL     1       1.261   4.514   0.571  0.00  0.00    +0.143 A 
ATOM      7  C   UNL     1       2.474   3.889   0.918  0.00  0.00    +0.027 A 
ATOM      8  C   UNL     1       2.453   2.716   1.714  0.00  0.00    +0.008 A 
ATOM      9  C   UNL     1       3.664   2.098   2.062  0.00  0.00    +0.010 A 
ATOM     10  C   UNL     1       4.841   2.634   1.637  0.00  0.00    +0.001 A 
ATOM     11  C   UNL     1       4.863   3.791   0.860  0.00  0.00    +0.001 A 
ATOM     12  C   UNL     1       3.708   4.410   0.493  0.00  0.00    +0.012 A 
ATOM     13 CL   UNL     1      -1.425   4.751   0.573  0.00  0.00    -0.080 Cl
BRANCH   6  14
ATOM     14  O   UNL     1       1.267   5.642  -0.187  0.00  0.00    -0.505 OA
ATOM     15  H   UNL     1       1.312   6.461   0.326  0.00  0.00    +0.292 HD
ENDBRANCH   6  14
ENDBRANCH   1   3
BRANCH   1  16
ATOM     16  S   UNL     1      -0.053  -0.062   2.718  0.00  0.00    +0.073 S 
ATOM     17  O   UNL     1      -1.267   0.665   2.854  0.00  0.00    -0.150 OA
ATOM     18  O   UNL     1       0.261  -1.181   3.535  0.00  0.00    -0.150 OA
BRANCH  16  25
ATOM     19  C   UNL     1       2.250  -1.631   1.542  0.00  0.00    +0.046 C 
ATOM     20  C   UNL     1       1.110  -1.335   0.602  0.00  0.00    -0.024 A 
ATOM     21  C   UNL     1       1.160  -1.781  -0.706  0.00  0.00    +0.007 A 
ATOM     22  C   UNL     1       0.114  -1.509  -1.568  0.00  0.00    +0.033 A 
ATOM     23  C   UNL     1      -0.981  -0.793  -1.123  0.00  0.00    +0.128 A 
ATOM     24  C   UNL     1      -1.031  -0.348   0.185  0.00  0.00    +0.061 A 
ATOM     25  C   UNL     1       0.013  -0.623   1.049  0.00  0.00    +0.114 A 
BRANCH  23  26
ATOM     26  N   UNL     1      -2.100  -0.501  -2.047  0.00  0.00    +0.056 N 
ATOM     27  O   UNL     1      -2.057  -0.890  -3.191  0.00  0.00    -0.126 OA
ATOM     28  O   UNL     1      -3.058   0.125  -1.657  0.00  0.00    -0.126 OA
ENDBRANCH  23  26
ENDBRANCH  16  25
ENDBRANCH   1  16
TORSDOF 5
