REMARK  Name = ZINC43209055
REMARK  11 active torsions:
REMARK  status: ('A' for Active; 'I' for Inactive)
REMARK    1  A    between atoms: C_3  and  C_9
REMARK    2  A    between atoms: C_6  and  C_7
REMARK    3  A    between atoms: C_9  and  C_11
REMARK    4  A    between atoms: C_9  and  N_28
REMARK    5  A    between atoms: C_11  and  C_13
REMARK    6  A    between atoms: C_11  and  C_25
REMARK    7  A    between atoms: C_13  and  N_14
REMARK    8  A    between atoms: N_14  and  C_15
REMARK    9  A    between atoms: C_15  and  C_16
REMARK   10  A    between atoms: N_28  and  C_29
REMARK   11  A    between atoms: C_29  and  C_30
REMARK                            x       y       z     vdW  Elec       q    Type
REMARK                         _______ _______ _______ _____ _____    ______ ____
ROOT
ATOM      1  C   UNL     1       3.670   2.194  -0.021  0.00  0.00    -0.028 C 
ENDROOT
BRANCH   1   4
ATOM      2  C   UNL     1      -0.017   1.392   0.010  0.00  0.00    +0.019 A 
ATOM      3  C   UNL     1       1.170   2.095   0.002  0.00  0.00    +0.003 A 
ATOM      4  C   UNL     1       2.378   1.419  -0.013  0.00  0.00    -0.061 A 
ATOM      5  C   UNL     1       2.404   0.036  -0.021  0.00  0.00    +0.003 A 
ATOM      6  C   UNL     1       1.224  -0.679  -0.014  0.00  0.00    +0.019 A 
ATOM      7  C   UNL     1       0.002  -0.004   0.002  0.00  0.00    +0.052 A 
BRANCH   7   8
ATOM      8  C   UNL     1      -1.226  -0.740   0.010  0.00  0.00    +0.099 C 
ATOM      9  N   UNL     1      -2.201  -1.324   0.017  0.00  0.00    -0.191 NA
ENDBRANCH   7   8
ENDBRANCH   1   4
BRANCH   1  10
ATOM     10  N   UNL     1       4.644   1.531   0.856  0.00  0.00    +0.387 N 
ATOM     11  H   UNL     1       4.750   0.568   0.574  0.00  0.00    -0.085 HD
ATOM     12  H   UNL     1       5.534   2.001   0.787  0.00  0.00    -0.085 HD
BRANCH  10  13
ATOM     13  C   UNL     1       4.168   1.584   2.245  0.00  0.00    -0.046 C 
BRANCH  13  14
ATOM     14  C   UNL     1       5.167   0.904   3.145  0.00  0.00    -0.061 A 
ATOM     15  C   UNL     1       5.058  -0.451   3.397  0.00  0.00    +0.005 A 
ATOM     16  C   UNL     1       5.972  -1.080   4.222  0.00  0.00    +0.050 A 
ATOM     17  C   UNL     1       7.000  -0.352   4.798  0.00  0.00    +0.166 A 
ATOM     18  C   UNL     1       7.110   1.012   4.544  0.00  0.00    +0.166 A 
ATOM     19  C   UNL     1       6.194   1.635   3.712  0.00  0.00    +0.051 A 
ATOM     20  O   UNL     1       8.193   1.496   5.221  0.00  0.00    -0.453 OA
ATOM     21  C   UNL     1       8.503   0.500   6.213  0.00  0.00    +0.466 C 
ATOM     22  O   UNL     1       8.014  -0.724   5.633  0.00  0.00    -0.453 OA
ENDBRANCH  13  14
ENDBRANCH  10  13
ENDBRANCH   1  10
BRANCH   1  23
ATOM     23  C   UNL     1       4.223   2.249  -1.447  0.00  0.00    +0.075 C 
BRANCH  23  24
ATOM     24  C   UNL     1       5.516   3.023  -1.455  0.00  0.00    +0.356 C 
ATOM     25  O   UNL     1       6.545   2.488  -1.829  0.00  0.00    -0.246 OA
ATOM     26  O   UNL     1       5.532   4.186  -1.088  0.00  0.00    -0.246 OA
ENDBRANCH  23  24
BRANCH  23  27
ATOM     27  C   UNL     1       3.209   2.939  -2.361  0.00  0.00    -0.069 C 
BRANCH  27  28
ATOM     28  N   UNL     1       3.685   2.886  -3.749  0.00  0.00    +0.382 N 
ATOM     29  H   UNL     1       4.575   3.357  -3.818  0.00  0.00    -0.085 HD
ATOM     30  H   UNL     1       3.791   1.923  -4.032  0.00  0.00    -0.085 HD
BRANCH  28  31
ATOM     31  C   UNL     1       2.711   3.549  -4.627  0.00  0.00    -0.047 C 
BRANCH  31  32
ATOM     32  C   UNL     1       3.200   3.495  -6.051  0.00  0.00    -0.061 A 
ATOM     33  C   UNL     1       3.998   4.509  -6.546  0.00  0.00    +0.005 A 
ATOM     34  C   UNL     1       4.449   4.463  -7.852  0.00  0.00    +0.050 A 
ATOM     35  C   UNL     1       4.101   3.399  -8.669  0.00  0.00    +0.166 A 
ATOM     36  C   UNL     1       3.297   2.377  -8.170  0.00  0.00    +0.166 A 
ATOM     37  C   UNL     1       2.853   2.427  -6.859  0.00  0.00    +0.051 A 
ATOM     38  O   UNL     1       3.099   1.457  -9.158  0.00  0.00    -0.453 OA
ATOM     39  C   UNL     1       3.450   2.127 -10.384  0.00  0.00    +0.466 C 
ATOM     40  O   UNL     1       4.407   3.119  -9.969  0.00  0.00    -0.453 OA
ENDBRANCH  31  32
ENDBRANCH  28  31
ENDBRANCH  27  28
ENDBRANCH  23  27
ENDBRANCH   1  23
TORSDOF 11
