REMARK  Name = ZINC27517101
REMARK  8 active torsions:
REMARK  status: ('A' for Active; 'I' for Inactive)
REMARK    1  A    between atoms: C_1  and  C_2
REMARK    2  A    between atoms: C_2  and  C_3
REMARK    3  A    between atoms: C_3  and  C_4
REMARK    4  A    between atoms: C_8  and  C_23
REMARK    5  A    between atoms: C_14  and  C_15
REMARK    6  A    between atoms: C_18  and  O_22
REMARK    7  A    between atoms: C_20  and  O_21
REMARK    8  A    between atoms: C_23  and  C_24
REMARK                            x       y       z     vdW  Elec       q    Type
REMARK                         _______ _______ _______ _____ _____    ______ ____
ROOT
ATOM      1  C   UNL     1       0.820  -2.081   1.249  0.00  0.00    +0.028 C 
ATOM      2  C   UNL     1       1.493  -2.528  -0.059  0.00  0.00    -0.060 C 
ATOM      3  N   UNL     1       0.722  -2.016  -1.200  0.00  0.00    +0.394 N 
ATOM      4  C   UNL     1       0.713  -0.548  -1.247  0.00  0.00    -0.060 C 
ATOM      5  C   UNL     1       0.002  -0.004   0.002  0.00  0.00    +0.027 C 
ATOM      6  C   UNL     1       0.754  -0.558   1.208  0.00  0.00    +0.144 C 
ATOM      7  O   UNL     1       1.268   0.146   2.044  0.00  0.00    -0.296 OA
ATOM      8  C   UNL     1      -1.421  -0.585   0.037  0.00  0.00    +0.095 C 
ATOM      9  N   UNL     1      -1.317  -2.071   0.046  0.00  0.00    -0.310 NA
ATOM     10  C   UNL     1      -0.632  -2.585   1.240  0.00  0.00    +0.095 C 
ATOM     11  C   UNL     1      -0.650  -2.545  -1.177  0.00  0.00    +0.037 C 
ATOM     12  H   UNL     1       1.222  -2.366  -2.116  0.00  0.00    -0.079 HD
ENDROOT
BRANCH  11  13
ATOM     13  C   UNL     1      -0.612  -4.051  -1.180  0.00  0.00    -0.006 A 
ATOM     14  C   UNL     1       0.481  -4.713  -1.707  0.00  0.00    +0.010 A 
ATOM     15  C   UNL     1       0.520  -6.094  -1.711  0.00  0.00    +0.046 A 
ATOM     16  C   UNL     1      -0.540  -6.820  -1.186  0.00  0.00    +0.120 A 
ATOM     17  C   UNL     1      -1.637  -6.159  -0.657  0.00  0.00    +0.091 A 
ATOM     18  C   UNL     1      -1.671  -4.773  -0.649  0.00  0.00    +0.123 A 
BRANCH  18  19
ATOM     19  O   UNL     1      -2.743  -4.122  -0.126  0.00  0.00    -0.506 OA
ATOM     20  H   UNL     1      -3.583  -4.694   0.295  0.00  0.00    +0.292 HD
ENDBRANCH  18  19
BRANCH  16  21
ATOM     21  O   UNL     1      -0.501  -8.179  -1.190  0.00  0.00    -0.507 OA
ATOM     22  H   UNL     1      -1.341  -8.754  -0.773  0.00  0.00    +0.292 HD
ENDBRANCH  16  21
ENDBRANCH  11  13
BRANCH   5  23
ATOM     23  C   UNL     1      -0.019   1.526   0.010  0.00  0.00    +0.010 C 
ATOM     24  C   UNL     1      -0.735   2.019   1.269  0.00  0.00    +0.005 C 
ENDBRANCH   5  23
BRANCH   1  25
ATOM     25  C   UNL     1       1.574  -2.575   2.486  0.00  0.00    +0.013 C 
BRANCH  25  27
ATOM     26  C   UNL     1       3.765  -2.543   3.687  0.00  0.00    +0.004 C 
ATOM     27  C   UNL     1       3.011  -2.049   2.450  0.00  0.00    -0.002 C 
ENDBRANCH  25  27
ENDBRANCH   1  25
TORSDOF 6
