REMARK  Name = ZINC04244397
REMARK  10 active torsions:
REMARK  status: ('A' for Active; 'I' for Inactive)
REMARK    1  A    between atoms: C_1  and  C_2
REMARK    2  A    between atoms: C_5  and  S_8
REMARK    3  A    between atoms: S_8  and  N_11
REMARK    4  A    between atoms: N_11  and  C_12
REMARK    5  A    between atoms: C_14  and  N_32
REMARK    6  A    between atoms: C_15  and  N_29
REMARK    7  A    between atoms: C_17  and  N_18
REMARK    8  A    between atoms: N_18  and  S_19
REMARK    9  A    between atoms: S_19  and  C_22
REMARK   10  A    between atoms: C_25  and  C_28
REMARK                            x       y       z     vdW  Elec       q    Type
REMARK                         _______ _______ _______ _____ _____    ______ ____
ROOT
ATOM      1  C   UNL     1      -1.236   2.911   2.134  0.00  0.00    +0.099 A 
ATOM      2  C   UNL     1      -0.794   4.047   1.473  0.00  0.00    +0.063 A 
ATOM      3  C   UNL     1      -0.142   5.045   2.173  0.00  0.00    +0.158 A 
ATOM      4  C   UNL     1       0.080   4.910   3.531  0.00  0.00    +0.158 A 
ATOM      5  C   UNL     1      -0.353   3.778   4.197  0.00  0.00    +0.061 A 
ATOM      6  C   UNL     1      -1.012   2.774   3.504  0.00  0.00    +0.075 A 
ENDROOT
BRANCH   4   7
ATOM      7  N   UNL     1       0.783   5.980   4.274  0.00  0.00    +0.059 N 
ATOM      8  O   UNL     1       0.863   5.927   5.488  0.00  0.00    -0.126 OA
ATOM      9  O   UNL     1       1.281   6.913   3.671  0.00  0.00    -0.126 OA
ENDBRANCH   4   7
BRANCH   3  10
ATOM     10  N   UNL     1       0.323   6.259   1.467  0.00  0.00    +0.059 N 
ATOM     11  O   UNL     1       0.006   7.362   1.876  0.00  0.00    -0.126 OA
ATOM     12  O   UNL     1       1.024   6.156   0.475  0.00  0.00    -0.126 OA
ENDBRANCH   3  10
BRANCH   6  13
ATOM     13  N   UNL     1      -1.452   1.628   4.176  0.00  0.00    -0.214 N 
ATOM     14  H   UNL     1      -1.426   0.650   3.672  0.00  0.00    +0.174 HD
BRANCH  13  15
ATOM     15  S   UNL     1      -2.010   1.743   5.731  0.00  0.00    +0.072 S 
ATOM     16  O   UNL     1      -2.500   0.456   6.083  0.00  0.00    -0.150 OA
ATOM     17  O   UNL     1      -0.998   2.403   6.478  0.00  0.00    -0.150 OA
BRANCH  15  18
ATOM     18  C   UNL     1      -3.402   2.822   5.706  0.00  0.00    +0.109 A 
ATOM     19  C   UNL     1      -3.227   4.181   5.892  0.00  0.00    +0.029 A 
ATOM     20  C   UNL     1      -4.319   5.028   5.868  0.00  0.00    +0.005 A 
ATOM     21  C   UNL     1      -5.587   4.516   5.667  0.00  0.00    -0.050 A 
ATOM     22  C   UNL     1      -5.763   3.157   5.486  0.00  0.00    +0.005 A 
ATOM     23  C   UNL     1      -4.670   2.310   5.506  0.00  0.00    +0.029 A 
ATOM     24  C   UNL     1      -6.778   5.439   5.646  0.00  0.00    +0.044 C 
ENDBRANCH  15  18
ENDBRANCH  13  15
ENDBRANCH   6  13
BRANCH   1  25
ATOM     25  N   UNL     1      -1.901   1.901   1.427  0.00  0.00    -0.096 NA
BRANCH  25  26
ATOM     26  S   UNL     1      -1.454   1.547  -0.128  0.00  0.00    +0.092 S 
ATOM     27  O   UNL     1      -1.486   2.771  -0.848  0.00  0.00    -0.148 OA
ATOM     28  O   UNL     1      -2.213   0.412  -0.520  0.00  0.00    -0.148 OA
BRANCH  26  33
ATOM     29  C   UNL     1       4.316  -0.211   0.012  0.00  0.00    +0.044 C 
ATOM     30  C   UNL     1       2.875   0.228  -0.021  0.00  0.00    -0.050 A 
ATOM     31  C   UNL     1       1.865  -0.704   0.125  0.00  0.00    +0.005 A 
ATOM     32  C   UNL     1       0.543  -0.301   0.095  0.00  0.00    +0.029 A 
ATOM     33  C   UNL     1       0.231   1.034  -0.082  0.00  0.00    +0.110 A 
ATOM     34  C   UNL     1       1.241   1.966  -0.227  0.00  0.00    +0.029 A 
ATOM     35  C   UNL     1       2.563   1.563  -0.198  0.00  0.00    +0.005 A 
ENDBRANCH  26  33
ENDBRANCH  25  26
ENDBRANCH   1  25
TORSDOF 8
