REMARK  Name = ZINC04787575
REMARK  5 active torsions:
REMARK  status: ('A' for Active; 'I' for Inactive)
REMARK    1  A    between atoms: C_1  and  C_2
REMARK    2  A    between atoms: C_5  and  N_8
REMARK    3  A    between atoms: N_11  and  S_16
REMARK    4  A    between atoms: C_13  and  C_15
REMARK    5  A    between atoms: S_16  and  C_19
REMARK                            x       y       z     vdW  Elec       q    Type
REMARK                         _______ _______ _______ _____ _____    ______ ____
ROOT
ATOM      1  S   UNL     1      -0.389   4.017   2.430  0.00  0.00    +0.061 S 
ATOM      2  O   UNL     1       0.588   3.287   3.161  0.00  0.00    -0.153 OA
ATOM      3  O   UNL     1      -0.122   5.295   1.868  0.00  0.00    -0.153 OA
ENDROOT
BRANCH   1   4
ATOM      4  C   UNL     1      -1.773   4.217   3.501  0.00  0.00    +0.106 A 
ATOM      5  C   UNL     1      -1.974   3.329   4.543  0.00  0.00    +0.030 A 
ATOM      6  C   UNL     1      -3.058   3.483   5.385  0.00  0.00    +0.025 A 
ATOM      7  C   UNL     1      -3.947   4.530   5.184  0.00  0.00    +0.037 A 
ATOM      8  C   UNL     1      -3.743   5.419   4.137  0.00  0.00    -0.024 A 
ATOM      9  C   UNL     1      -2.654   5.264   3.302  0.00  0.00    +0.034 A 
ATOM     10  C   UNL     1      -4.708   6.556   3.920  0.00  0.00    +0.046 C 
ATOM     11  C   UNL     1      -6.119   6.109   4.303  0.00  0.00    +0.101 C 
ATOM     12  C   UNL     1      -6.096   5.443   5.653  0.00  0.00    +0.218 C 
ATOM     13  O   UNL     1      -7.036   5.585   6.407  0.00  0.00    -0.275 OA
ATOM     14  N   UNL     1      -5.046   4.692   6.032  0.00  0.00    -0.285 N 
ATOM     15  H   UNL     1      -5.052   4.259   6.901  0.00  0.00    +0.155 HD
ENDBRANCH   1   4
BRANCH   1  19
ATOM     16  N   UNL     1      -0.724   1.573  -1.181  0.00  0.00    -0.325 N 
ATOM     17  C   UNL     1      -0.013   1.086   0.008  0.00  0.00    +0.122 C 
ATOM     18  C   UNL     1      -0.731   1.581   1.268  0.00  0.00    +0.128 C 
ATOM     19  N   UNL     1      -0.872   3.042   1.182  0.00  0.00    -0.173 NA
ATOM     20  C   UNL     1      -1.452   3.615  -0.042  0.00  0.00    +0.131 C 
ATOM     21  C   UNL     1      -0.705   3.040  -1.250  0.00  0.00    +0.086 C 
ATOM     22  C   UNL     1      -1.388   3.500  -2.539  0.00  0.00    +0.029 C 
BRANCH  16  27
ATOM     23  C   UNL     1       1.417  -0.713  -5.908  0.00  0.00    +0.044 C 
ATOM     24  C   UNL     1       0.848  -0.106  -4.652  0.00  0.00    -0.050 A 
ATOM     25  C   UNL     1       1.674   0.587  -3.785  0.00  0.00    +0.005 A 
ATOM     26  C   UNL     1       1.155   1.145  -2.633  0.00  0.00    +0.023 A 
ATOM     27  C   UNL     1      -0.197   1.010  -2.346  0.00  0.00    +0.030 A 
ATOM     28  C   UNL     1      -1.022   0.309  -3.216  0.00  0.00    +0.023 A 
ATOM     29  C   UNL     1      -0.498  -0.242  -4.369  0.00  0.00    +0.005 A 
ENDBRANCH  16  27
ENDBRANCH   1  19
TORSDOF 3
