REMARK  Name = ZINC06819793
REMARK  5 active torsions:
REMARK  status: ('A' for Active; 'I' for Inactive)
REMARK    1  A    between atoms: C_1  and  C_2
REMARK    2  A    between atoms: N_12  and  C_13
REMARK    3  A    between atoms: C_13  and  C_14
REMARK    4  A    between atoms: N_16  and  C_17
REMARK    5  A    between atoms: C_23  and  C_25
REMARK                            x       y       z     vdW  Elec       q    Type
REMARK                         _______ _______ _______ _____ _____    ______ ____
ROOT
ATOM      1  C   UNL     1      -3.827  -4.226  -4.146  0.00  0.00    +0.044 C 
ATOM      2  C   UNL     1      -5.150  -3.547  -3.901  0.00  0.00    -0.050 A 
ATOM      3  C   UNL     1      -6.327  -4.166  -4.285  0.00  0.00    +0.007 A 
ATOM      4  C   UNL     1      -7.548  -3.555  -4.075  0.00  0.00    +0.046 A 
ATOM      5  C   UNL     1      -7.608  -2.308  -3.474  0.00  0.00    +0.130 A 
ATOM      6  C   UNL     1      -6.408  -1.690  -3.073  0.00  0.00    +0.042 A 
ATOM      7  C   UNL     1      -5.188  -2.306  -3.293  0.00  0.00    +0.017 A 
ATOM      8  C   UNL     1      -6.537  -0.376  -2.415  0.00  0.00    +0.079 A 
ATOM      9  C   UNL     1      -7.784   0.046  -1.989  0.00  0.00    +0.035 A 
ATOM     10  C   UNL     1      -7.632   1.296  -1.422  0.00  0.00    +0.142 A 
ATOM     11  N   UNL     1      -6.362   1.630  -1.483  0.00  0.00    -0.178 NA
ATOM     12  N   UNL     1      -5.654   0.590  -2.111  0.00  0.00    -0.254 N 
ATOM     13  C   UNL     1      -9.002  -0.818  -2.178  0.00  0.00    +0.268 C 
ATOM     14  O   UNL     1      -8.796  -1.681  -3.300  0.00  0.00    -0.487 OA
ENDROOT
BRANCH  12  15
ATOM     15  C   UNL     1      -4.214   0.561  -2.380  0.00  0.00    +0.239 C 
BRANCH  15  16
ATOM     16  C   UNL     1      -3.500  -0.088  -1.222  0.00  0.00    +0.235 C 
ATOM     17  O   UNL     1      -4.131  -0.488  -0.267  0.00  0.00    -0.274 OA
ATOM     18  N   UNL     1      -2.159  -0.225  -1.249  0.00  0.00    -0.311 N 
ATOM     19  H   UNL     1      -1.654   0.095  -2.012  0.00  0.00    +0.149 HD
BRANCH  18  20
ATOM     20  C   UNL     1      -1.465  -0.856  -0.123  0.00  0.00    +0.076 C 
ATOM     21  C   UNL     1      -1.476  -2.375  -0.305  0.00  0.00    +0.022 C 
ATOM     22  C   UNL     1      -0.751  -3.034   0.870  0.00  0.00    +0.002 C 
ATOM     23  C   UNL     1       0.695  -2.538   0.921  0.00  0.00    +0.000 C 
ATOM     24  C   UNL     1       0.706  -1.018   1.102  0.00  0.00    +0.005 C 
ATOM     25  C   UNL     1      -0.019  -0.359  -0.073  0.00  0.00    +0.006 C 
ATOM     26  C   UNL     1      -0.008   1.160   0.108  0.00  0.00    +0.009 C 
ENDBRANCH  18  20
ENDBRANCH  15  16
ENDBRANCH  12  15
TORSDOF 3
