REMARK  Name = ZINC20358379
REMARK  5 active torsions:
REMARK  status: ('A' for Active; 'I' for Inactive)
REMARK    1  A    between atoms: C_1  and  C_2
REMARK    2  A    between atoms: C_3  and  C_12
REMARK    3  A    between atoms: C_22  and  C_24
REMARK    4  A    between atoms: C_24  and  C_25
REMARK    5  A    between atoms: C_25  and  C_26
REMARK                            x       y       z     vdW  Elec       q    Type
REMARK                         _______ _______ _______ _____ _____    ______ ____
ROOT
ATOM      1  C   UNL     1       0.211  -0.357  -2.467  0.00  0.00    +0.026 C 
ATOM      2  C   UNL     1      -0.569   0.694  -2.914  0.00  0.00    +0.079 C 
ATOM      3  C   UNL     1      -0.577   1.113  -4.341  0.00  0.00    +0.132 C 
ATOM      4  N   UNL     1      -0.423   0.278  -5.336  0.00  0.00    -0.385 N 
ATOM      5  N   UNL     1      -0.767   2.501  -4.517  0.00  0.00    -0.154 N 
ATOM      6  C   UNL     1      -1.391   3.191  -3.500  0.00  0.00    +0.181 C 
ATOM      7  N   UNL     1      -1.754   2.731  -2.330  0.00  0.00    -0.152 NA
ATOM      8  C   UNL     1      -1.447   1.458  -1.997  0.00  0.00    +0.273 C 
ATOM      9  O   UNL     1      -1.875   0.954  -0.971  0.00  0.00    -0.268 OA
ATOM     10  S   UNL     1      -1.536   4.818  -4.191  0.00  0.00    -0.038 S 
ATOM     11  C   UNL     1      -0.676   4.499  -5.725  0.00  0.00    +0.100 C 
ATOM     12  N   UNL     1      -0.393   3.232  -5.625  0.00  0.00    -0.169 NA
ATOM     13  H   UNL     1      -0.296  -0.667  -5.160  0.00  0.00    +0.157 HD
ATOM     14  H   UNL     1      -0.436   0.604  -6.250  0.00  0.00    +0.157 HD
ENDROOT
BRANCH   1  17
ATOM     15  C   UNL     1      -0.538  -3.071  -1.166  0.00  0.00    +0.064 C 
ATOM     16  C   UNL     1      -0.035  -1.835  -0.466  0.00  0.00    +0.021 A 
ATOM     17  C   UNL     1       0.287  -0.643  -1.086  0.00  0.00    +0.004 A 
ATOM     18  C   UNL     1       0.729   0.271  -0.013  0.00  0.00    +0.007 A 
ATOM     19  C   UNL     1       1.174   1.589   0.010  0.00  0.00    +0.010 A 
ATOM     20  C   UNL     1       1.520   2.171   1.210  0.00  0.00    +0.001 A 
ATOM     21  C   UNL     1       1.426   1.449   2.390  0.00  0.00    +0.002 A 
ATOM     22  C   UNL     1       0.987   0.143   2.381  0.00  0.00    +0.026 A 
ATOM     23  C   UNL     1       0.632  -0.462   1.180  0.00  0.00    +0.047 A 
ATOM     24  N   UNL     1       0.163  -1.721   0.862  0.00  0.00    -0.358 N 
ATOM     25  H   UNL     1       0.002  -2.428   1.507  0.00  0.00    +0.166 HD
ENDBRANCH   1  17
BRANCH  11  26
ATOM     26  C   UNL     1      -0.360   5.453  -6.848  0.00  0.00    +0.065 C 
BRANCH  26  27
ATOM     27  C   UNL     1       0.393   4.709  -7.952  0.00  0.00    +0.010 C 
BRANCH  27  28
ATOM     28  C   UNL     1       0.714   5.677  -9.092  0.00  0.00    -0.011 C 
ATOM     29  C   UNL     1      -0.588   6.152  -9.740  0.00  0.00    +0.003 C 
ATOM     30  C   UNL     1      -0.267   7.120 -10.880  0.00  0.00    +0.000 C 
ATOM     31  C   UNL     1       0.594   6.409 -11.927  0.00  0.00    +0.000 C 
ATOM     32  C   UNL     1       1.896   5.934 -11.279  0.00  0.00    +0.000 C 
ATOM     33  C   UNL     1       1.575   4.966 -10.139  0.00  0.00    +0.003 C 
ENDBRANCH  27  28
ENDBRANCH  26  27
ENDBRANCH  11  26
TORSDOF 4
