REMARK  Name = ZINC39933409
REMARK  9 active torsions:
REMARK  status: ('A' for Active; 'I' for Inactive)
REMARK    1  A    between atoms: C_1  and  C_2
REMARK    2  A    between atoms: C_2  and  C_4
REMARK    3  A    between atoms: C_2  and  S_17
REMARK    4  A    between atoms: N_6  and  C_7
REMARK    5  A    between atoms: C_10  and  N_13
REMARK    6  A    between atoms: C_14  and  C_16
REMARK    7  A    between atoms: S_17  and  C_18
REMARK    8  A    between atoms: C_22  and  C_30
REMARK    9  A    between atoms: N_23  and  C_24
REMARK                            x       y       z     vdW  Elec       q    Type
REMARK                         _______ _______ _______ _____ _____    ______ ____
ROOT
ATOM      1  C   UNL     1      -2.403   0.057  -1.150  0.00  0.00    +0.242 C 
ATOM      2  N   UNL     1      -1.920  -0.694  -2.320  0.00  0.00    -0.237 N 
ATOM      3  N   UNL     1      -1.605   0.255  -3.300  0.00  0.00    -0.169 NA
ATOM      4  C   UNL     1      -1.834   1.470  -2.875  0.00  0.00    +0.151 C 
ATOM      5  N   UNL     1      -2.328   1.468  -1.565  0.00  0.00    -0.254 N 
ATOM      6  H   UNL     1      -1.836  -1.657  -2.397  0.00  0.00    +0.171 HD
ENDROOT
BRANCH   4   7
ATOM      7  C   UNL     1      -1.613   2.628  -3.635  0.00  0.00    +0.022 C 
ATOM      8  C   UNL     1      -1.212   2.698  -4.970  0.00  0.00    +0.006 A 
ATOM      9  C   UNL     1      -0.916   1.706  -5.929  0.00  0.00    +0.010 A 
ATOM     10  C   UNL     1      -0.542   2.072  -7.182  0.00  0.00    +0.001 A 
ATOM     11  C   UNL     1      -0.441   3.414  -7.553  0.00  0.00    +0.002 A 
ATOM     12  C   UNL     1      -0.709   4.419  -6.683  0.00  0.00    +0.026 A 
ATOM     13  C   UNL     1      -1.107   4.115  -5.355  0.00  0.00    +0.043 A 
ATOM     14  N   UNL     1      -1.419   4.894  -4.338  0.00  0.00    -0.380 N 
ATOM     15  C   UNL     1      -1.767   4.063  -3.181  0.00  0.00    +0.152 C 
ATOM     16  H   UNL     1      -1.421   5.864  -4.354  0.00  0.00    +0.160 HD
ENDBRANCH   4   7
BRANCH   5  17
ATOM     17  C   UNL     1      -2.681   2.583  -0.801  0.00  0.00    +0.038 A 
ATOM     18  C   UNL     1      -1.714   3.513  -0.439  0.00  0.00    +0.023 A 
ATOM     19  C   UNL     1      -2.067   4.614   0.316  0.00  0.00    +0.002 A 
ATOM     20  C   UNL     1      -3.380   4.792   0.712  0.00  0.00    +0.000 A 
ATOM     21  C   UNL     1      -4.344   3.868   0.354  0.00  0.00    +0.002 A 
ATOM     22  C   UNL     1      -4.000   2.767  -0.405  0.00  0.00    +0.023 A 
ENDBRANCH   5  17
BRANCH   1  23
ATOM     23  S   UNL     1      -1.330  -0.240   0.282  0.00  0.00    -0.105 S 
BRANCH  23  25
ATOM     24  C   UNL     1       0.610   1.359  -0.794  0.00  0.00    +0.029 C 
ATOM     25  C   UNL     1       0.349  -0.093  -0.389  0.00  0.00    +0.133 C 
BRANCH  25  26
ATOM     26  C   UNL     1       1.348  -0.509   0.660  0.00  0.00    +0.230 C 
ATOM     27  O   UNL     1       1.029  -0.519   1.830  0.00  0.00    -0.274 OA
ATOM     28  N   UNL     1       2.595  -0.870   0.298  0.00  0.00    -0.285 N 
ATOM     29  H   UNL     1       2.872  -0.792  -0.629  0.00  0.00    +0.155 HD
BRANCH  28  30
ATOM     30  C   UNL     1       3.490  -1.356   1.259  0.00  0.00    +0.034 A 
ATOM     31  C   UNL     1       4.857  -1.186   1.083  0.00  0.00    +0.025 A 
ATOM     32  C   UNL     1       5.740  -1.666   2.030  0.00  0.00    +0.025 A 
ATOM     33  C   UNL     1       5.260  -2.317   3.159  0.00  0.00    +0.033 A 
ATOM     34  C   UNL     1       3.893  -2.487   3.335  0.00  0.00    +0.025 A 
ATOM     35  C   UNL     1       3.010  -2.003   2.390  0.00  0.00    +0.025 A 
BRANCH  33  36
ATOM     36  N   UNL     1       6.156  -2.804   4.120  0.00  0.00    -0.286 N 
ATOM     37  C   UNL     1       5.877  -3.942   4.785  0.00  0.00    +0.214 C 
ATOM     38  O   UNL     1       4.898  -4.595   4.488  0.00  0.00    -0.276 OA
ATOM     39  C   UNL     1       6.781  -4.405   5.899  0.00  0.00    +0.109 C 
ATOM     40  H   UNL     1       6.977  -2.322   4.306  0.00  0.00    +0.155 HD
ENDBRANCH  33  36
ENDBRANCH  28  30
ENDBRANCH  25  26
ENDBRANCH  23  25
ENDBRANCH   1  23
TORSDOF 7
