REMARK  Name = ZINC09836089
REMARK  10 active torsions:
REMARK  status: ('A' for Active; 'I' for Inactive)
REMARK    1  A    between atoms: C_1  and  C_2
REMARK    2  A    between atoms: C_2  and  N_3
REMARK    3  A    between atoms: C_5  and  C_14
REMARK    4  A    between atoms: C_14  and  N_60
REMARK    5  A    between atoms: C_15  and  N_60
REMARK    6  A    between atoms: C_16  and  C_17
REMARK    7  A    between atoms: C_16  and  N_60
REMARK    8  A    between atoms: N_19  and  C_20
REMARK    9  A    between atoms: C_22  and  C_31
REMARK   10  A    between atoms: N_24  and  C_25
REMARK                            x       y       z     vdW  Elec       q    Type
REMARK                         _______ _______ _______ _____ _____    ______ ____
ROOT
ATOM      1  C   UNL     1       0.387   7.534  -2.706  0.00  0.00    +0.019 C 
ENDROOT
BRANCH   1   2
ATOM      2  C   UNL     1       1.160   6.620  -1.791  0.00  0.00    +0.202 C 
ATOM      3  O   UNL     1       2.303   6.891  -1.486  0.00  0.00    -0.278 OA
ATOM      4  N   UNL     1       0.582   5.502  -1.309  0.00  0.00    -0.272 N 
ATOM      5  H   UNL     1      -0.332   5.285  -1.553  0.00  0.00    +0.156 HD
BRANCH   4   6
ATOM      6  C   UNL     1       1.297   4.656  -0.462  0.00  0.00    +0.129 A 
ATOM      7  C   UNL     1       2.579   4.835  -0.041  0.00  0.00    +0.068 A 
ATOM      8  C   UNL     1       2.910   3.762   0.792  0.00  0.00    +0.062 A 
ATOM      9  N   UNL     1       1.873   2.968   0.879  0.00  0.00    -0.170 NA
ATOM     10  N   UNL     1       0.842   3.501   0.095  0.00  0.00    -0.218 N 
ATOM     11  C   UNL     1       4.236   3.557   1.479  0.00  0.00    +0.067 C 
BRANCH  10  12
ATOM     12  C   UNL     1      -0.433   2.946  -0.080  0.00  0.00    +0.067 A 
ATOM     13  C   UNL     1      -0.592   1.567  -0.125  0.00  0.00    +0.028 A 
ATOM     14  C   UNL     1      -1.850   1.023  -0.297  0.00  0.00    +0.002 A 
ATOM     15  C   UNL     1      -2.950   1.850  -0.431  0.00  0.00    +0.000 A 
ATOM     16  C   UNL     1      -2.796   3.224  -0.381  0.00  0.00    +0.002 A 
ATOM     17  C   UNL     1      -1.540   3.773  -0.209  0.00  0.00    +0.028 A 
ENDBRANCH  10  12
ENDBRANCH   4   6
ENDBRANCH   1   2
BRANCH   1  19
ATOM     18  C   UNL     1       1.535   9.518  -1.926  0.00  0.00    -0.095 C 
ATOM     19  N   UNL     1       1.257   8.662  -3.099  0.00  0.00    +0.386 N 
ATOM     20  H   UNL     1       2.144   8.290  -3.458  0.00  0.00    -0.081 HD
BRANCH  19  21
ATOM     21  C   UNL     1       0.605   9.457  -4.161  0.00  0.00    -0.032 C 
BRANCH  21  24
ATOM     22  N   UNL     1       0.083   8.690  -7.835  0.00  0.00    -0.324 N 
ATOM     23  C   UNL     1      -0.013   9.462  -6.590  0.00  0.00    +0.147 C 
ATOM     24  C   UNL     1       0.747   8.711  -5.489  0.00  0.00    +0.174 C 
ATOM     25  O   UNL     1       2.127   8.654  -5.867  0.00  0.00    -0.487 OA
ATOM     26  C   UNL     1       2.393   8.312  -7.157  0.00  0.00    +0.142 A 
ATOM     27  C   UNL     1       1.401   8.331  -8.131  0.00  0.00    +0.072 A 
ATOM     28  C   UNL     1       1.718   7.983  -9.440  0.00  0.00    +0.027 A 
ATOM     29  C   UNL     1       3.009   7.619  -9.769  0.00  0.00    +0.002 A 
ATOM     30  C   UNL     1       3.993   7.597  -8.799  0.00  0.00    +0.004 A 
ATOM     31  C   UNL     1       3.687   7.943  -7.496  0.00  0.00    +0.047 A 
BRANCH  22  33
ATOM     32  C   UNL     1       0.302  10.665  -9.266  0.00  0.00    +0.024 C 
ATOM     33  C   UNL     1      -0.529   9.419  -8.954  0.00  0.00    +0.102 C 
ENDBRANCH  22  33
ENDBRANCH  21  24
ENDBRANCH  19  21
ENDBRANCH   1  19
TORSDOF 7
