REMARK  Name = ZINC67464269
REMARK  9 active torsions:
REMARK  status: ('A' for Active; 'I' for Inactive)
REMARK    1  A    between atoms: C_1  and  C_2
REMARK    2  A    between atoms: C_9  and  C_12
REMARK    3  A    between atoms: C_10  and  C_11
REMARK    4  A    between atoms: N_14  and  N_15
REMARK    5  A    between atoms: N_15  and  C_16
REMARK    6  A    between atoms: C_16  and  N_18
REMARK    7  A    between atoms: N_18  and  C_19
REMARK    8  A    between atoms: C_19  and  C_20
REMARK    9  A    between atoms: C_20  and  C_21
REMARK                            x       y       z     vdW  Elec       q    Type
REMARK                         _______ _______ _______ _____ _____    ______ ____
ROOT
ATOM      1  C   UNL     1       0.066  -1.347   4.779  0.00  0.00    +0.296 C 
ATOM      2  O   UNL     1       0.087  -2.378   5.425  0.00  0.00    -0.265 OA
ATOM      3  N   UNL     1       0.055  -0.157   5.409  0.00  0.00    -0.229 N 
ATOM      4  H   UNL     1       0.039   0.665   4.894  0.00  0.00    +0.173 HD
ENDROOT
BRANCH   1  13
ATOM      5  C   UNL     1      -0.018   1.503   0.010  0.00  0.00    +0.047 C 
ATOM      6  C   UNL     1       0.002  -0.004   0.002  0.00  0.00    -0.008 A 
ATOM      7  C   UNL     1       0.006  -0.688  -1.195  0.00  0.00    +0.007 A 
ATOM      8  C   UNL     1       0.025  -2.076  -1.218  0.00  0.00    +0.001 A 
ATOM      9  C   UNL     1       0.040  -2.788  -0.052  0.00  0.00    +0.012 A 
ATOM     10  C   UNL     1       0.037  -2.114   1.171  0.00  0.00    +0.024 A 
ATOM     11  C   UNL     1       0.023  -0.707   1.201  0.00  0.00    +0.139 A 
ATOM     12  O   UNL     1       0.030  -0.327   2.493  0.00  0.00    -0.450 OA
ATOM     13  C   UNL     1       0.052  -1.402   3.310  0.00  0.00    +0.195 A 
ATOM     14  C   UNL     1       0.049  -2.540   2.570  0.00  0.00    +0.008 A 
ATOM     15  C   UNL     1       0.070  -3.956   3.085  0.00  0.00    +0.048 C 
ENDBRANCH   1  13
BRANCH   3  16
ATOM     16  N   UNL     1       0.068  -0.105   6.809  0.00  0.00    -0.246 N 
ATOM     17  H   UNL     1       0.085  -0.926   7.325  0.00  0.00    +0.172 HD
BRANCH  16  18
ATOM     18  C   UNL     1       0.058   1.086   7.440  0.00  0.00    +0.147 C 
ATOM     19  S   UNL     1       0.074   1.149   9.151  0.00  0.00    -0.017 S 
BRANCH  18  20
ATOM     20  N   UNL     1       0.035   2.228   6.724  0.00  0.00    -0.325 N 
ATOM     21  H   UNL     1       0.026   2.192   5.754  0.00  0.00    +0.148 HD
BRANCH  20  22
ATOM     22  C   UNL     1       0.023   3.522   7.409  0.00  0.00    +0.108 C 
BRANCH  22  23
ATOM     23  C   UNL     1      -0.003   4.648   6.373  0.00  0.00    +0.061 C 
BRANCH  23  24
ATOM     24  C   UNL     1      -0.014   5.980   7.078  0.00  0.00    -0.009 A 
ATOM     25  C   UNL     1       1.032   6.751   7.462  0.00  0.00    +0.011 A 
ATOM     26  C   UNL     1       0.780   7.951   8.102  0.00  0.00    +0.008 A 
ATOM     27  C   UNL     1      -0.504   8.319   8.326  0.00  0.00    +0.045 A 
ATOM     28  S   UNL     1      -1.410   6.954   7.617  0.00  0.00    -0.102 S 
ENDBRANCH  23  24
ENDBRANCH  22  23
ENDBRANCH  20  22
ENDBRANCH  18  20
ENDBRANCH  16  18
ENDBRANCH   3  16
TORSDOF 7
