REMARK  Name = ZINC54534407
REMARK  5 active torsions:
REMARK  status: ('A' for Active; 'I' for Inactive)
REMARK    1  A    between atoms: C_1  and  C_2
REMARK    2  A    between atoms: C_5  and  C_18
REMARK    3  A    between atoms: C_6  and  N_8
REMARK    4  A    between atoms: C_11  and  C_17
REMARK    5  A    between atoms: C_14  and  C_16
REMARK                            x       y       z     vdW  Elec       q    Type
REMARK                         _______ _______ _______ _____ _____    ______ ____
ROOT
ATOM      1  C   UNL     1      -2.416  -0.802  -1.387  0.00  0.00    +0.063 C 
ATOM      2  C   UNL     1      -1.130  -1.091  -0.657  0.00  0.00    +0.014 A 
ATOM      3  C   UNL     1       0.072  -0.692  -1.216  0.00  0.00    +0.022 A 
ATOM      4  C   UNL     1       1.255  -0.956  -0.549  0.00  0.00    +0.020 A 
ATOM      5  C   UNL     1       1.190  -1.625   0.681  0.00  0.00    +0.101 A 
ATOM      6  C   UNL     1      -0.070  -1.999   1.183  0.00  0.00    +0.114 A 
ATOM      7  N   UNL     1      -1.171  -1.715   0.503  0.00  0.00    -0.346 N 
ATOM      8  H   UNL     1      -2.031  -1.977   0.868  0.00  0.00    +0.167 HD
ENDROOT
BRANCH   6   9
ATOM      9  N   UNL     1      -0.160  -2.659   2.392  0.00  0.00    -0.313 N 
ATOM     10  C   UNL     1      -0.060  -4.124   2.454  0.00  0.00    +0.107 C 
ATOM     11  C   UNL     1       1.031  -4.502   3.461  0.00  0.00    +0.022 C 
ATOM     12  C   UNL     1       0.732  -3.835   4.806  0.00  0.00    -0.011 C 
ATOM     13  C   UNL     1       0.738  -2.314   4.635  0.00  0.00    +0.025 C 
ATOM     14  C   UNL     1      -0.350  -1.911   3.642  0.00  0.00    +0.072 C 
ATOM     15  C   UNL     1      -1.724  -2.239   4.232  0.00  0.00    +0.028 C 
ATOM     16  C   UNL     1       1.801  -4.237   5.824  0.00  0.00    +0.007 C 
ENDBRANCH   6   9
BRANCH   5  17
ATOM     17  C   UNL     1       2.416  -1.931   1.432  0.00  0.00    +0.390 C 
ATOM     18  O   UNL     1       3.511  -1.707   0.934  0.00  0.00    -0.240 OA
ATOM     19  O   UNL     1       2.342  -2.411   2.555  0.00  0.00    -0.240 OA
ENDBRANCH   5  17
TORSDOF 2
