REMARK  Name = ZINC08836632
REMARK  14 active torsions:
REMARK  status: ('A' for Active; 'I' for Inactive)
REMARK    1  A    between atoms: C_1  and  C_2
REMARK    2  A    between atoms: C_5  and  C_8
REMARK    3  A    between atoms: C_11  and  C_12
REMARK    4  A    between atoms: C_11  and  O_24
REMARK    5  A    between atoms: C_13  and  C_23
REMARK    6  A    between atoms: C_14  and  C_19
REMARK    7  A    between atoms: C_17  and  C_18
REMARK    8  A    between atoms: C_19  and  O_21
REMARK    9  A    between atoms: O_21  and  C_22
REMARK   10  A    between atoms: N_29  and  C_30
REMARK   11  A    between atoms: C_30  and  C_31
REMARK   12  A    between atoms: C_31  and  N_61
REMARK   13  A    between atoms: C_32  and  N_61
REMARK   14  A    between atoms: C_33  and  N_61
REMARK                            x       y       z     vdW  Elec       q    Type
REMARK                         _______ _______ _______ _____ _____    ______ ____
ROOT
ATOM      1  C   UNL     1      -2.283  -5.444  -1.300  0.00  0.00    +0.144 C 
ATOM      2  C   UNL     1      -1.496  -4.166  -1.131  0.00  0.00    +0.071 C 
ATOM      3  C   UNL     1      -1.439  -3.369  -0.002  0.00  0.00    +0.135 C 
ATOM      4  C   UNL     1      -0.841  -3.946  -2.349  0.00  0.00    +0.249 C 
ATOM      5  O   UNL     1      -0.110  -3.007  -2.608  0.00  0.00    -0.282 OA
ATOM      6  C   UNL     1      -1.190  -5.059  -3.272  0.00  0.00    +0.288 C 
ATOM      7  O   UNL     1      -0.784  -5.173  -4.411  0.00  0.00    -0.266 OA
ATOM      8  N   UNL     1      -2.025  -5.918  -2.663  0.00  0.00    -0.285 N 
ENDROOT
BRANCH   3   9
ATOM      9  C   UNL     1      -0.619  -2.150  -0.004  0.00  0.00    +0.041 A 
ATOM     10  C   UNL     1      -1.093  -0.817   0.008  0.00  0.00    -0.008 A 
ATOM     11  C   UNL     1       0.002  -0.004   0.002  0.00  0.00    +0.128 A 
ATOM     12  N   UNL     1       1.131  -0.796  -0.019  0.00  0.00    -0.352 N 
ATOM     13  H   UNL     1       2.045  -0.470  -0.031  0.00  0.00    +0.166 HD
ATOM     14  C   UNL     1       0.766  -2.087  -0.016  0.00  0.00    +0.024 A 
ATOM     15  C   UNL     1       1.702  -3.268  -0.032  0.00  0.00    +0.064 C 
ATOM     16  C   UNL     1      -2.535  -0.379   0.024  0.00  0.00    +0.047 C 
BRANCH  11  17
ATOM     17  C   UNL     1      -0.018   1.462   0.010  0.00  0.00    +0.356 C 
ATOM     18  O   UNL     1      -1.079   2.056   0.018  0.00  0.00    -0.243 OA
BRANCH  17  19
ATOM     19  O   UNL     1       1.141   2.153   0.003  0.00  0.00    -0.463 OA
ATOM     20  C   UNL     1       1.045   3.601   0.011  0.00  0.00    +0.280 C 
ENDBRANCH  17  19
ENDBRANCH  11  17
ENDBRANCH   3   9
BRANCH   1  25
ATOM     21  C   UNL     1      -0.508  -9.386   2.535  0.00  0.00    +0.044 C 
ATOM     22  C   UNL     1      -0.971  -8.358   1.535  0.00  0.00    -0.050 A 
ATOM     23  C   UNL     1      -2.138  -7.652   1.759  0.00  0.00    +0.004 A 
ATOM     24  C   UNL     1      -2.563  -6.710   0.841  0.00  0.00    +0.006 A 
ATOM     25  C   UNL     1      -1.820  -6.472  -0.300  0.00  0.00    -0.022 A 
ATOM     26  C   UNL     1      -0.655  -7.181  -0.527  0.00  0.00    +0.006 A 
ATOM     27  C   UNL     1      -0.228  -8.121   0.393  0.00  0.00    +0.004 A 
ENDBRANCH   1  25
BRANCH   3  28
ATOM     28  O   UNL     1      -2.136  -3.712   1.103  0.00  0.00    -0.506 OA
ATOM     29  H   UNL     1      -1.982  -3.031   1.819  0.00  0.00    +0.292 HD
ENDBRANCH   3  28
BRANCH   8  30
ATOM     30  C   UNL     1      -2.585  -7.132  -3.263  0.00  0.00    +0.090 C 
BRANCH  30  31
ATOM     31  C   UNL     1      -3.910  -6.796  -3.950  0.00  0.00    -0.060 C 
BRANCH  31  34
ATOM     32  C   UNL     1      -4.851  -8.985  -3.518  0.00  0.00    -0.097 C 
ATOM     33  C   UNL     1      -5.615  -7.693  -5.418  0.00  0.00    -0.097 C 
ATOM     34  N   UNL     1      -4.452  -8.025  -4.568  0.00  0.00    +0.377 N 
ATOM     35  H   UNL     1      -3.724  -8.453  -5.152  0.00  0.00    -0.083 HD
ENDBRANCH  31  34
ENDBRANCH  30  31
ENDBRANCH   8  30
TORSDOF 8
