REMARK  Name = ZINC40125146
REMARK  6 active torsions:
REMARK  status: ('A' for Active; 'I' for Inactive)
REMARK    1  A    between atoms: C_2  and  C_3
REMARK    2  A    between atoms: C_3  and  O_4
REMARK    3  A    between atoms: O_4  and  C_5
REMARK    4  A    between atoms: C_8  and  C_11
REMARK    5  A    between atoms: C_11  and  C_13
REMARK    6  A    between atoms: C_18  and  C_20
REMARK                            x       y       z     vdW  Elec       q    Type
REMARK                         _______ _______ _______ _____ _____    ______ ____
ROOT
ATOM      1  C   UNL     1      -5.801  -6.174  -2.493  0.00  0.00    +0.076 C 
ATOM      2  C   UNL     1      -6.628  -6.245  -3.562  0.00  0.00    +0.249 C 
ATOM      3  C   UNL     1      -6.299  -7.451  -4.351  0.00  0.00    +0.285 C 
ATOM      4  O   UNL     1      -6.864  -7.793  -5.370  0.00  0.00    -0.267 OA
ATOM      5  N   UNL     1      -5.282  -8.115  -3.772  0.00  0.00    -0.298 N 
ATOM      6  C   UNL     1      -4.883  -7.372  -2.571  0.00  0.00    +0.142 C 
ATOM      7  O   UNL     1      -7.599  -5.353  -3.862  0.00  0.00    -0.282 OA
ATOM      8  H   UNL     1      -4.881  -8.938  -4.094  0.00  0.00    +0.150 HD
ENDROOT
BRANCH   6   9
ATOM      9  C   UNL     1      -5.056  -8.237  -1.349  0.00  0.00    -0.021 A 
ATOM     10  C   UNL     1      -6.074  -9.170  -1.301  0.00  0.00    +0.007 A 
ATOM     11  C   UNL     1      -6.234  -9.964  -0.181  0.00  0.00    +0.022 A 
ATOM     12  C   UNL     1      -5.373  -9.825   0.893  0.00  0.00    +0.059 A 
ATOM     13  C   UNL     1      -4.352  -8.891   0.845  0.00  0.00    +0.060 A 
ATOM     14  C   UNL     1      -4.191  -8.101  -0.279  0.00  0.00    +0.027 A 
ATOM     15 CL   UNL     1      -3.271  -8.715   2.192  0.00  0.00    -0.082 Cl
ATOM     16 CL   UNL     1      -5.572 -10.821   2.301  0.00  0.00    -0.082 Cl
ENDBRANCH   6   9
BRANCH   1  17
ATOM     17  C   UNL     1      -5.794  -5.133  -1.461  0.00  0.00    +0.195 C 
ATOM     18  O   UNL     1      -6.737  -5.025  -0.698  0.00  0.00    -0.287 OA
BRANCH  17  22
ATOM     19  C   UNL     1      -2.484  -2.492  -1.131  0.00  0.00    +0.121 A 
ATOM     20  C   UNL     1      -3.595  -2.317  -0.313  0.00  0.00    +0.046 A 
ATOM     21  C   UNL     1      -4.670  -3.171  -0.417  0.00  0.00    +0.015 A 
ATOM     22  C   UNL     1      -4.644  -4.215  -1.347  0.00  0.00    +0.022 A 
ATOM     23  C   UNL     1      -3.526  -4.386  -2.168  0.00  0.00    +0.015 A 
ATOM     24  C   UNL     1      -2.457  -3.525  -2.061  0.00  0.00    +0.046 A 
BRANCH  19  25
ATOM     25  O   UNL     1      -1.427  -1.648  -1.026  0.00  0.00    -0.488 OA
BRANCH  25  26
ATOM     26  C   UNL     1      -1.521  -0.608  -0.051  0.00  0.00    +0.256 C 
BRANCH  26  28
ATOM     27  C   UNL     1      -0.342   1.530  -0.052  0.00  0.00    +0.007 C 
ATOM     28  C   UNL     1      -0.264   0.222  -0.078  0.00  0.00    +0.006 C 
ENDBRANCH  26  28
ENDBRANCH  25  26
ENDBRANCH  19  25
ENDBRANCH  17  22
ENDBRANCH   1  17
TORSDOF 6
