REMARK  Name = ZINC21257509
REMARK  14 active torsions:
REMARK  status: ('A' for Active; 'I' for Inactive)
REMARK    1  A    between atoms: C_1  and  C_2
REMARK    2  A    between atoms: C_2  and  C_3
REMARK    3  A    between atoms: C_2  and  O_4
REMARK    4  A    between atoms: O_4  and  C_5
REMARK    5  A    between atoms: C_8  and  C_13
REMARK    6  A    between atoms: C_10  and  O_11
REMARK    7  A    between atoms: O_11  and  C_12
REMARK    8  A    between atoms: C_18  and  C_24
REMARK    9  A    between atoms: C_28  and  O_34
REMARK   10  A    between atoms: C_29  and  O_30
REMARK   11  A    between atoms: O_30  and  C_31
REMARK   12  A    between atoms: C_31  and  C_32
REMARK   13  A    between atoms: C_31  and  C_33
REMARK   14  A    between atoms: O_34  and  C_35
REMARK                            x       y       z     vdW  Elec       q    Type
REMARK                         _______ _______ _______ _____ _____    ______ ____
ROOT
ATOM      1  C   UNL     1       2.761  -0.533  -3.364  0.00  0.00    +0.032 C 
ATOM      2  C   UNL     1       2.318  -1.691  -2.467  0.00  0.00    +0.059 C 
ATOM      3  C   UNL     1       1.435  -1.165  -1.363  0.00  0.00    +0.018 C 
ATOM      4  C   UNL     1       1.605   0.081  -0.875  0.00  0.00    +0.020 C 
ATOM      5  C   UNL     1       0.715   0.582   0.239  0.00  0.00    +0.066 C 
ATOM      6  C   UNL     1      -0.692   0.007   0.062  0.00  0.00    +0.109 C 
ATOM      7  C   UNL     1      -0.591  -1.477  -0.180  0.00  0.00    +0.218 C 
ATOM      8  O   UNL     1      -1.456  -2.218   0.237  0.00  0.00    -0.275 OA
ATOM      9  N   UNL     1       0.454  -1.982  -0.858  0.00  0.00    -0.289 N 
ATOM     10  C   UNL     1       2.596   0.937  -1.383  0.00  0.00    +0.162 C 
ATOM     11  O   UNL     1       2.726   2.048  -0.911  0.00  0.00    -0.292 OA
ATOM     12  C   UNL     1       3.500   0.497  -2.504  0.00  0.00    +0.088 C 
ATOM     13  H   UNL     1       0.515  -3.070  -1.006  0.00  0.00    +0.155 HD
ENDROOT
BRANCH   1  17
ATOM     14  C   UNL     1       5.379  -1.994  -6.414  0.00  0.00    +0.162 A 
ATOM     15  C   UNL     1       5.707  -2.158  -5.078  0.00  0.00    +0.050 A 
ATOM     16  C   UNL     1       4.859  -1.685  -4.095  0.00  0.00    +0.008 A 
ATOM     17  C   UNL     1       3.682  -1.047  -4.441  0.00  0.00    -0.040 A 
ATOM     18  C   UNL     1       3.346  -0.885  -5.772  0.00  0.00    +0.053 A 
ATOM     19  C   UNL     1       4.194  -1.352  -6.763  0.00  0.00    +0.162 A 
BRANCH  19  20
ATOM     20  O   UNL     1       3.867  -1.189  -8.072  0.00  0.00    -0.491 OA
ATOM     21  C   UNL     1       2.636  -0.521  -8.355  0.00  0.00    +0.277 C 
ENDBRANCH  19  20
BRANCH  14  22
ATOM     22  O   UNL     1       6.212  -2.459  -7.383  0.00  0.00    -0.486 OA
BRANCH  22  24
ATOM     23  C   UNL     1       7.281  -4.470  -6.573  0.00  0.00    +0.051 C 
ATOM     24  C   UNL     1       7.464  -3.000  -6.957  0.00  0.00    +0.167 C 
ATOM     25  C   UNL     1       8.480  -2.894  -8.097  0.00  0.00    +0.051 C 
ENDBRANCH  22  24
ENDBRANCH  14  22
ENDBRANCH   1  17
BRANCH   5  26
ATOM     26  C   UNL     1       1.275   0.142   1.567  0.00  0.00    +0.006 A 
ATOM     27  C   UNL     1       1.429  -1.205   1.840  0.00  0.00    +0.008 A 
ATOM     28  C   UNL     1       1.942  -1.612   3.057  0.00  0.00    +0.004 A 
ATOM     29  C   UNL     1       2.306  -0.674   4.006  0.00  0.00    +0.049 A 
ATOM     30  C   UNL     1       2.154   0.676   3.739  0.00  0.00    +0.162 A 
ATOM     31  C   UNL     1       1.642   1.087   2.511  0.00  0.00    +0.166 A 
BRANCH  30  32
ATOM     32  O   UNL     1       2.511   1.600   4.671  0.00  0.00    -0.491 OA
ATOM     33  C   UNL     1       3.035   1.107   5.905  0.00  0.00    +0.277 C 
ENDBRANCH  30  32
BRANCH  31  34
ATOM     34  O   UNL     1       1.497   2.412   2.241  0.00  0.00    -0.485 OA
BRANCH  34  35
ATOM     35  C   UNL     1       0.251   3.014   2.599  0.00  0.00    +0.168 C 
ATOM     36  C   UNL     1       0.477   4.488   2.941  0.00  0.00    +0.051 C 
ATOM     37  C   UNL     1      -0.724   2.906   1.425  0.00  0.00    +0.051 C 
ENDBRANCH  34  35
ENDBRANCH  31  34
ENDBRANCH   5  26
TORSDOF 8
