REMARK  Name = ZINC05749286
REMARK  4 active torsions:
REMARK  status: ('A' for Active; 'I' for Inactive)
REMARK    1  A    between atoms: C_1  and  C_2
REMARK    2  A    between atoms: C_3  and  C_13
REMARK    3  A    between atoms: N_5  and  C_7
REMARK    4  A    between atoms: C_16  and  C_23
REMARK                            x       y       z     vdW  Elec       q    Type
REMARK                         _______ _______ _______ _____ _____    ______ ____
ROOT
ATOM      1  C   UNL     1      -0.006  -0.342  -2.566  0.00  0.00    +0.150 C 
ATOM      2  C   UNL     1       1.238  -0.860  -3.297  0.00  0.00    +0.088 C 
ATOM      3  C   UNL     1       1.060  -0.785  -4.787  0.00  0.00    +0.055 C 
ATOM      4  N   UNL     1      -0.096  -0.966  -5.368  0.00  0.00    -0.215 NA
ATOM      5  C   UNL     1      -1.195  -1.156  -4.590  0.00  0.00    +0.249 A 
ATOM      6  N   UNL     1      -1.186  -0.870  -3.251  0.00  0.00    -0.222 N 
ATOM      7  N   UNL     1      -2.453  -1.179  -2.769  0.00  0.00    -0.156 NA
ATOM      8  C   UNL     1      -3.156  -1.601  -3.794  0.00  0.00    +0.247 A 
ATOM      9  N   UNL     1      -2.397  -1.582  -4.892  0.00  0.00    -0.198 NA
ENDROOT
BRANCH   3  10
ATOM     10  C   UNL     1       2.234  -0.498  -5.625  0.00  0.00    -0.003 A 
ATOM     11  C   UNL     1       3.488  -0.306  -5.036  0.00  0.00    +0.011 A 
ATOM     12  C   UNL     1       4.584  -0.037  -5.828  0.00  0.00    +0.020 A 
ATOM     13  C   UNL     1       4.446   0.043  -7.204  0.00  0.00    +0.041 A 
ATOM     14  C   UNL     1       3.207  -0.147  -7.795  0.00  0.00    +0.020 A 
ATOM     15  C   UNL     1       2.103  -0.422  -7.016  0.00  0.00    +0.011 A 
ATOM     16 CL   UNL     1       5.831   0.382  -8.194  0.00  0.00    -0.084 Cl
ENDBRANCH   3  10
BRANCH   1  19
ATOM     17  C   UNL     1      -0.018   1.503   0.010  0.00  0.00    +0.068 C 
ATOM     18  C   UNL     1       0.002  -0.004   0.002  0.00  0.00    +0.066 A 
ATOM     19  C   UNL     1       0.008  -0.818  -1.136  0.00  0.00    +0.018 A 
ATOM     20  C   UNL     1       0.028  -2.107  -0.726  0.00  0.00    +0.120 A 
ATOM     21  N   UNL     1       0.035  -2.109   0.626  0.00  0.00    -0.239 N 
ATOM     22  N   UNL     1       0.023  -0.777   1.058  0.00  0.00    -0.171 NA
BRANCH  21  23
ATOM     23  C   UNL     1       0.054  -3.244   1.449  0.00  0.00    +0.065 A 
ATOM     24  C   UNL     1       0.074  -4.512   0.885  0.00  0.00    +0.028 A 
ATOM     25  C   UNL     1       0.093  -5.628   1.699  0.00  0.00    +0.002 A 
ATOM     26  C   UNL     1       0.092  -5.482   3.074  0.00  0.00    +0.000 A 
ATOM     27  C   UNL     1       0.072  -4.220   3.639  0.00  0.00    +0.002 A 
ATOM     28  C   UNL     1       0.059  -3.101   2.830  0.00  0.00    +0.028 A 
ENDBRANCH  21  23
ENDBRANCH   1  19
TORSDOF 3
