REMARK  Name = ZINC10061291
REMARK  7 active torsions:
REMARK  status: ('A' for Active; 'I' for Inactive)
REMARK    1  A    between atoms: C_1  and  C_2
REMARK    2  A    between atoms: C_9  and  N_18
REMARK    3  A    between atoms: C_10  and  C_11
REMARK    4  A    between atoms: C_14  and  O_16
REMARK    5  A    between atoms: O_16  and  C_17
REMARK    6  A    between atoms: C_19  and  C_21
REMARK    7  A    between atoms: C_21  and  C_22
REMARK                            x       y       z     vdW  Elec       q    Type
REMARK                         _______ _______ _______ _____ _____    ______ ____
ROOT
ATOM      1  C   UNL     1      -2.890   1.492   2.530  0.00  0.00    +0.008 C 
ATOM      2  C   UNL     1      -2.223   1.219   1.181  0.00  0.00    -0.009 C 
ATOM      3  C   UNL     1      -0.735   1.582   1.262  0.00  0.00    +0.008 C 
ATOM      4  C   UNL     1      -0.013   1.086   0.008  0.00  0.00    +0.037 C 
ATOM      5  C   UNL     1      -0.755   1.593  -1.222  0.00  0.00    -0.023 A 
ATOM      6  C   UNL     1      -2.032   2.025  -1.135  0.00  0.00    -0.004 A 
ATOM      7  S   UNL     1      -2.461   2.506  -2.783  0.00  0.00    -0.077 S 
ATOM      8  C   UNL     1      -0.967   2.140  -3.580  0.00  0.00    +0.084 A 
ATOM      9  C   UNL     1      -0.171   1.654  -2.551  0.00  0.00    +0.069 A 
ATOM     10  C   UNL     1      -2.885   2.078   0.095  0.00  0.00    +0.046 C 
ENDROOT
BRANCH   9  11
ATOM     11  C   UNL     1       1.206   1.218  -2.796  0.00  0.00    +0.255 C 
ATOM     12  O   UNL     1       1.434   0.060  -3.094  0.00  0.00    -0.270 OA
ATOM     13  N   UNL     1       2.220   2.100  -2.693  0.00  0.00    -0.217 N 
ATOM     14  C   UNL     1       3.487   1.699  -2.919  0.00  0.00    +0.407 C 
ATOM     15  O   UNL     1       3.715   0.543  -3.215  0.00  0.00    -0.226 OA
ATOM     16  H   UNL     1       2.038   3.022  -2.456  0.00  0.00    +0.161 HD
BRANCH  14  17
ATOM     17  O   UNL     1       4.500   2.579  -2.815  0.00  0.00    -0.453 OA
ATOM     18  C   UNL     1       5.838   2.078  -3.072  0.00  0.00    +0.282 C 
ENDBRANCH  14  17
ENDBRANCH   9  11
BRANCH   8  19
ATOM     19  N   UNL     1      -0.644   2.295  -4.919  0.00  0.00    -0.279 N 
ATOM     20  C   UNL     1      -1.556   2.789  -5.779  0.00  0.00    +0.222 C 
ATOM     21  O   UNL     1      -2.660   3.097  -5.382  0.00  0.00    -0.275 OA
ATOM     22  H   UNL     1       0.239   2.048  -5.237  0.00  0.00    +0.155 HD
BRANCH  20  23
ATOM     23  C   UNL     1      -1.205   2.957  -7.235  0.00  0.00    +0.138 C 
BRANCH  23  24
ATOM     24  C   UNL     1      -2.390   3.522  -7.976  0.00  0.00    -0.000 A 
ATOM     25  C   UNL     1      -2.718   4.818  -8.199  0.00  0.00    +0.013 A 
ATOM     26  C   UNL     1      -3.866   5.106  -8.913  0.00  0.00    +0.028 A 
ATOM     27  C   UNL     1      -4.631   4.082  -9.368  0.00  0.00    +0.078 A 
ATOM     28  S   UNL     1      -3.721   2.658  -8.792  0.00  0.00    -0.081 S 
ATOM     29 CL   UNL     1      -6.106   4.142 -10.281  0.00  0.00    -0.076 Cl
ENDBRANCH  23  24
ENDBRANCH  20  23
ENDBRANCH   8  19
TORSDOF 5
