REMARK  Name = ZINC13219710
REMARK  11 active torsions:
REMARK  status: ('A' for Active; 'I' for Inactive)
REMARK    1  A    between atoms: C_1  and  C_2
REMARK    2  A    between atoms: C_5  and  C_8
REMARK    3  A    between atoms: C_11  and  S_17
REMARK    4  A    between atoms: N_12  and  C_13
REMARK    5  A    between atoms: C_13  and  C_14
REMARK    6  A    between atoms: C_14  and  C_15
REMARK    7  A    between atoms: S_17  and  C_18
REMARK    8  A    between atoms: C_18  and  C_19
REMARK    9  A    between atoms: N_21  and  C_22
REMARK   10  A    between atoms: N_21  and  C_23
REMARK   11  A    between atoms: C_23  and  C_24
REMARK                            x       y       z     vdW  Elec       q    Type
REMARK                         _______ _______ _______ _____ _____    ______ ____
ROOT
ATOM      1  C   UNL     1       4.510  -4.517  -7.755  0.00  0.00    +0.165 A 
ATOM      2  N   UNL     1       5.113  -3.371  -7.541  0.00  0.00    -0.128 NA
ATOM      3  N   UNL     1       4.902  -2.982  -6.335  0.00  0.00    -0.122 NA
ATOM      4  C   UNL     1       4.157  -3.861  -5.701  0.00  0.00    +0.192 A 
ATOM      5  N   UNL     1       3.879  -4.866  -6.583  0.00  0.00    -0.302 N 
ENDROOT
BRANCH   1  10
ATOM      6  C   UNL     1       4.503  -7.516 -12.666  0.00  0.00    +0.044 C 
ATOM      7  C   UNL     1       4.505  -6.730 -11.380  0.00  0.00    -0.050 A 
ATOM      8  C   UNL     1       5.478  -5.772 -11.159  0.00  0.00    +0.004 A 
ATOM      9  C   UNL     1       5.486  -5.050  -9.984  0.00  0.00    +0.012 A 
ATOM     10  C   UNL     1       4.508  -5.288  -9.016  0.00  0.00    +0.019 A 
ATOM     11  C   UNL     1       3.532  -6.260  -9.243  0.00  0.00    +0.012 A 
ATOM     12  C   UNL     1       3.533  -6.971 -10.425  0.00  0.00    +0.004 A 
ENDBRANCH   1  10
BRANCH   5  13
ATOM     13  C   UNL     1       3.076  -6.066  -6.333  0.00  0.00    +0.137 C 
BRANCH  13  14
ATOM     14  C   UNL     1       1.601  -5.757  -6.598  0.00  0.00    +0.147 C 
BRANCH  14  15
ATOM     15  C   UNL     1       0.776  -6.991  -6.341  0.00  0.00    +0.358 C 
ATOM     16  O   UNL     1       1.312  -8.013  -5.982  0.00  0.00    -0.246 OA
ATOM     17  O   UNL     1      -0.555  -6.955  -6.511  0.00  0.00    -0.246 OA
ENDBRANCH  14  15
ENDBRANCH  13  14
ENDBRANCH   5  13
BRANCH   4  18
ATOM     18  S   UNL     1       3.614  -3.758  -4.028  0.00  0.00    -0.077 S 
BRANCH  18  19
ATOM     19  C   UNL     1       4.373  -2.187  -3.547  0.00  0.00    +0.173 C 
BRANCH  19  20
ATOM     20  C   UNL     1       4.033  -1.884  -2.111  0.00  0.00    +0.226 C 
ATOM     21  O   UNL     1       3.345  -2.654  -1.475  0.00  0.00    -0.275 OA
ATOM     22  N   UNL     1       4.494  -0.757  -1.533  0.00  0.00    -0.300 N 
ATOM     23  C   UNL     1       5.325   0.174  -2.301  0.00  0.00    +0.132 C 
BRANCH  22  24
ATOM     24  C   UNL     1       4.164  -0.462  -0.136  0.00  0.00    +0.142 C 
BRANCH  24  25
ATOM     25  C   UNL     1       2.884   0.332  -0.079  0.00  0.00    -0.026 A 
ATOM     26  C   UNL     1       1.670  -0.322   0.013  0.00  0.00    +0.009 A 
ATOM     27  C   UNL     1       0.494   0.403   0.064  0.00  0.00    +0.050 A 
ATOM     28  C   UNL     1       0.530   1.789   0.023  0.00  0.00    +0.162 A 
ATOM     29  C   UNL     1       1.751   2.447  -0.067  0.00  0.00    +0.162 A 
ATOM     30  C   UNL     1       2.927   1.713  -0.119  0.00  0.00    +0.054 A 
ATOM     31  O   UNL     1       1.810   3.806  -0.100  0.00  0.00    -0.485 OA
ATOM     32  C   UNL     1       0.597   4.495  -0.423  0.00  0.00    +0.270 C 
ATOM     33  C   UNL     1      -0.541   3.878   0.403  0.00  0.00    +0.270 C 
ATOM     34  O   UNL     1      -0.636   2.489   0.065  0.00  0.00    -0.485 OA
ENDBRANCH  24  25
ENDBRANCH  22  24
ENDBRANCH  19  20
ENDBRANCH  18  19
ENDBRANCH   4  18
TORSDOF 9
