REMARK  Name = ZINC04093077
REMARK  10 active torsions:
REMARK  status: ('A' for Active; 'I' for Inactive)
REMARK    1  A    between atoms: C_1  and  C_2
REMARK    2  A    between atoms: C_5  and  C_7
REMARK    3  A    between atoms: C_7  and  C_9
REMARK    4  A    between atoms: C_7  and  N_17
REMARK    5  A    between atoms: N_11  and  C_12
REMARK    6  A    between atoms: N_17  and  C_18
REMARK    7  A    between atoms: C_18  and  C_19
REMARK    8  A    between atoms: C_25  and  C_27
REMARK    9  A    between atoms: C_28  and  N_35
REMARK   10  A    between atoms: C_29  and  C_32
REMARK                            x       y       z     vdW  Elec       q    Type
REMARK                         _______ _______ _______ _____ _____    ______ ____
ROOT
ATOM      1  N   UNL     1       2.598  -2.945  -0.582  0.00  0.00    -0.274 N 
ATOM      2  C   UNL     1       3.219  -2.433  -1.663  0.00  0.00    +0.258 C 
ATOM      3  O   UNL     1       3.029  -2.921  -2.761  0.00  0.00    -0.269 OA
ENDROOT
BRANCH   2   4
ATOM      4  C   UNL     1       4.122  -1.289  -1.515  0.00  0.00    +0.115 A 
ATOM      5  C   UNL     1       4.774  -0.545  -2.499  0.00  0.00    +0.076 A 
ATOM      6  C   UNL     1       5.562   0.483  -1.986  0.00  0.00    +0.155 A 
ATOM      7  N   UNL     1       5.627   0.662  -0.684  0.00  0.00    -0.203 NA
ATOM      8  S   UNL     1       4.674  -0.471  -0.032  0.00  0.00    +0.019 S 
BRANCH   6   9
ATOM      9  C   UNL     1       6.320   1.363  -2.895  0.00  0.00    +0.262 C 
ATOM     10  O   UNL     1       6.172   1.265  -4.099  0.00  0.00    -0.269 OA
ATOM     11  N   UNL     1       7.175   2.275  -2.393  0.00  0.00    -0.324 N 
ATOM     12  H   UNL     1       7.293   2.352  -1.433  0.00  0.00    +0.145 HD
ATOM     13  H   UNL     1       7.673   2.853  -2.991  0.00  0.00    +0.145 HD
ENDBRANCH   6   9
BRANCH   5  14
ATOM     14  N   UNL     1       4.650  -0.805  -3.858  0.00  0.00    -0.355 N 
ATOM     15  H   UNL     1       4.012  -1.465  -4.169  0.00  0.00    +0.142 HD
ATOM     16  H   UNL     1       5.202  -0.326  -4.495  0.00  0.00    +0.142 HD
ENDBRANCH   5  14
ENDBRANCH   2   4
BRANCH   1  17
ATOM     17  C   UNL     1       1.606  -4.011  -0.743  0.00  0.00    +0.229 C 
BRANCH  17  22
ATOM     18  C   UNL     1      -1.543  -2.170   2.740  0.00  0.00    +0.086 C 
ATOM     19  C   UNL     1      -1.035  -2.825   1.481  0.00  0.00    +0.102 A 
ATOM     20  C   UNL     1      -1.797  -3.322   0.491  0.00  0.00    +0.045 A 
ATOM     21  C   UNL     1      -0.914  -3.838  -0.485  0.00  0.00    +0.047 A 
ATOM     22  C   UNL     1       0.334  -3.625  -0.033  0.00  0.00    +0.135 A 
ATOM     23  O   UNL     1       0.255  -3.006   1.156  0.00  0.00    -0.462 OA
ENDBRANCH  17  22
BRANCH  17  24
ATOM     24  C   UNL     1       2.143  -5.290  -0.153  0.00  0.00    +0.241 C 
ATOM     25  O   UNL     1       3.339  -5.441  -0.021  0.00  0.00    -0.273 OA
ATOM     26  N   UNL     1       1.294  -6.265   0.227  0.00  0.00    -0.311 N 
ATOM     27  H   UNL     1       0.337  -6.143   0.121  0.00  0.00    +0.149 HD
BRANCH  26  28
ATOM     28  C   UNL     1       1.815  -7.508   0.801  0.00  0.00    +0.073 C 
ATOM     29  C   UNL     1       2.127  -8.518  -0.323  0.00  0.00    +0.022 C 
ATOM     30  C   UNL     1       1.727  -9.889   0.277  0.00  0.00    +0.002 C 
ATOM     31  C   UNL     1       0.451  -9.548   1.087  0.00  0.00    +0.002 C 
ATOM     32  C   UNL     1       0.750  -8.163   1.697  0.00  0.00    +0.022 C 
ENDBRANCH  26  28
ENDBRANCH  17  24
ENDBRANCH   1  17
BRANCH   1  33
ATOM     33  C   UNL     1       2.915  -2.436   0.755  0.00  0.00    +0.146 C 
BRANCH  33  34
ATOM     34  C   UNL     1       4.018  -3.265   1.360  0.00  0.00    -0.012 A 
ATOM     35  C   UNL     1       3.726  -4.244   2.298  0.00  0.00    +0.008 A 
ATOM     36  C   UNL     1       4.773  -4.983   2.828  0.00  0.00    +0.020 A 
ATOM     37  C   UNL     1       6.063  -4.722   2.407  0.00  0.00    +0.111 A 
ATOM     38  N   UNL     1       6.303  -3.783   1.513  0.00  0.00    -0.263 NA
ATOM     39  C   UNL     1       5.332  -3.065   0.983  0.00  0.00    +0.115 A 
ENDBRANCH  33  34
ENDBRANCH   1  33
TORSDOF 9
