REMARK  Name = ZINC40981898
REMARK  11 active torsions:
REMARK  status: ('A' for Active; 'I' for Inactive)
REMARK    1  A    between atoms: C_1  and  C_2
REMARK    2  A    between atoms: C_2  and  C_3
REMARK    3  A    between atoms: C_3  and  S_4
REMARK    4  A    between atoms: S_4  and  C_5
REMARK    5  A    between atoms: C_10  and  C_19
REMARK    6  A    between atoms: C_12  and  C_16
REMARK    7  A    between atoms: C_13  and  C_15
REMARK    8  A    between atoms: C_22  and  O_25
REMARK    9  A    between atoms: O_25  and  C_26
REMARK   10  A    between atoms: C_26  and  C_27
REMARK   11  A    between atoms: C_26  and  C_28
REMARK                            x       y       z     vdW  Elec       q    Type
REMARK                         _______ _______ _______ _____ _____    ______ ____
ROOT
ATOM      1  C   UNL     1       1.480  -2.826   2.570  0.00  0.00    +0.210 A 
ATOM      2  N   UNL     1       1.919  -1.920   3.456  0.00  0.00    -0.187 NA
ATOM      3  C   UNL     1       2.501  -2.530   4.452  0.00  0.00    +0.219 A 
ATOM      4  N   UNL     1       2.450  -3.865   4.216  0.00  0.00    -0.220 N 
ATOM      5  N   UNL     1       1.782  -4.031   3.004  0.00  0.00    -0.141 NA
ATOM      6  C   UNL     1       3.014  -4.867   5.117  0.00  0.00    +0.177 C 
ATOM      7  C   UNL     1       3.367  -4.219   6.429  0.00  0.00    +0.060 C 
ATOM      8  C   UNL     1       3.397  -2.890   6.605  0.00  0.00    +0.018 C 
ATOM      9  N   UNL     1       3.095  -2.011   5.594  0.00  0.00    -0.287 N 
ATOM     10  C   UNL     1       3.775  -2.343   7.958  0.00  0.00    +0.061 C 
ATOM     11  H   UNL     1       3.290  -1.064   5.675  0.00  0.00    +0.155 HD
ENDROOT
BRANCH   6  12
ATOM     12  C   UNL     1       4.256  -5.456   4.498  0.00  0.00    -0.018 A 
ATOM     13  C   UNL     1       5.331  -4.640   4.197  0.00  0.00    +0.009 A 
ATOM     14  C   UNL     1       6.470  -5.178   3.629  0.00  0.00    +0.046 A 
ATOM     15  C   UNL     1       6.534  -6.538   3.362  0.00  0.00    +0.121 A 
ATOM     16  C   UNL     1       5.454  -7.354   3.666  0.00  0.00    +0.046 A 
ATOM     17  C   UNL     1       4.320  -6.812   4.238  0.00  0.00    +0.009 A 
BRANCH  15  18
ATOM     18  O   UNL     1       7.653  -7.069   2.803  0.00  0.00    -0.489 OA
BRANCH  18  19
ATOM     19  C   UNL     1       8.774  -6.198   2.641  0.00  0.00    +0.167 C 
ATOM     20  C   UNL     1      10.069  -6.991   2.829  0.00  0.00    +0.051 C 
ATOM     21  C   UNL     1       8.748  -5.590   1.237  0.00  0.00    +0.051 C 
ENDBRANCH  18  19
ENDBRANCH  15  18
ENDBRANCH   6  12
BRANCH   7  22
ATOM     22  C   UNL     1       3.680  -5.052   7.530  0.00  0.00    +0.241 C 
ATOM     23  O   UNL     1       2.787  -5.574   8.172  0.00  0.00    -0.271 OA
ATOM     24  N   UNL     1       4.967  -5.269   7.866  0.00  0.00    -0.325 N 
ATOM     25  H   UNL     1       5.679  -4.853   7.354  0.00  0.00    +0.145 HD
ATOM     26  H   UNL     1       5.182  -5.840   8.620  0.00  0.00    +0.145 HD
ENDBRANCH   7  22
BRANCH   1  27
ATOM     27  S   UNL     1       0.631  -2.462   1.070  0.00  0.00    -0.084 S 
BRANCH  27  28
ATOM     28  C   UNL     1       0.530  -0.651   1.051  0.00  0.00    +0.077 C 
BRANCH  28  30
ATOM     29  C   UNL     1      -0.281   1.334  -0.231  0.00  0.00    +0.004 C 
ATOM     30  C   UNL     1      -0.195  -0.193  -0.216  0.00  0.00    +0.008 C 
ENDBRANCH  28  30
ENDBRANCH  27  28
ENDBRANCH   1  27
TORSDOF 7
