REMARK  Name = ZINC38705283
REMARK  15 active torsions:
REMARK  status: ('A' for Active; 'I' for Inactive)
REMARK    1  A    between atoms: C_1  and  C_2
REMARK    2  A    between atoms: C_4  and  C_40
REMARK    3  A    between atoms: C_5  and  C_9
REMARK    4  A    between atoms: C_6  and  O_8
REMARK    5  A    between atoms: N_17  and  C_34
REMARK    6  A    between atoms: C_18  and  C_20
REMARK    7  A    between atoms: C_23  and  O_28
REMARK    8  A    between atoms: C_24  and  O_26
REMARK    9  A    between atoms: O_26  and  C_27
REMARK   10  A    between atoms: O_28  and  C_29
REMARK   11  A    between atoms: C_29  and  C_30
REMARK   12  A    between atoms: C_30  and  C_31
REMARK   13  A    between atoms: C_31  and  C_32
REMARK   14  A    between atoms: C_31  and  C_33
REMARK   15  A    between atoms: C_34  and  C_35
REMARK                            x       y       z     vdW  Elec       q    Type
REMARK                         _______ _______ _______ _____ _____    ______ ____
ROOT
ATOM      1  C   UNL     1      -0.232  -4.715  -0.111  0.00  0.00    +0.102 A 
ATOM      2  C   UNL     1       0.043  -5.349   1.107  0.00  0.00    +0.035 A 
ATOM      3  C   UNL     1       0.103  -6.699   0.823  0.00  0.00    +0.126 A 
ATOM      4  N   UNL     1      -0.133  -6.817  -0.518  0.00  0.00    -0.272 N 
ATOM      5  H   UNL     1      -0.153  -7.653  -1.008  0.00  0.00    +0.189 HD
ATOM      6  N   UNL     1      -0.328  -5.654  -1.031  0.00  0.00    -0.173 NA
ATOM      7  C   UNL     1       0.389  -7.425   2.066  0.00  0.00    +0.266 C 
ATOM      8  O   UNL     1       0.504  -8.633   2.154  0.00  0.00    -0.268 OA
ATOM      9  N   UNL     1       0.505  -6.565   3.094  0.00  0.00    -0.278 N 
ATOM     10  C   UNL     1       0.300  -5.204   2.581  0.00  0.00    +0.142 C 
ENDROOT
BRANCH   1  15
ATOM     11  C   UNL     1      -0.857   0.953  -0.944  0.00  0.00    +0.044 C 
ATOM     12  C   UNL     1      -0.691  -0.529  -0.725  0.00  0.00    -0.047 A 
ATOM     13  C   UNL     1      -1.621  -1.411  -1.246  0.00  0.00    +0.007 A 
ATOM     14  C   UNL     1      -1.476  -2.769  -1.050  0.00  0.00    -0.037 A 
ATOM     15  C   UNL     1      -0.391  -3.255  -0.325  0.00  0.00    +0.047 A 
ATOM     16  C   UNL     1       0.547  -2.362   0.200  0.00  0.00    +0.127 A 
ATOM     17  C   UNL     1       0.393  -1.001  -0.009  0.00  0.00    +0.049 A 
ATOM     18  C   UNL     1      -2.493  -3.726  -1.619  0.00  0.00    +0.044 C 
BRANCH  16  19
ATOM     19  O   UNL     1       1.609  -2.827   0.909  0.00  0.00    -0.506 OA
ATOM     20  H   UNL     1       2.411  -2.946   0.382  0.00  0.00    +0.292 HD
ENDBRANCH  16  19
ENDBRANCH   1  15
BRANCH  10  21
ATOM     21  C   UNL     1      -0.889  -4.571   3.256  0.00  0.00    -0.019 A 
ATOM     22  C   UNL     1      -2.044  -5.306   3.451  0.00  0.00    +0.009 A 
ATOM     23  C   UNL     1      -3.138  -4.729   4.069  0.00  0.00    +0.050 A 
ATOM     24  C   UNL     1      -3.078  -3.412   4.495  0.00  0.00    +0.162 A 
ATOM     25  C   UNL     1      -1.916  -2.672   4.299  0.00  0.00    +0.162 A 
ATOM     26  C   UNL     1      -0.822  -3.258   3.683  0.00  0.00    +0.055 A 
BRANCH  25  27
ATOM     27  O   UNL     1      -1.853  -1.379   4.715  0.00  0.00    -0.491 OA
ATOM     28  C   UNL     1      -0.628  -0.681   4.480  0.00  0.00    +0.277 C 
ENDBRANCH  25  27
BRANCH  24  29
ATOM     29  O   UNL     1      -4.154  -2.843   5.103  0.00  0.00    -0.488 OA
BRANCH  29  30
ATOM     30  C   UNL     1      -5.312  -3.662   5.271  0.00  0.00    +0.229 C 
BRANCH  30  31
ATOM     31  C   UNL     1      -6.410  -2.856   5.968  0.00  0.00    +0.044 C 
BRANCH  31  32
ATOM     32  C   UNL     1      -7.651  -3.732   6.147  0.00  0.00    -0.014 C 
ATOM     33  C   UNL     1      -8.703  -2.968   6.954  0.00  0.00    +0.007 C 
ATOM     34  C   UNL     1      -8.223  -4.093   4.775  0.00  0.00    +0.007 C 
ENDBRANCH  31  32
ENDBRANCH  30  31
ENDBRANCH  29  30
ENDBRANCH  24  29
ENDBRANCH  10  21
BRANCH   9  35
ATOM     35  C   UNL     1       0.787  -6.925   4.486  0.00  0.00    +0.183 C 
BRANCH  35  36
ATOM     36  C   UNL     1       2.277  -6.934   4.710  0.00  0.00    +0.122 A 
ATOM     37  C   UNL     1       3.018  -5.886   5.112  0.00  0.00    +0.046 A 
ATOM     38  C   UNL     1       4.356  -6.337   5.191  0.00  0.00    +0.041 A 
ATOM     39  C   UNL     1       4.352  -7.633   4.833  0.00  0.00    +0.195 A 
ATOM     40  O   UNL     1       3.090  -7.991   4.548  0.00  0.00    -0.466 OA
ENDBRANCH  35  36
ENDBRANCH   9  35
TORSDOF 10
