REMARK  Name = ZINC09737419
REMARK  5 active torsions:
REMARK  status: ('A' for Active; 'I' for Inactive)
REMARK    1  A    between atoms: C_1  and  C_2
REMARK    2  A    between atoms: C_5  and  N_9
REMARK    3  A    between atoms: C_6  and  C_8
REMARK    4  A    between atoms: C_10  and  C_12
REMARK    5  A    between atoms: C_22  and  C_24
REMARK                            x       y       z     vdW  Elec       q    Type
REMARK                         _______ _______ _______ _____ _____    ______ ____
ROOT
ATOM      1  C   UNL     1       0.140   1.587  -0.083  0.00  0.00    +0.172 C 
ATOM      2  C   UNL     1      -0.454   2.235  -1.344  0.00  0.00    +0.069 C 
ATOM      3  C   UNL     1      -1.703   2.938  -0.855  0.00  0.00    -0.024 A 
ATOM      4  C   UNL     1      -2.644   3.688  -1.534  0.00  0.00    +0.005 A 
ATOM      5  C   UNL     1      -3.715   4.238  -0.855  0.00  0.00    +0.000 A 
ATOM      6  C   UNL     1      -3.843   4.037   0.507  0.00  0.00    +0.002 A 
ATOM      7  C   UNL     1      -2.906   3.289   1.189  0.00  0.00    +0.024 A 
ATOM      8  C   UNL     1      -1.822   2.730   0.509  0.00  0.00    +0.041 A 
ATOM      9  N   UNL     1      -0.773   1.950   1.004  0.00  0.00    -0.255 N 
ATOM     10  C   UNL     1      -0.624   1.584   2.293  0.00  0.00    +0.252 C 
ATOM     11  O   UNL     1      -1.500   1.830   3.100  0.00  0.00    -0.270 OA
ENDROOT
BRANCH  10  12
ATOM     12  C   UNL     1       0.604   0.884   2.725  0.00  0.00    +0.037 A 
ATOM     13  C   UNL     1       1.442   0.290   1.780  0.00  0.00    +0.013 A 
ATOM     14  C   UNL     1       2.589  -0.357   2.190  0.00  0.00    +0.001 A 
ATOM     15  C   UNL     1       2.905  -0.427   3.535  0.00  0.00    +0.000 A 
ATOM     16  C   UNL     1       2.075   0.154   4.478  0.00  0.00    +0.001 A 
ATOM     17  C   UNL     1       0.928   0.809   4.081  0.00  0.00    +0.013 A 
ENDBRANCH  10  12
BRANCH   1  19
ATOM     18  N   UNL     1       2.508   1.937  -0.706  0.00  0.00    -0.284 N 
ATOM     19  C   UNL     1       1.518   2.134   0.187  0.00  0.00    +0.238 C 
ATOM     20  O   UNL     1       1.736   2.751   1.208  0.00  0.00    -0.273 OA
ATOM     21  H   UNL     1       2.360   1.365  -1.475  0.00  0.00    +0.155 HD
BRANCH  18  26
ATOM     22  C   UNL     1       7.539   4.451   0.037  0.00  0.00    +0.044 C 
ATOM     23  C   UNL     1       6.202   3.783  -0.161  0.00  0.00    -0.050 A 
ATOM     24  C   UNL     1       5.085   4.268   0.495  0.00  0.00    +0.005 A 
ATOM     25  C   UNL     1       3.858   3.662   0.312  0.00  0.00    +0.024 A 
ATOM     26  C   UNL     1       3.748   2.557  -0.523  0.00  0.00    +0.036 A 
ATOM     27  C   UNL     1       4.872   2.073  -1.180  0.00  0.00    -0.029 A 
ATOM     28  C   UNL     1       6.096   2.687  -0.997  0.00  0.00    +0.008 A 
ATOM     29  C   UNL     1       4.756   0.879  -2.091  0.00  0.00    +0.045 C 
ENDBRANCH  18  26
ENDBRANCH   1  19
TORSDOF 3
