REMARK  Name = ZINC05416101
REMARK  5 active torsions:
REMARK  status: ('A' for Active; 'I' for Inactive)
REMARK    1  A    between atoms: C_1  and  C_2
REMARK    2  A    between atoms: C_5  and  C_8
REMARK    3  A    between atoms: C_8  and  C_10
REMARK    4  A    between atoms: C_8  and  O_26
REMARK    5  A    between atoms: C_10  and  N_17
REMARK                            x       y       z     vdW  Elec       q    Type
REMARK                         _______ _______ _______ _____ _____    ______ ____
ROOT
ATOM      1  C   UNL     1      -3.581   3.938  -0.818  0.00  0.00    +0.061 C 
ATOM      2  C   UNL     1      -4.424   4.897  -1.156  0.00  0.00    -0.048 C 
ATOM      3  C   UNL     1      -5.869   4.852  -0.711  0.00  0.00    +0.032 C 
ATOM      4  C   UNL     1      -6.213   6.198  -0.054  0.00  0.00    +0.004 C 
ATOM      5  C   UNL     1      -5.888   7.333  -1.026  0.00  0.00    +0.001 C 
ATOM      6  C   UNL     1      -4.385   7.364  -1.304  0.00  0.00    +0.004 C 
ATOM      7  C   UNL     1      -3.970   6.065  -2.003  0.00  0.00    +0.032 C 
ENDROOT
BRANCH   1   8
ATOM      8  N   UNL     1      -2.220   4.204  -0.741  0.00  0.00    -0.219 N 
ATOM      9  C   UNL     1      -1.211   3.260  -0.525  0.00  0.00    +0.073 A 
ATOM     10  C   UNL     1      -1.227   1.887  -0.341  0.00  0.00    +0.027 A 
ATOM     11  C   UNL     1      -0.041   1.204  -0.141  0.00  0.00    +0.002 A 
ATOM     12  C   UNL     1       1.162   1.885  -0.135  0.00  0.00    +0.002 A 
ATOM     13  C   UNL     1       1.188   3.256  -0.323  0.00  0.00    +0.026 A 
ATOM     14  C   UNL     1       0.004   3.948  -0.519  0.00  0.00    +0.065 A 
ATOM     15  N   UNL     1      -0.285   5.300  -0.731  0.00  0.00    -0.262 N 
ATOM     16  N   UNL     1      -1.637   5.432  -0.863  0.00  0.00    -0.156 NA
ATOM     17  H   UNL     1       0.364   6.019  -0.776  0.00  0.00    +0.168 HD
ATOM     18  H   UNL     1      -2.005   6.077  -0.179  0.00  0.00    +0.168 HD
ENDBRANCH   1   8
BRANCH   1  19
ATOM     19  C   UNL     1      -4.097   2.554  -0.515  0.00  0.00    +0.190 C 
BRANCH  19  24
ATOM     20  C   UNL     1      -9.476   2.012  -2.555  0.00  0.00    +0.044 C 
ATOM     21  C   UNL     1      -8.073   2.154  -2.023  0.00  0.00    -0.050 A 
ATOM     22  C   UNL     1      -7.061   2.601  -2.852  0.00  0.00    +0.004 A 
ATOM     23  C   UNL     1      -5.775   2.731  -2.364  0.00  0.00    +0.007 A 
ATOM     24  C   UNL     1      -5.500   2.413  -1.047  0.00  0.00    -0.013 A 
ATOM     25  C   UNL     1      -6.510   1.961  -0.219  0.00  0.00    +0.007 A 
ATOM     26  C   UNL     1      -7.798   1.837  -0.706  0.00  0.00    +0.004 A 
ENDBRANCH  19  24
BRANCH  19  27
ATOM     27  O   UNL     1      -4.100   2.346   0.899  0.00  0.00    -0.381 OA
ATOM     28  H   UNL     1      -4.566   3.031   1.396  0.00  0.00    +0.211 HD
ENDBRANCH  19  27
ENDBRANCH   1  19
TORSDOF 4
