REMARK  Name = ZINC29397720
REMARK  8 active torsions:
REMARK  status: ('A' for Active; 'I' for Inactive)
REMARK    1  A    between atoms: C_1  and  O_2
REMARK    2  A    between atoms: O_2  and  C_3
REMARK    3  A    between atoms: C_11  and  N_22
REMARK    4  A    between atoms: C_13  and  C_15
REMARK    5  A    between atoms: C_15  and  C_16
REMARK    6  A    between atoms: C_23  and  C_25
REMARK    7  A    between atoms: C_25  and  N_26
REMARK    8  A    between atoms: C_29  and  N_32
REMARK                            x       y       z     vdW  Elec       q    Type
REMARK                         _______ _______ _______ _____ _____    ______ ____
ROOT
ATOM      1  N   UNL     1       3.378   2.603   1.352  0.00  0.00    -0.313 N 
ATOM      2  C   UNL     1       4.489   2.115   1.940  0.00  0.00    +0.197 C 
ATOM      3  O   UNL     1       5.551   2.153   1.356  0.00  0.00    -0.278 OA
ATOM      4  H   UNL     1       2.415   2.568   1.882  0.00  0.00    +0.149 HD
ENDROOT
BRANCH   1  13
ATOM      5  C   UNL     1      -1.495   2.188  -0.357  0.00  0.00    +0.120 A 
ATOM      6  C   UNL     1      -1.411   3.551  -0.111  0.00  0.00    +0.046 A 
ATOM      7  C   UNL     1      -0.176   4.162  -0.063  0.00  0.00    +0.008 A 
ATOM      8  C   UNL     1       0.986   3.424  -0.254  0.00  0.00    -0.039 A 
ATOM      9  C   UNL     1       0.905   2.070  -0.490  0.00  0.00    -0.040 A 
ATOM     10  C   UNL     1      -0.337   1.452  -0.539  0.00  0.00    +0.049 A 
ATOM     11  C   UNL     1       2.124   1.208  -0.696  0.00  0.00    +0.037 C 
ATOM     12  C   UNL     1       3.338   2.069  -1.040  0.00  0.00    +0.027 C 
ATOM     13  C   UNL     1       3.455   3.182   0.008  0.00  0.00    +0.081 C 
ATOM     14  C   UNL     1       2.300   4.160  -0.197  0.00  0.00    +0.044 C 
BRANCH   5  16
ATOM     15  C   UNL     1      -3.859   2.403  -0.216  0.00  0.00    +0.277 C 
ATOM     16  O   UNL     1      -2.708   1.578  -0.414  0.00  0.00    -0.495 OA
ENDBRANCH   5  16
BRANCH  14  17
ATOM     17  C   UNL     1       2.269   5.155   0.964  0.00  0.00    +0.046 C 
BRANCH  17  18
ATOM     18  C   UNL     1       3.515   6.003   0.933  0.00  0.00    -0.029 A 
ATOM     19  C   UNL     1       4.608   5.674   1.721  0.00  0.00    +0.006 A 
ATOM     20  C   UNL     1       5.734   6.480   1.656  0.00  0.00    +0.020 A 
ATOM     21  C   UNL     1       5.727   7.581   0.821  0.00  0.00    +0.111 A 
ATOM     22  N   UNL     1       4.668   7.866   0.089  0.00  0.00    -0.263 NA
ATOM     23  C   UNL     1       3.581   7.120   0.122  0.00  0.00    +0.114 A 
ENDBRANCH  17  18
ENDBRANCH  14  17
ENDBRANCH   1  13
BRANCH   2  24
ATOM     24  C   UNL     1       4.410   1.520   3.322  0.00  0.00    +0.019 C 
BRANCH  24  25
ATOM     25  N   UNL     1       5.744   1.062   3.735  0.00  0.00    +0.386 N 
ATOM     26  C   UNL     1       6.201  -0.052   2.894  0.00  0.00    -0.076 C 
ATOM     27  C   UNL     1       7.645  -0.406   3.256  0.00  0.00    +0.006 C 
ATOM     28  C   UNL     1       7.716  -0.795   4.735  0.00  0.00    +0.089 C 
ATOM     29  C   UNL     1       7.189   0.364   5.585  0.00  0.00    +0.006 C 
ATOM     30  C   UNL     1       5.758   0.695   5.157  0.00  0.00    -0.076 C 
ATOM     31  H   UNL     1       6.447   1.896   3.597  0.00  0.00    -0.081 HD
BRANCH  28  32
ATOM     32  N   UNL     1       9.106  -1.079   5.101  0.00  0.00    -0.289 N 
ATOM     33  C   UNL     1       9.597  -2.275   5.596  0.00  0.00    +0.070 A 
ATOM     34  C   UNL     1       9.022  -3.502   5.893  0.00  0.00    +0.028 A 
ATOM     35  C   UNL     1       9.805  -4.525   6.386  0.00  0.00    +0.002 A 
ATOM     36  C   UNL     1      11.164  -4.335   6.587  0.00  0.00    +0.002 A 
ATOM     37  C   UNL     1      11.751  -3.124   6.298  0.00  0.00    +0.028 A 
ATOM     38  C   UNL     1      10.973  -2.078   5.798  0.00  0.00    +0.067 A 
ATOM     39  N   UNL     1      11.251  -0.800   5.426  0.00  0.00    -0.306 N 
ATOM     40  C   UNL     1      10.158  -0.215   5.012  0.00  0.00    +0.328 A 
ATOM     41  O   UNL     1      10.080   1.059   4.564  0.00  0.00    -0.247 OA
ATOM     42  H   UNL     1      12.279  -0.417   5.502  0.00  0.00    +0.170 HD
ENDBRANCH  28  32
ENDBRANCH  24  25
ENDBRANCH   2  24
TORSDOF 7
