REMARK  Name = ZINC45991701
REMARK  10 active torsions:
REMARK  status: ('A' for Active; 'I' for Inactive)
REMARK    1  A    between atoms: C_1  and  C_2
REMARK    2  A    between atoms: C_2  and  C_3
REMARK    3  A    between atoms: C_8  and  N_9
REMARK    4  A    between atoms: C_10  and  C_12
REMARK    5  A    between atoms: C_12  and  C_14
REMARK    6  A    between atoms: C_12  and  O_15
REMARK    7  A    between atoms: O_15  and  C_16
REMARK    8  A    between atoms: C_18  and  C_32
REMARK    9  A    between atoms: C_20  and  C_31
REMARK   10  A    between atoms: N_22  and  C_25
REMARK                            x       y       z     vdW  Elec       q    Type
REMARK                         _______ _______ _______ _____ _____    ______ ____
ROOT
ATOM      1  C   UNL     1       6.928  -0.957   1.849  0.00  0.00    +0.218 A 
ATOM      2  C   UNL     1       8.258  -1.330   1.654  0.00  0.00    +0.071 A 
ATOM      3  C   UNL     1       8.998  -1.773   2.715  0.00  0.00    -0.033 A 
ATOM      4  C   UNL     1       8.384  -1.835   3.973  0.00  0.00    +0.045 A 
ATOM      5  C   UNL     1       8.828  -2.241   5.302  0.00  0.00    +0.070 A 
ATOM      6  N   UNL     1       7.823  -2.094   6.117  0.00  0.00    -0.169 NA
ATOM      7  N   UNL     1       6.709  -1.609   5.425  0.00  0.00    -0.214 N 
ATOM      8  C   UNL     1       7.037  -1.445   4.104  0.00  0.00    +0.167 A 
ATOM      9  N   UNL     1       6.365  -1.017   3.041  0.00  0.00    -0.193 NA
ATOM     10  C   UNL     1      10.203  -2.740   5.665  0.00  0.00    +0.068 C 
ATOM     11  C   UNL     1      10.438  -2.183   2.536  0.00  0.00    +0.045 C 
ENDROOT
BRANCH   7  12
ATOM     12  C   UNL     1       5.457  -1.336   5.990  0.00  0.00    +0.068 A 
ATOM     13  C   UNL     1       4.697  -0.275   5.516  0.00  0.00    +0.028 A 
ATOM     14  C   UNL     1       3.463  -0.008   6.075  0.00  0.00    +0.002 A 
ATOM     15  C   UNL     1       2.985  -0.795   7.107  0.00  0.00    +0.000 A 
ATOM     16  C   UNL     1       3.740  -1.851   7.582  0.00  0.00    +0.002 A 
ATOM     17  C   UNL     1       4.972  -2.128   7.022  0.00  0.00    +0.028 A 
ENDBRANCH   7  12
BRANCH   1  18
ATOM     18  O   UNL     1       6.199  -0.518   0.793  0.00  0.00    -0.464 OA
BRANCH  18  19
ATOM     19  C   UNL     1       4.844  -0.144   1.050  0.00  0.00    +0.257 C 
ATOM     20  C   UNL     1       4.785   1.342   1.410  0.00  0.00    +0.062 C 
BRANCH  19  22
ATOM     21  N   UNL     1       2.677  -0.211  -0.141  0.00  0.00    -0.282 N 
ATOM     22  C   UNL     1       4.012  -0.396  -0.181  0.00  0.00    +0.258 C 
ATOM     23  O   UNL     1       4.543  -0.765  -1.207  0.00  0.00    -0.271 OA
ATOM     24  H   UNL     1       2.260   0.142   0.660  0.00  0.00    +0.155 HD
BRANCH  21  30
ATOM     25  C   UNL     1       0.613  -1.039  -1.083  0.00  0.00    -0.026 A 
ATOM     26  C   UNL     1      -0.160  -1.346  -2.186  0.00  0.00    +0.005 A 
ATOM     27  C   UNL     1       0.341  -1.152  -3.460  0.00  0.00    +0.000 A 
ATOM     28  C   UNL     1       1.618  -0.649  -3.635  0.00  0.00    +0.002 A 
ATOM     29  C   UNL     1       2.396  -0.340  -2.537  0.00  0.00    +0.023 A 
ATOM     30  C   UNL     1       1.893  -0.529  -1.256  0.00  0.00    +0.037 A 
BRANCH  25  32
ATOM     31  C   UNL     1      -0.544   0.056   0.817  0.00  0.00    +0.009 C 
ATOM     32  C   UNL     1       0.066  -1.250   0.305  0.00  0.00    +0.033 C 
ENDBRANCH  25  32
ENDBRANCH  21  30
ENDBRANCH  19  22
ENDBRANCH  18  19
ENDBRANCH   1  18
TORSDOF 6
