REMARK  Name = ZINC63138462
REMARK  12 active torsions:
REMARK  status: ('A' for Active; 'I' for Inactive)
REMARK    1  A    between atoms: C_1  and  C_2
REMARK    2  A    between atoms: C_2  and  C_3
REMARK    3  A    between atoms: C_3  and  C_4
REMARK    4  A    between atoms: C_4  and  C_5
REMARK    5  A    between atoms: C_5  and  N_6
REMARK    6  A    between atoms: C_26  and  C_28
REMARK    7  A    between atoms: C_30  and  O_38
REMARK    8  A    between atoms: C_31  and  O_36
REMARK    9  A    between atoms: C_32  and  O_34
REMARK   10  A    between atoms: O_34  and  C_35
REMARK   11  A    between atoms: O_36  and  C_37
REMARK   12  A    between atoms: O_38  and  C_39
REMARK                            x       y       z     vdW  Elec       q    Type
REMARK                         _______ _______ _______ _____ _____    ______ ____
ROOT
ATOM      1  N   UNL     1      -2.867  -4.058   0.008  0.00  0.00    -0.291 N 
ATOM      2  C   UNL     1      -2.862  -4.738  -1.277  0.00  0.00    +0.203 C 
ATOM      3  C   UNL     1      -2.841  -6.223  -1.129  0.00  0.00    +0.234 C 
ATOM      4  O   UNL     1      -2.837  -6.889  -2.143  0.00  0.00    -0.274 OA
ATOM      5  N   UNL     1      -2.825  -6.872   0.041  0.00  0.00    -0.279 N 
ATOM      6  C   UNL     1      -2.810  -6.179   1.325  0.00  0.00    +0.167 C 
ATOM      7  C   UNL     1      -2.838  -4.694   1.178  0.00  0.00    +0.237 C 
ATOM      8  O   UNL     1      -2.839  -4.023   2.188  0.00  0.00    -0.274 OA
ATOM      9  C   UNL     1      -1.564  -6.592   2.130  0.00  0.00    +0.065 C 
ATOM     10  C   UNL     1      -1.469  -8.095   2.034  0.00  0.00    -0.034 C 
ATOM     11  C   UNL     1      -1.336  -9.029   2.967  0.00  0.00    -0.001 A 
ATOM     12  C   UNL     1      -1.120  -8.940   4.420  0.00  0.00    +0.010 A 
ATOM     13  C   UNL     1      -1.050 -10.121   5.090  0.00  0.00    +0.001 A 
ATOM     14  C   UNL     1      -1.171 -11.367   4.467  0.00  0.00    +0.002 A 
ATOM     15  C   UNL     1      -1.361 -11.543   3.135  0.00  0.00    +0.026 A 
ATOM     16  C   UNL     1      -1.444 -10.374   2.324  0.00  0.00    +0.043 A 
ATOM     17  N   UNL     1      -1.597 -10.252   1.038  0.00  0.00    -0.375 N 
ATOM     18  C   UNL     1      -1.544  -8.829   0.701  0.00  0.00    +0.131 C 
ATOM     19  C   UNL     1      -2.825  -8.352   0.011  0.00  0.00    +0.134 C 
ATOM     20  H   UNL     1      -1.724 -10.980   0.410  0.00  0.00    +0.160 HD
ENDROOT
BRANCH  19  21
ATOM     21  C   UNL     1      -2.847  -8.834  -1.417  0.00  0.00    -0.018 A 
ATOM     22  C   UNL     1      -4.051  -9.138  -2.023  0.00  0.00    +0.055 A 
ATOM     23  C   UNL     1      -4.076  -9.582  -3.336  0.00  0.00    +0.165 A 
ATOM     24  C   UNL     1      -2.888  -9.721  -4.043  0.00  0.00    +0.204 A 
ATOM     25  C   UNL     1      -1.679  -9.414  -3.430  0.00  0.00    +0.165 A 
ATOM     26  C   UNL     1      -1.663  -8.965  -2.118  0.00  0.00    +0.055 A 
BRANCH  25  27
ATOM     27  O   UNL     1      -0.513  -9.549  -4.118  0.00  0.00    -0.491 OA
ATOM     28  C   UNL     1       0.691  -9.215  -3.424  0.00  0.00    +0.277 C 
ENDBRANCH  25  27
BRANCH  24  29
ATOM     29  O   UNL     1      -2.907 -10.158  -5.332  0.00  0.00    -0.488 OA
ATOM     30  C   UNL     1      -3.017  -9.163  -6.352  0.00  0.00    +0.277 C 
ENDBRANCH  24  29
BRANCH  23  31
ATOM     31  O   UNL     1      -5.261  -9.882  -3.932  0.00  0.00    -0.491 OA
ATOM     32  C   UNL     1      -6.443  -9.716  -3.145  0.00  0.00    +0.277 C 
ENDBRANCH  23  31
ENDBRANCH  19  21
BRANCH   1  33
ATOM     33  C   UNL     1      -2.901  -2.594   0.016  0.00  0.00    +0.108 C 
BRANCH  33  34
ATOM     34  C   UNL     1      -1.470  -2.051   0.001  0.00  0.00    +0.019 C 
BRANCH  34  35
ATOM     35  C   UNL     1      -1.505  -0.521   0.010  0.00  0.00    +0.001 C 
BRANCH  35  37
ATOM     36  C   UNL     1      -0.109   1.551   0.003  0.00  0.00    +0.004 C 
ATOM     37  C   UNL     1      -0.074   0.021  -0.005  0.00  0.00    -0.003 C 
ENDBRANCH  35  37
ENDBRANCH  34  35
ENDBRANCH  33  34
ENDBRANCH   1  33
TORSDOF 8
