REMARK  Name = ZINC05248658
REMARK  11 active torsions:
REMARK  status: ('A' for Active; 'I' for Inactive)
REMARK    1  A    between atoms: C_1  and  C_2
REMARK    2  A    between atoms: C_2  and  O_3
REMARK    3  A    between atoms: O_3  and  C_4
REMARK    4  A    between atoms: C_7  and  C_10
REMARK    5  A    between atoms: C_17  and  N_33
REMARK    6  A    between atoms: C_18  and  C_31
REMARK    7  A    between atoms: C_19  and  C_21
REMARK    8  A    between atoms: C_24  and  O_27
REMARK    9  A    between atoms: O_27  and  C_28
REMARK   10  A    between atoms: C_28  and  C_29
REMARK   11  A    between atoms: C_28  and  C_30
REMARK                            x       y       z     vdW  Elec       q    Type
REMARK                         _______ _______ _______ _____ _____    ______ ____
ROOT
ATOM      1  C   UNL     1       1.208  -6.798   2.108  0.00  0.00    +0.100 A 
ATOM      2  C   UNL     1       2.529  -7.115   2.437  0.00  0.00    +0.054 A 
ATOM      3  C   UNL     1       2.635  -8.474   2.498  0.00  0.00    +0.223 A 
ATOM      4  N   UNL     1       1.422  -8.994   2.217  0.00  0.00    -0.246 N 
ATOM      5  H   UNL     1       1.199  -9.937   2.189  0.00  0.00    +0.192 HD
ATOM      6  N   UNL     1       0.539  -7.929   1.980  0.00  0.00    -0.171 NA
ATOM      7  O   UNL     1       3.799  -9.105   2.794  0.00  0.00    -0.423 OA
ATOM      8  C   UNL     1       4.932  -8.374   2.763  0.00  0.00    +0.200 C 
ATOM      9  C   UNL     1       4.954  -7.024   2.716  0.00  0.00    +0.098 C 
ATOM     10  C   UNL     1       3.694  -6.195   2.698  0.00  0.00    +0.102 C 
ENDROOT
BRANCH   1  14
ATOM     11  C   UNL     1      -0.381  -2.882   1.619  0.00  0.00    +0.121 A 
ATOM     12  C   UNL     1       0.867  -3.194   1.097  0.00  0.00    +0.046 A 
ATOM     13  C   UNL     1       1.385  -4.463   1.253  0.00  0.00    +0.013 A 
ATOM     14  C   UNL     1       0.654  -5.432   1.938  0.00  0.00    +0.003 A 
ATOM     15  C   UNL     1      -0.598  -5.116   2.462  0.00  0.00    +0.013 A 
ATOM     16  C   UNL     1      -1.109  -3.845   2.306  0.00  0.00    +0.046 A 
BRANCH  11  17
ATOM     17  O   UNL     1      -0.888  -1.631   1.463  0.00  0.00    -0.492 OA
BRANCH  17  19
ATOM     18  C   UNL     1      -0.818   0.651   0.673  0.00  0.00    +0.048 C 
ATOM     19  C   UNL     1      -0.087  -0.691   0.746  0.00  0.00    +0.225 C 
ENDBRANCH  17  19
ENDBRANCH  11  17
ENDBRANCH   1  14
BRANCH  10  20
ATOM     20  C   UNL     1       3.515  -5.513   4.030  0.00  0.00    -0.034 A 
ATOM     21  C   UNL     1       3.370  -6.269   5.179  0.00  0.00    +0.008 A 
ATOM     22  C   UNL     1       3.205  -5.646   6.401  0.00  0.00    +0.046 A 
ATOM     23  C   UNL     1       3.185  -4.261   6.475  0.00  0.00    +0.121 A 
ATOM     24  C   UNL     1       3.331  -3.504   5.321  0.00  0.00    +0.046 A 
ATOM     25  C   UNL     1       3.501  -4.132   4.102  0.00  0.00    +0.008 A 
BRANCH  23  26
ATOM     26  O   UNL     1       3.023  -3.645   7.676  0.00  0.00    -0.489 OA
BRANCH  26  27
ATOM     27  C   UNL     1       2.771  -4.484   8.805  0.00  0.00    +0.167 C 
ATOM     28  C   UNL     1       4.098  -5.006   9.359  0.00  0.00    +0.051 C 
ATOM     29  C   UNL     1       2.049  -3.678   9.887  0.00  0.00    +0.051 C 
ENDBRANCH  26  27
ENDBRANCH  23  26
ENDBRANCH  10  20
BRANCH   8  30
ATOM     30  N   UNL     1       6.132  -9.040   2.780  0.00  0.00    -0.328 N 
ATOM     31  H   UNL     1       6.148 -10.009   2.814  0.00  0.00    +0.145 HD
ATOM     32  H   UNL     1       6.964  -8.542   2.759  0.00  0.00    +0.145 HD
ENDBRANCH   8  30
BRANCH   9  33
ATOM     33  C   UNL     1       6.220  -6.355   2.683  0.00  0.00    +0.101 C 
ATOM     34  N   UNL     1       7.224  -5.825   2.657  0.00  0.00    -0.191 NA
ENDBRANCH   9  33
TORSDOF 8
