REMARK  Name = ZINC39911865
REMARK  10 active torsions:
REMARK  status: ('A' for Active; 'I' for Inactive)
REMARK    1  A    between atoms: C_1  and  C_2
REMARK    2  A    between atoms: C_2  and  C_3
REMARK    3  A    between atoms: C_3  and  C_4
REMARK    4  A    between atoms: C_4  and  N_5
REMARK    5  A    between atoms: C_6  and  C_25
REMARK    6  A    between atoms: C_9  and  C_16
REMARK    7  A    between atoms: C_18  and  C_24
REMARK    8  A    between atoms: C_20  and  C_23
REMARK    9  A    between atoms: C_21  and  O_22
REMARK   10  A    between atoms: C_28  and  C_31
REMARK                            x       y       z     vdW  Elec       q    Type
REMARK                         _______ _______ _______ _____ _____    ______ ____
ROOT
ATOM      1  N   UNL     1       1.425  -2.500  -2.470  0.00  0.00    -0.285 N 
ATOM      2  C   UNL     1       0.792  -2.783  -3.765  0.00  0.00    +0.141 C 
ATOM      3  C   UNL     1       1.897  -3.236  -4.679  0.00  0.00    +0.035 A 
ATOM      4  C   UNL     1       2.268  -3.677  -5.954  0.00  0.00    +0.102 A 
ATOM      5  N   UNL     1       3.569  -3.885  -5.937  0.00  0.00    -0.173 NA
ATOM      6  N   UNL     1       4.058  -3.619  -4.778  0.00  0.00    -0.272 N 
ATOM      7  H   UNL     1       4.994  -3.700  -4.536  0.00  0.00    +0.189 HD
ATOM      8  C   UNL     1       3.063  -3.205  -3.938  0.00  0.00    +0.126 A 
ATOM      9  C   UNL     1       2.743  -2.744  -2.583  0.00  0.00    +0.265 C 
ATOM     10  O   UNL     1       3.554  -2.603  -1.687  0.00  0.00    -0.268 OA
ENDROOT
BRANCH   4  11
ATOM     11  C   UNL     1       1.361  -3.875  -7.112  0.00  0.00    +0.044 A 
ATOM     12  C   UNL     1      -0.000  -3.610  -6.989  0.00  0.00    +0.017 A 
ATOM     13  C   UNL     1      -0.839  -3.795  -8.069  0.00  0.00    -0.049 A 
ATOM     14  C   UNL     1      -0.332  -4.245  -9.276  0.00  0.00    +0.010 A 
ATOM     15  C   UNL     1       1.017  -4.511  -9.409  0.00  0.00    -0.008 A 
ATOM     16  C   UNL     1       1.871  -4.323  -8.334  0.00  0.00    +0.129 A 
ATOM     17  C   UNL     1       1.562  -5.000 -10.727  0.00  0.00    +0.047 C 
ATOM     18  C   UNL     1      -2.312  -3.508  -7.934  0.00  0.00    +0.044 C 
BRANCH  16  19
ATOM     19  O   UNL     1       3.199  -4.580  -8.466  0.00  0.00    -0.506 OA
ATOM     20  H   UNL     1       3.447  -5.490  -8.254  0.00  0.00    +0.292 HD
ENDBRANCH  16  19
ENDBRANCH   4  11
BRANCH   2  21
ATOM     21  C   UNL     1       0.146  -1.535  -4.310  0.00  0.00    -0.022 A 
ATOM     22  C   UNL     1       0.784  -0.315  -4.186  0.00  0.00    +0.006 A 
ATOM     23  C   UNL     1       0.191   0.829  -4.685  0.00  0.00    +0.004 A 
ATOM     24  C   UNL     1      -1.040   0.754  -5.310  0.00  0.00    -0.050 A 
ATOM     25  C   UNL     1      -1.677  -0.466  -5.436  0.00  0.00    +0.004 A 
ATOM     26  C   UNL     1      -1.083  -1.611  -4.940  0.00  0.00    +0.006 A 
ATOM     27  C   UNL     1      -1.687   2.002  -5.854  0.00  0.00    +0.044 C 
ENDBRANCH   2  21
BRANCH   1  28
ATOM     28  C   UNL     1       0.739  -2.027  -1.265  0.00  0.00    +0.109 C 
BRANCH  28  29
ATOM     29  C   UNL     1       0.718  -0.497  -1.257  0.00  0.00    +0.019 C 
BRANCH  29  31
ATOM     30  C   UNL     1      -0.019   1.526   0.010  0.00  0.00    +0.004 C 
ATOM     31  C   UNL     1       0.002  -0.004   0.002  0.00  0.00    -0.002 C 
ENDBRANCH  29  31
ENDBRANCH  28  29
ENDBRANCH   1  28
TORSDOF 6
