REMARK  Name = ZINC24274146
REMARK  12 active torsions:
REMARK  status: ('A' for Active; 'I' for Inactive)
REMARK    1  A    between atoms: C_1  and  C_2
REMARK    2  A    between atoms: C_2  and  O_3
REMARK    3  A    between atoms: O_3  and  C_4
REMARK    4  A    between atoms: C_4  and  C_6
REMARK    5  A    between atoms: C_10  and  N_11
REMARK    6  A    between atoms: C_12  and  C_14
REMARK    7  A    between atoms: C_14  and  C_16
REMARK    8  A    between atoms: C_14  and  S_17
REMARK    9  A    between atoms: S_17  and  C_18
REMARK   10  A    between atoms: C_21  and  S_23
REMARK   11  A    between atoms: S_23  and  C_24
REMARK   12  A    between atoms: C_24  and  C_25
REMARK                            x       y       z     vdW  Elec       q    Type
REMARK                         _______ _______ _______ _____ _____    ______ ____
ROOT
ATOM      1  N   UNL     1       5.273  -1.756   7.854  0.00  0.00    -0.278 N 
ATOM      2  C   UNL     1       3.955  -1.477   7.797  0.00  0.00    +0.231 C 
ATOM      3  O   UNL     1       3.294  -1.464   8.814  0.00  0.00    -0.274 OA
ATOM      4  H   UNL     1       5.873  -1.768   6.933  0.00  0.00    +0.155 HD
ENDROOT
BRANCH   1   9
ATOM      5  C   UNL     1       7.200  -2.337   9.334  0.00  0.00    +0.091 A 
ATOM      6  C   UNL     1       7.576  -2.576  10.718  0.00  0.00    -0.021 A 
ATOM      7  C   UNL     1       6.569  -2.477  11.612  0.00  0.00    -0.004 A 
ATOM      8  S   UNL     1       5.143  -2.067  10.646  0.00  0.00    -0.077 S 
ATOM      9  C   UNL     1       5.872  -2.026   9.075  0.00  0.00    +0.086 A 
ATOM     10  C   UNL     1       6.654  -2.675  13.094  0.00  0.00    +0.043 C 
ATOM     11  C   UNL     1       7.983  -3.376  13.412  0.00  0.00    +0.005 C 
ATOM     12  C   UNL     1       9.111  -2.658  12.666  0.00  0.00    +0.005 C 
ATOM     13  C   UNL     1       8.991  -2.921  11.164  0.00  0.00    +0.037 C 
BRANCH   5  14
ATOM     14  C   UNL     1       8.186  -2.418   8.255  0.00  0.00    +0.342 C 
ATOM     15  O   UNL     1       8.812  -1.427   7.928  0.00  0.00    -0.245 OA
BRANCH  14  16
ATOM     16  O   UNL     1       8.400  -3.590   7.623  0.00  0.00    -0.461 OA
BRANCH  16  18
ATOM     17  C   UNL     1       9.496  -5.002   5.968  0.00  0.00    +0.048 C 
ATOM     18  C   UNL     1       9.393  -3.596   6.562  0.00  0.00    +0.229 C 
ENDBRANCH  16  18
ENDBRANCH  14  16
ENDBRANCH   5  14
ENDBRANCH   1   9
BRANCH   2  19
ATOM     19  C   UNL     1       3.304  -1.183   6.471  0.00  0.00    +0.136 C 
ATOM     20  C   UNL     1       2.906  -2.497   5.795  0.00  0.00    +0.029 C 
BRANCH  19  21
ATOM     21  S   UNL     1       1.825  -0.167   6.735  0.00  0.00    -0.084 S 
BRANCH  21  22
ATOM     22  C   UNL     1       1.270   0.211   5.106  0.00  0.00    +0.160 A 
ATOM     23  N   UNL     1       1.785  -0.144   3.944  0.00  0.00    -0.134 NA
ATOM     24  N   UNL     1       1.186   0.267   2.776  0.00  0.00    -0.134 NA
ATOM     25  C   UNL     1       0.099   1.013   2.823  0.00  0.00    +0.160 A 
ATOM     26  S   UNL     1      -0.135   1.184   4.586  0.00  0.00    -0.033 S 
BRANCH  25  27
ATOM     27  S   UNL     1      -0.862   1.671   1.500  0.00  0.00    -0.088 S 
BRANCH  27  28
ATOM     28  C   UNL     1      -0.013   1.086   0.008  0.00  0.00    +0.171 C 
BRANCH  28  29
ATOM     29  C   UNL     1      -0.742   1.585  -1.213  0.00  0.00    +0.221 C 
ATOM     30  O   UNL     1      -1.736   2.268  -1.088  0.00  0.00    -0.275 OA
ATOM     31  N   UNL     1      -0.288   1.272  -2.443  0.00  0.00    -0.329 N 
ATOM     32  H   UNL     1      -0.820   1.637  -3.334  0.00  0.00    +0.145 HD
ATOM     33  H   UNL     1       0.614   0.653  -2.556  0.00  0.00    +0.145 HD
ENDBRANCH  28  29
ENDBRANCH  27  28
ENDBRANCH  25  27
ENDBRANCH  21  22
ENDBRANCH  19  21
ENDBRANCH   2  19
TORSDOF 10
