REMARK  Name = ZINC66578933
REMARK  4 active torsions:
REMARK  status: ('A' for Active; 'I' for Inactive)
REMARK    1  A    between atoms: C_3  and  N_11
REMARK    2  A    between atoms: C_6  and  N_7
REMARK    3  A    between atoms: N_11  and  S_12
REMARK    4  A    between atoms: S_12  and  C_15
REMARK                            x       y       z     vdW  Elec       q    Type
REMARK                         _______ _______ _______ _____ _____    ______ ____
ROOT
ATOM      1  C   UNL     1      -0.013   1.374   0.194  0.00  0.00    +0.025 A 
ATOM      2  C   UNL     1       1.172   2.083   0.193  0.00  0.00    +0.028 A 
ATOM      3  C   UNL     1       2.377   1.420   0.005  0.00  0.00    +0.074 A 
ATOM      4  C   UNL     1       2.391   0.044  -0.181  0.00  0.00    +0.028 A 
ATOM      5  C   UNL     1       1.206  -0.665  -0.180  0.00  0.00    +0.025 A 
ATOM      6  C   UNL     1       0.001  -0.002   0.008  0.00  0.00    +0.035 A 
ENDROOT
BRANCH   6   7
ATOM      7  N   UNL     1      -1.202  -0.721   0.010  0.00  0.00    -0.270 N 
ATOM      8  C   UNL     1      -2.328  -0.155  -0.469  0.00  0.00    +0.301 C 
ATOM      9  O   UNL     1      -2.281   0.943  -0.991  0.00  0.00    -0.253 OA
ATOM     10  N   UNL     1      -3.504  -0.804  -0.369  0.00  0.00    -0.313 N 
ATOM     11  H   UNL     1      -1.225  -1.627   0.356  0.00  0.00    +0.156 HD
ATOM     12  H   UNL     1      -3.542  -1.679   0.047  0.00  0.00    +0.146 HD
ATOM     13  H   UNL     1      -4.314  -0.396  -0.714  0.00  0.00    +0.146 HD
ENDBRANCH   6   7
BRANCH   3  14
ATOM     14  N   UNL     1       3.578   2.138   0.003  0.00  0.00    -0.102 NA
BRANCH  14  15
ATOM     15  S   UNL     1       5.016   1.347  -0.221  0.00  0.00    +0.065 S 
ATOM     16  O   UNL     1       5.135   0.487   0.903  0.00  0.00    -0.153 OA
ATOM     17  O   UNL     1       4.935   0.814  -1.536  0.00  0.00    -0.153 OA
BRANCH  15  18
ATOM     18  C   UNL     1       6.279   2.647  -0.150  0.00  0.00    +0.153 C 
ATOM     19  C   UNL     1       5.948   3.736  -1.173  0.00  0.00    +0.028 C 
ATOM     20  C   UNL     1       7.014   4.832  -1.113  0.00  0.00    +0.002 C 
ATOM     21  C   UNL     1       8.383   4.230  -1.434  0.00  0.00    +0.000 C 
ATOM     22  C   UNL     1       8.714   3.142  -0.411  0.00  0.00    +0.002 C 
ATOM     23  C   UNL     1       7.649   2.045  -0.470  0.00  0.00    +0.028 C 
ENDBRANCH  15  18
ENDBRANCH  14  15
ENDBRANCH   3  14
TORSDOF 4
