REMARK  Name = ZINC01574218
REMARK  6 active torsions:
REMARK  status: ('A' for Active; 'I' for Inactive)
REMARK    1  A    between atoms: C_1  and  C_2
REMARK    2  A    between atoms: C_5  and  S_8
REMARK    3  A    between atoms: S_8  and  N_11
REMARK    4  A    between atoms: N_14  and  C_15
REMARK    5  A    between atoms: C_20  and  S_21
REMARK    6  A    between atoms: S_21  and  C_22
REMARK                            x       y       z     vdW  Elec       q    Type
REMARK                         _______ _______ _______ _____ _____    ______ ____
ROOT
ATOM      1  N   UNL     1       0.047  -0.150   0.840  0.00  0.00    -0.169 N 
ATOM      2  C   UNL     1      -1.106  -0.841   0.745  0.00  0.00    +0.323 C 
ATOM      3  O   UNL     1      -2.129  -0.385   1.219  0.00  0.00    -0.251 OA
ATOM      4  N   UNL     1      -1.127  -2.036   0.123  0.00  0.00    -0.267 N 
ATOM      5  H   UNL     1       0.863  -0.514   0.461  0.00  0.00    +0.178 HD
ATOM      6  H   UNL     1      -0.328  -2.368  -0.317  0.00  0.00    +0.156 HD
ENDROOT
BRANCH   4   7
ATOM      7  C   UNL     1      -2.301  -2.801   0.113  0.00  0.00    +0.048 A 
ATOM      8  C   UNL     1      -3.538  -2.176   0.075  0.00  0.00    +0.024 A 
ATOM      9  C   UNL     1      -4.696  -2.932   0.065  0.00  0.00    +0.002 A 
ATOM     10  C   UNL     1      -4.625  -4.313   0.094  0.00  0.00    +0.001 A 
ATOM     11  C   UNL     1      -3.397  -4.945   0.132  0.00  0.00    +0.016 A 
ATOM     12  C   UNL     1      -2.229  -4.194   0.136  0.00  0.00    +0.030 A 
BRANCH  12  13
ATOM     13  S   UNL     1      -0.662  -4.998   0.178  0.00  0.00    -0.115 S 
BRANCH  13  14
ATOM     14  C   UNL     1      -1.073  -6.764   0.159  0.00  0.00    +0.082 C 
ATOM     15  C   UNL     1      -1.645  -7.196   1.526  0.00  0.00    +0.024 C 
ATOM     16  C   UNL     1      -1.106  -8.634   1.672  0.00  0.00    +0.037 C 
ATOM     17  C   UNL     1       0.161  -8.668   0.844  0.00  0.00    -0.043 A 
ATOM     18  C   UNL     1       0.179  -7.593  -0.026  0.00  0.00    -0.031 A 
ATOM     19  C   UNL     1       1.250  -7.421  -0.886  0.00  0.00    +0.005 A 
ATOM     20  C   UNL     1       2.300  -8.319  -0.877  0.00  0.00    +0.000 A 
ATOM     21  C   UNL     1       2.282  -9.394  -0.008  0.00  0.00    +0.000 A 
ATOM     22  C   UNL     1       1.214  -9.567   0.851  0.00  0.00    +0.004 A 
ENDBRANCH  13  14
ENDBRANCH  12  13
ENDBRANCH   4   7
BRANCH   1  23
ATOM     23  S   UNL     1       0.072   1.319   1.603  0.00  0.00    +0.076 S 
ATOM     24  O   UNL     1       1.418   1.775   1.563  0.00  0.00    -0.150 OA
ATOM     25  O   UNL     1      -1.005   2.075   1.066  0.00  0.00    -0.150 OA
BRANCH  23  30
ATOM     26  C   UNL     1      -1.240   0.337   7.410  0.00  0.00    +0.044 C 
ATOM     27  C   UNL     1      -0.912   0.582   5.960  0.00  0.00    -0.050 A 
ATOM     28  C   UNL     1       0.402   0.550   5.533  0.00  0.00    +0.005 A 
ATOM     29  C   UNL     1       0.703   0.775   4.203  0.00  0.00    +0.029 A 
ATOM     30  C   UNL     1      -0.311   1.032   3.299  0.00  0.00    +0.109 A 
ATOM     31  C   UNL     1      -1.625   1.069   3.726  0.00  0.00    +0.029 A 
ATOM     32  C   UNL     1      -1.926   0.838   5.056  0.00  0.00    +0.005 A 
ENDBRANCH  23  30
ENDBRANCH   1  23
TORSDOF 5
