REMARK  Name = ZINC05506488
REMARK  4 active torsions:
REMARK  status: ('A' for Active; 'I' for Inactive)
REMARK    1  A    between atoms: C_4  and  S_10
REMARK    2  A    between atoms: C_6  and  N_7
REMARK    3  A    between atoms: S_10  and  N_13
REMARK    4  A    between atoms: N_13  and  C_14
REMARK                            x       y       z     vdW  Elec       q    Type
REMARK                         _______ _______ _______ _____ _____    ______ ____
ROOT
ATOM      1  S   UNL     1      -1.534   2.161   0.124  0.00  0.00    +0.060 S 
ATOM      2  O   UNL     1      -2.204   1.695   1.288  0.00  0.00    -0.153 OA
ATOM      3  O   UNL     1      -1.257   3.538  -0.095  0.00  0.00    -0.153 OA
ENDROOT
BRANCH   1   7
ATOM      4  C   UNL     1      -3.970   0.752  -3.422  0.00  0.00    +0.034 A 
ATOM      5  C   UNL     1      -2.799   1.458  -3.626  0.00  0.00    +0.024 A 
ATOM      6  C   UNL     1      -2.058   1.894  -2.543  0.00  0.00    +0.067 A 
ATOM      7  C   UNL     1      -2.482   1.613  -1.256  0.00  0.00    +0.126 A 
ATOM      8  C   UNL     1      -3.652   0.906  -1.054  0.00  0.00    +0.062 A 
ATOM      9  C   UNL     1      -4.396   0.475  -2.137  0.00  0.00    +0.128 A 
ATOM     10 CL   UNL     1      -0.591   2.788  -2.797  0.00  0.00    -0.082 Cl
BRANCH   9  11
ATOM     11  N   UNL     1      -5.650  -0.281  -1.920  0.00  0.00    +0.056 N 
ATOM     12  O   UNL     1      -6.026  -0.524  -0.787  0.00  0.00    -0.126 OA
ATOM     13  O   UNL     1      -6.305  -0.660  -2.874  0.00  0.00    -0.126 OA
ENDBRANCH   9  11
ENDBRANCH   1   7
BRANCH   1  14
ATOM     14  N   UNL     1      -0.081   1.370   0.066  0.00  0.00    -0.187 NA
ATOM     15  H   UNL     1       0.738   1.869  -0.085  0.00  0.00    +0.148 HD
BRANCH  14  16
ATOM     16  C   UNL     1      -0.031  -0.084   0.235  0.00  0.00    +0.077 C 
ATOM     17  C   UNL     1       0.292  -0.417   1.693  0.00  0.00    +0.020 C 
ATOM     18  C   UNL     1       0.344  -1.936   1.870  0.00  0.00    +0.002 C 
ATOM     19  C   UNL     1       1.429  -2.518   0.962  0.00  0.00    +0.000 C 
ATOM     20  C   UNL     1       1.106  -2.185  -0.497  0.00  0.00    +0.002 C 
ATOM     21  C   UNL     1       1.054  -0.666  -0.673  0.00  0.00    +0.020 C 
ENDBRANCH  14  16
ENDBRANCH   1  14
TORSDOF 4
