REMARK  Name = ZINC33676884
REMARK  9 active torsions:
REMARK  status: ('A' for Active; 'I' for Inactive)
REMARK    1  A    between atoms: C_1  and  C_2
REMARK    2  A    between atoms: C_2  and  C_3
REMARK    3  A    between atoms: C_3  and  C_5
REMARK    4  A    between atoms: C_3  and  C_11
REMARK    5  A    between atoms: N_21  and  C_30
REMARK    6  A    between atoms: N_23  and  C_24
REMARK    7  A    between atoms: C_30  and  C_31
REMARK    8  A    between atoms: N_33  and  C_34
REMARK    9  A    between atoms: C_34  and  C_35
REMARK                            x       y       z     vdW  Elec       q    Type
REMARK                         _______ _______ _______ _____ _____    ______ ____
ROOT
ATOM      1  C   UNL     1      -2.243   1.022   1.494  0.00  0.00    +0.223 C 
ATOM      2  O   UNL     1      -2.571   0.475   2.526  0.00  0.00    -0.275 OA
ATOM      3  N   UNL     1      -3.122   1.129   0.479  0.00  0.00    -0.301 N 
ATOM      4  C   UNL     1      -2.779   1.890  -0.731  0.00  0.00    +0.110 C 
ATOM      5  C   UNL     1      -2.984   0.981  -1.953  0.00  0.00    +0.054 C 
ATOM      6  C   UNL     1      -4.402   0.418  -1.932  0.00  0.00    +0.115 C 
ATOM      7  C   UNL     1      -4.637  -0.402  -0.667  0.00  0.00    +0.054 C 
ATOM      8  C   UNL     1      -4.443   0.492   0.562  0.00  0.00    +0.110 C 
ATOM      9  C   UNL     1      -5.413   1.534  -2.032  0.00  0.00    +0.241 C 
ATOM     10  O   UNL     1      -5.383   2.576  -1.413  0.00  0.00    -0.273 OA
ATOM     11  N   UNL     1      -6.357   1.174  -2.927  0.00  0.00    -0.275 N 
ATOM     12  C   UNL     1      -6.054  -0.164  -3.450  0.00  0.00    +0.217 C 
ATOM     13  N   UNL     1      -4.630  -0.421  -3.128  0.00  0.00    -0.300 N 
ENDROOT
BRANCH  13  14
ATOM     14  C   UNL     1      -4.418  -1.771  -2.841  0.00  0.00    +0.032 A 
ATOM     15  C   UNL     1      -3.197  -2.189  -2.327  0.00  0.00    +0.023 A 
ATOM     16  C   UNL     1      -2.991  -3.524  -2.040  0.00  0.00    +0.002 A 
ATOM     17  C   UNL     1      -3.996  -4.446  -2.273  0.00  0.00    +0.000 A 
ATOM     18  C   UNL     1      -5.210  -4.034  -2.789  0.00  0.00    +0.002 A 
ATOM     19  C   UNL     1      -5.424  -2.699  -3.074  0.00  0.00    +0.023 A 
ENDBRANCH  13  14
BRANCH   1  20
ATOM     20  C   UNL     1      -0.851   1.583   1.349  0.00  0.00    +0.105 C 
BRANCH  20  21
ATOM     21  C   UNL     1      -0.813   2.982   1.907  0.00  0.00    -0.036 A 
ATOM     22  C   UNL     1      -1.131   3.207   3.233  0.00  0.00    +0.004 A 
ATOM     23  C   UNL     1      -1.091   4.490   3.746  0.00  0.00    +0.000 A 
ATOM     24  C   UNL     1      -0.742   5.550   2.930  0.00  0.00    +0.000 A 
ATOM     25  C   UNL     1      -0.429   5.326   1.602  0.00  0.00    +0.000 A 
ATOM     26  C   UNL     1      -0.464   4.042   1.091  0.00  0.00    +0.004 A 
ENDBRANCH  20  21
BRANCH  20  28
ATOM     27  C   UNL     1       0.197  -0.682   1.464  0.00  0.00    +0.005 C 
ATOM     28  C   UNL     1       0.137   0.701   2.115  0.00  0.00    +0.014 C 
ENDBRANCH  20  28
ENDBRANCH   1  20
BRANCH  11  29
ATOM     29  C   UNL     1      -7.507   1.993  -3.317  0.00  0.00    +0.205 C 
BRANCH  29  30
ATOM     30  C   UNL     1      -8.670   1.691  -2.408  0.00  0.00    +0.230 C 
ATOM     31  O   UNL     1      -8.550   0.873  -1.521  0.00  0.00    -0.274 OA
ATOM     32  N   UNL     1      -9.844   2.331  -2.580  0.00  0.00    -0.314 N 
ATOM     33  H   UNL     1      -9.953   3.073  -3.384  0.00  0.00    +0.149 HD
BRANCH  32  34
ATOM     34  C   UNL     1     -10.974   2.038  -1.695  0.00  0.00    +0.107 C 
BRANCH  34  35
ATOM     35  C   UNL     1     -12.176   2.893  -2.103  0.00  0.00    +0.006 C 
ATOM     36  C   UNL     1     -11.852   4.371  -1.870  0.00  0.00    +0.005 C 
ATOM     37  C   UNL     1     -13.054   5.226  -2.278  0.00  0.00    +0.000 C 
ATOM     38  C   UNL     1     -14.269   4.832  -1.437  0.00  0.00    +0.000 C 
ATOM     39  C   UNL     1     -14.593   3.354  -1.669  0.00  0.00    +0.000 C 
ATOM     40  C   UNL     1     -13.391   2.499  -1.261  0.00  0.00    +0.005 C 
ENDBRANCH  34  35
ENDBRANCH  32  34
ENDBRANCH  29  30
ENDBRANCH  11  29
TORSDOF 8
