REMARK  Name = ZINC38545740
REMARK  7 active torsions:
REMARK  status: ('A' for Active; 'I' for Inactive)
REMARK    1  A    between atoms: C_1  and  C_2
REMARK    2  A    between atoms: C_7  and  C_9
REMARK    3  A    between atoms: C_7  and  C_10
REMARK    4  A    between atoms: N_11  and  C_13
REMARK    5  A    between atoms: C_13  and  C_14
REMARK    6  A    between atoms: C_15  and  O_31
REMARK    7  A    between atoms: C_23  and  C_25
REMARK                            x       y       z     vdW  Elec       q    Type
REMARK                         _______ _______ _______ _____ _____    ______ ____
ROOT
ATOM      1  C   UNL     1       1.356  -2.430  -3.408  0.00  0.00    +0.020 A 
ATOM      2  C   UNL     1       0.799  -2.592  -4.667  0.00  0.00    +0.122 A 
ATOM      3  C   UNL     1       1.510  -2.221  -5.807  0.00  0.00    +0.046 A 
ATOM      4  C   UNL     1       2.769  -1.705  -5.701  0.00  0.00    +0.015 A 
ATOM      5  C   UNL     1       3.359  -1.557  -4.437  0.00  0.00    +0.019 A 
ATOM      6  C   UNL     1       2.628  -1.896  -3.281  0.00  0.00    +0.144 A 
ATOM      7  O   UNL     1       3.163  -1.684  -2.054  0.00  0.00    -0.421 OA
ATOM      8  C   UNL     1       4.513  -1.697  -1.966  0.00  0.00    +0.347 A 
ATOM      9  O   UNL     1       5.076  -2.194  -1.008  0.00  0.00    -0.244 OA
ATOM     10  C   UNL     1       5.278  -1.091  -3.068  0.00  0.00    +0.085 A 
ATOM     11  C   UNL     1       4.680  -1.054  -4.313  0.00  0.00    +0.028 A 
ENDROOT
BRANCH  10  12
ATOM     12  C   UNL     1       6.640  -0.551  -2.852  0.00  0.00    +0.078 A 
ATOM     13  C   UNL     1       7.219  -0.620  -1.585  0.00  0.00    +0.028 A 
ATOM     14  C   UNL     1       8.492  -0.112  -1.399  0.00  0.00    +0.004 A 
ATOM     15  C   UNL     1       9.147   0.450  -2.487  0.00  0.00    +0.020 A 
ATOM     16  C   UNL     1       8.514   0.486  -3.716  0.00  0.00    +0.111 A 
ATOM     17  N   UNL     1       7.303  -0.011  -3.868  0.00  0.00    -0.255 NA
ENDBRANCH  10  12
BRANCH   2  18
ATOM     18  O   UNL     1      -0.446  -3.116  -4.791  0.00  0.00    -0.506 OA
ATOM     19  H   UNL     1      -1.154  -2.457  -4.779  0.00  0.00    +0.292 HD
ENDBRANCH   2  18
BRANCH   1  20
ATOM     20  C   UNL     1       0.577  -2.827  -2.181  0.00  0.00    -0.035 C 
BRANCH  20  30
ATOM     21  C   UNL     1      -0.019   1.532   0.011  0.00  0.00    +0.009 C 
ATOM     22  C   UNL     1       0.002  -0.004   0.002  0.00  0.00    -0.048 C 
ATOM     23  C   UNL     1      -1.426  -0.615   0.003  0.00  0.00    -0.011 C 
ATOM     24  C   UNL     1      -1.100  -2.018  -0.584  0.00  0.00    -0.067 C 
ATOM     25  C   UNL     1      -0.396  -2.818   0.494  0.00  0.00    -0.009 C 
ATOM     26  C   UNL     1       0.654  -2.101   1.313  0.00  0.00    -0.036 C 
ATOM     27  C   UNL     1       0.727  -0.591   1.214  0.00  0.00    +0.011 C 
ATOM     28  C   UNL     1       2.041  -2.692   0.990  0.00  0.00    +0.011 C 
ATOM     29  C   UNL     1       0.383  -2.444   2.801  0.00  0.00    +0.011 C 
ATOM     30  N   UNL     1      -0.211  -1.692  -1.717  0.00  0.00    +0.385 N 
ATOM     31  C   UNL     1       0.649  -0.577  -1.280  0.00  0.00    -0.071 C 
ATOM     32  H   UNL     1      -0.788  -1.358  -2.491  0.00  0.00    -0.081 HD
ENDBRANCH  20  30
ENDBRANCH   1  20
TORSDOF 4
