REMARK  Name = ZINC14012042
REMARK  6 active torsions:
REMARK  status: ('A' for Active; 'I' for Inactive)
REMARK    1  A    between atoms: C_1  and  C_2
REMARK    2  A    between atoms: C_5  and  N_9
REMARK    3  A    between atoms: C_6  and  C_8
REMARK    4  A    between atoms: C_10  and  C_12
REMARK    5  A    between atoms: C_12  and  C_13
REMARK    6  A    between atoms: N_24  and  C_27
REMARK                            x       y       z     vdW  Elec       q    Type
REMARK                         _______ _______ _______ _____ _____    ______ ____
ROOT
ATOM      1  C   UNL     1      -4.919   2.583   0.082  0.00  0.00    +0.112 C 
ATOM      2  C   UNL     1      -5.590   3.956   0.227  0.00  0.00    +0.103 C 
ATOM      3  S   UNL     1      -4.133   5.064   0.215  0.00  0.00    -0.085 S 
ATOM      4  C   UNL     1      -2.845   3.847   0.042  0.00  0.00    +0.174 A 
ATOM      5  N   UNL     1      -3.460   2.628  -0.009  0.00  0.00    -0.283 N 
ATOM      6  C   UNL     1      -2.657   1.523  -0.143  0.00  0.00    +0.266 A 
ATOM      7  O   UNL     1      -3.153   0.411  -0.194  0.00  0.00    -0.267 OA
ATOM      8  C   UNL     1      -1.257   1.677  -0.222  0.00  0.00    +0.103 A 
ATOM      9  C   UNL     1      -0.174   0.782  -0.358  0.00  0.00    +0.150 A 
ATOM     10  N   UNL     1       0.932   1.471  -0.384  0.00  0.00    -0.172 NA
ATOM     11  N   UNL     1       0.639   2.834  -0.261  0.00  0.00    -0.214 N 
ATOM     12  C   UNL     1      -0.712   2.971  -0.157  0.00  0.00    +0.171 A 
ATOM     13  N   UNL     1      -1.543   4.009  -0.021  0.00  0.00    -0.203 NA
ENDROOT
BRANCH  11  14
ATOM     14  C   UNL     1       1.573   3.878  -0.249  0.00  0.00    +0.068 A 
ATOM     15  C   UNL     1       1.261   5.098  -0.835  0.00  0.00    +0.029 A 
ATOM     16  C   UNL     1       2.181   6.127  -0.816  0.00  0.00    +0.022 A 
ATOM     17  C   UNL     1       3.419   5.940  -0.225  0.00  0.00    +0.041 A 
ATOM     18  C   UNL     1       3.735   4.723   0.353  0.00  0.00    +0.022 A 
ATOM     19  C   UNL     1       2.815   3.693   0.343  0.00  0.00    +0.029 A 
ATOM     20 CL   UNL     1       4.577   7.233  -0.210  0.00  0.00    -0.084 Cl
ENDBRANCH  11  14
BRANCH   1  21
ATOM     21  C   UNL     1      -5.303   1.724   1.289  0.00  0.00    +0.122 C 
BRANCH  21  23
ATOM     22  N   UNL     1      -7.380   0.910   2.357  0.00  0.00    -0.285 N 
ATOM     23  C   UNL     1      -6.797   1.529   1.311  0.00  0.00    +0.219 C 
ATOM     24  O   UNL     1      -7.475   1.929   0.388  0.00  0.00    -0.275 OA
ATOM     25  H   UNL     1      -6.847   0.646   3.123  0.00  0.00    +0.155 HD
BRANCH  22  30
ATOM     26  C   UNL     1     -12.953  -0.149   2.277  0.00  0.00    +0.044 C 
ATOM     27  C   UNL     1     -11.473   0.132   2.298  0.00  0.00    -0.050 A 
ATOM     28  C   UNL     1     -10.978   1.271   1.689  0.00  0.00    +0.005 A 
ATOM     29  C   UNL     1      -9.623   1.535   1.712  0.00  0.00    +0.024 A 
ATOM     30  C   UNL     1      -8.755   0.649   2.337  0.00  0.00    +0.036 A 
ATOM     31  C   UNL     1      -9.255  -0.493   2.948  0.00  0.00    -0.029 A 
ATOM     32  C   UNL     1     -10.612  -0.748   2.927  0.00  0.00    +0.008 A 
ATOM     33  C   UNL     1      -8.317  -1.454   3.633  0.00  0.00    +0.045 C 
ENDBRANCH  22  30
ENDBRANCH  21  23
ENDBRANCH   1  21
TORSDOF 4
