REMARK  Name = ZINC43732121
REMARK  10 active torsions:
REMARK  status: ('A' for Active; 'I' for Inactive)
REMARK    1  A    between atoms: C_1  and  C_2
REMARK    2  A    between atoms: C_2  and  C_4
REMARK    3  A    between atoms: C_2  and  O_25
REMARK    4  A    between atoms: N_6  and  N_7
REMARK    5  A    between atoms: C_8  and  C_10
REMARK    6  A    between atoms: N_13  and  C_18
REMARK    7  A    between atoms: C_14  and  C_15
REMARK    8  A    between atoms: C_15  and  C_16
REMARK    9  A    between atoms: C_15  and  C_17
REMARK   10  A    between atoms: O_25  and  C_26
REMARK                            x       y       z     vdW  Elec       q    Type
REMARK                         _______ _______ _______ _____ _____    ______ ____
ROOT
ATOM      1  N   UNL     1       3.442  -0.583   2.157  0.00  0.00    -0.230 N 
ATOM      2  C   UNL     1       4.706  -0.140   2.301  0.00  0.00    +0.263 C 
ATOM      3  O   UNL     1       5.136   0.723   1.559  0.00  0.00    -0.269 OA
ATOM      4  H   UNL     1       3.099  -1.271   2.748  0.00  0.00    +0.173 HD
ENDROOT
BRANCH   2   5
ATOM      5  C   UNL     1       5.569  -0.701   3.356  0.00  0.00    +0.079 A 
ATOM      6  C   UNL     1       5.245  -1.768   4.224  0.00  0.00    +0.148 A 
ATOM      7  N   UNL     1       6.263  -1.970   5.015  0.00  0.00    -0.174 NA
ATOM      8  N   UNL     1       7.273  -1.055   4.696  0.00  0.00    -0.236 N 
ATOM      9  C   UNL     1       6.846  -0.286   3.678  0.00  0.00    +0.060 A 
BRANCH   8  10
ATOM     10  C   UNL     1       8.521  -0.960   5.327  0.00  0.00    +0.067 A 
ATOM     11  C   UNL     1       9.656  -0.664   4.582  0.00  0.00    +0.028 A 
ATOM     12  C   UNL     1      10.884  -0.570   5.206  0.00  0.00    +0.003 A 
ATOM     13  C   UNL     1      10.986  -0.771   6.570  0.00  0.00    +0.020 A 
ATOM     14  C   UNL     1       9.858  -1.066   7.315  0.00  0.00    +0.043 A 
ATOM     15  C   UNL     1       8.625  -1.155   6.697  0.00  0.00    +0.047 A 
ATOM     16 CL   UNL     1       9.990  -1.317   9.028  0.00  0.00    -0.083 Cl
ENDBRANCH   8  10
BRANCH   9  17
ATOM     17  C   UNL     1       7.617   0.825   3.014  0.00  0.00    +0.032 C 
ATOM     18  C   UNL     1       7.853   0.473   1.543  0.00  0.00    +0.014 C 
ATOM     19  C   UNL     1       6.818   2.126   3.105  0.00  0.00    +0.014 C 
ENDBRANCH   9  17
ENDBRANCH   2   5
BRANCH   1  22
ATOM     20  C   UNL     1       1.357  -0.492   1.010  0.00  0.00    +0.270 C 
ATOM     21  O   UNL     1       0.929  -1.353   1.750  0.00  0.00    -0.270 OA
ATOM     22  N   UNL     1       2.622  -0.049   1.154  0.00  0.00    -0.231 N 
ATOM     23  H   UNL     1       2.965   0.639   0.562  0.00  0.00    +0.173 HD
BRANCH  20  25
ATOM     24  C   UNL     1       0.216   1.562   0.218  0.00  0.00    +0.062 C 
ATOM     25  C   UNL     1       0.476   0.081  -0.069  0.00  0.00    +0.257 C 
BRANCH  25  26
ATOM     26  O   UNL     1      -0.766  -0.624  -0.095  0.00  0.00    -0.480 OA
BRANCH  26  27
ATOM     27  C   UNL     1      -1.472  -0.589  -1.256  0.00  0.00    +0.122 A 
ATOM     28  C   UNL     1      -0.944   0.045  -2.371  0.00  0.00    +0.048 A 
ATOM     29  C   UNL     1      -1.663   0.081  -3.550  0.00  0.00    +0.042 A 
ATOM     30  C   UNL     1      -2.910  -0.516  -3.620  0.00  0.00    +0.124 A 
ATOM     31  C   UNL     1      -3.439  -1.149  -2.508  0.00  0.00    +0.042 A 
ATOM     32  C   UNL     1      -2.719  -1.192  -1.329  0.00  0.00    +0.048 A 
ATOM     33  F   UNL     1      -3.612  -0.481  -4.773  0.00  0.00    -0.205 F 
ENDBRANCH  26  27
ENDBRANCH  25  26
ENDBRANCH  20  25
ENDBRANCH   1  22
TORSDOF 7
