REMARK  Name = ZINC16917075
REMARK  11 active torsions:
REMARK  status: ('A' for Active; 'I' for Inactive)
REMARK    1  A    between atoms: C_1  and  C_2
REMARK    2  A    between atoms: C_2  and  O_3
REMARK    3  A    between atoms: O_3  and  C_4
REMARK    4  A    between atoms: C_6  and  C_16
REMARK    5  A    between atoms: C_9  and  O_10
REMARK    6  A    between atoms: O_10  and  C_11
REMARK    7  A    between atoms: C_11  and  C_13
REMARK    8  A    between atoms: C_11  and  C_14
REMARK    9  A    between atoms: N_20  and  N_24
REMARK   10  A    between atoms: C_25  and  C_27
REMARK   11  A    between atoms: C_30  and  N_33
REMARK                            x       y       z     vdW  Elec       q    Type
REMARK                         _______ _______ _______ _____ _____    ______ ____
ROOT
ATOM      1  C   UNL     1      -8.948   7.251   2.301  0.00  0.00    +0.028 C 
ATOM      2  C   UNL     1      -8.205   7.231   1.166  0.00  0.00    +0.079 C 
ATOM      3  C   UNL     1      -6.771   7.528   0.974  0.00  0.00    +0.275 C 
ATOM      4  O   UNL     1      -6.055   7.848   1.904  0.00  0.00    -0.267 OA
ATOM      5  N   UNL     1      -6.306   7.429  -0.260  0.00  0.00    -0.169 N 
ATOM      6  C   UNL     1      -7.105   7.080  -1.288  0.00  0.00    +0.138 C 
ATOM      7  S   UNL     1      -6.694   6.905  -2.942  0.00  0.00    -0.026 S 
ATOM      8  S   UNL     1      -8.693   6.839  -0.509  0.00  0.00    -0.059 S 
ENDROOT
BRANCH   1  11
ATOM      9  C   UNL     1      -8.291   8.338   5.830  0.00  0.00    +0.162 A 
ATOM     10  C   UNL     1      -8.912   8.181   4.606  0.00  0.00    +0.057 A 
ATOM     11  C   UNL     1      -8.294   7.422   3.605  0.00  0.00    -0.020 A 
ATOM     12  C   UNL     1      -7.053   6.823   3.851  0.00  0.00    +0.012 A 
ATOM     13  C   UNL     1      -6.438   6.991   5.073  0.00  0.00    +0.050 A 
ATOM     14  C   UNL     1      -7.052   7.743   6.065  0.00  0.00    +0.163 A 
BRANCH   9  15
ATOM     15  O   UNL     1      -8.887   9.075   6.805  0.00  0.00    -0.489 OA
BRANCH  15  17
ATOM     16  C   UNL     1     -10.666  10.441   7.705  0.00  0.00    +0.048 C 
ATOM     17  C   UNL     1     -10.156   9.656   6.495  0.00  0.00    +0.226 C 
ENDBRANCH  15  17
ENDBRANCH   9  15
BRANCH  14  18
ATOM     18  O   UNL     1      -6.444   7.900   7.270  0.00  0.00    -0.474 OA
BRANCH  18  19
ATOM     19  C   UNL     1      -5.128   7.358   7.408  0.00  0.00    +0.283 C 
ATOM     20  C   UNL     1      -5.224   5.882   7.797  0.00  0.00    +0.064 C 
BRANCH  19  21
ATOM     21  C   UNL     1      -4.384   8.113   8.479  0.00  0.00    +0.395 C 
ATOM     22  O   UNL     1      -4.952   8.961   9.126  0.00  0.00    -0.242 OA
ATOM     23  O   UNL     1      -3.090   7.843   8.714  0.00  0.00    -0.242 OA
ENDBRANCH  19  21
ENDBRANCH  18  19
ENDBRANCH  14  18
ENDBRANCH   1  11
BRANCH   5  24
ATOM     24  N   UNL     1      -4.953   7.699  -0.504  0.00  0.00    -0.222 N 
ATOM     25  C   UNL     1      -4.095   6.686  -0.735  0.00  0.00    +0.261 C 
ATOM     26  O   UNL     1      -4.494   5.538  -0.730  0.00  0.00    -0.269 OA
ATOM     27  H   UNL     1      -4.634   8.615  -0.508  0.00  0.00    +0.174 HD
BRANCH  25  28
ATOM     28  C   UNL     1      -2.667   6.970  -0.993  0.00  0.00    +0.038 A 
ATOM     29  C   UNL     1      -1.776   5.923  -1.232  0.00  0.00    +0.015 A 
ATOM     30  C   UNL     1      -0.445   6.196  -1.471  0.00  0.00    +0.033 A 
ATOM     31  C   UNL     1       0.007   7.504  -1.476  0.00  0.00    +0.126 A 
ATOM     32  C   UNL     1      -0.870   8.546  -1.235  0.00  0.00    +0.033 A 
ATOM     33  C   UNL     1      -2.205   8.287  -0.999  0.00  0.00    +0.015 A 
BRANCH  31  34
ATOM     34  N   UNL     1       1.437   7.789  -1.733  0.00  0.00    +0.056 N 
ATOM     35  O   UNL     1       2.212   6.873  -1.941  0.00  0.00    -0.126 OA
ATOM     36  O   UNL     1       1.836   8.939  -1.743  0.00  0.00    -0.126 OA
ENDBRANCH  31  34
ENDBRANCH  25  28
ENDBRANCH   5  24
TORSDOF 9
