REMARK  Name = ZINC67642928
REMARK  8 active torsions:
REMARK  status: ('A' for Active; 'I' for Inactive)
REMARK    1  A    between atoms: C_1  and  C_2
REMARK    2  A    between atoms: C_4  and  C_27
REMARK    3  A    between atoms: C_8  and  C_11
REMARK    4  A    between atoms: C_11  and  N_12
REMARK    5  A    between atoms: C_21  and  C_23
REMARK    6  A    between atoms: C_23  and  C_24
REMARK    7  A    between atoms: C_24  and  S_25
REMARK    8  A    between atoms: S_25  and  C_26
REMARK                            x       y       z     vdW  Elec       q    Type
REMARK                         _______ _______ _______ _____ _____    ______ ____
ROOT
ATOM      1  N   UNL     1       4.121  -2.080   1.557  0.00  0.00    -0.289 NA
ATOM      2  C   UNL     1       3.952  -3.206   2.486  0.00  0.00    +0.091 C 
ATOM      3  C   UNL     1       4.313  -2.758   3.909  0.00  0.00    +0.070 C 
ATOM      4  C   UNL     1       5.642  -2.051   3.848  0.00  0.00    +0.039 A 
ATOM      5  C   UNL     1       6.198  -1.605   2.698  0.00  0.00    +0.054 A 
ATOM      6  N   UNL     1       7.365  -1.036   3.000  0.00  0.00    -0.348 N 
ATOM      7  C   UNL     1       7.556  -1.108   4.293  0.00  0.00    +0.171 A 
ATOM      8  N   UNL     1       6.498  -1.737   4.855  0.00  0.00    -0.349 N 
ATOM      9  H   UNL     1       6.373  -1.927   5.798  0.00  0.00    +0.166 HD
ATOM     10  C   UNL     1       5.544  -1.761   1.348  0.00  0.00    +0.106 C 
ATOM     11  H   UNL     1       7.975  -0.632   2.363  0.00  0.00    +0.166 HD
ENDROOT
BRANCH   1  12
ATOM     12  C   UNL     1       3.447  -2.345   0.279  0.00  0.00    +0.125 C 
BRANCH  12  20
ATOM     13  C   UNL     1       0.411   2.220   0.790  0.00  0.00    +0.066 C 
ATOM     14  C   UNL     1       0.207   0.727   0.809  0.00  0.00    +0.042 A 
ATOM     15  C   UNL     1      -1.079   0.201   1.002  0.00  0.00    +0.046 A 
ATOM     16  C   UNL     1      -1.253  -1.143   1.017  0.00  0.00    +0.044 A 
ATOM     17  N   UNL     1      -0.171  -1.956   0.843  0.00  0.00    -0.219 N 
ATOM     18  C   UNL     1       1.072  -1.405   0.656  0.00  0.00    +0.160 A 
ATOM     19  N   UNL     1       1.231  -0.075   0.638  0.00  0.00    -0.233 NA
ATOM     20  C   UNL     1       1.962  -2.460   0.508  0.00  0.00    +0.030 A 
ATOM     21  C   UNL     1       1.239  -3.639   0.610  0.00  0.00    +0.142 A 
ATOM     22  N   UNL     1      -0.027  -3.347   0.808  0.00  0.00    -0.173 NA
ATOM     23  C   UNL     1      -2.625  -1.732   1.224  0.00  0.00    +0.066 C 
ENDBRANCH  12  20
ENDBRANCH   1  12
BRANCH  10  24
ATOM     24  C   UNL     1       5.670  -0.456   0.560  0.00  0.00    +0.036 C 
BRANCH  24  25
ATOM     25  C   UNL     1       4.990   0.675   1.335  0.00  0.00    +0.071 C 
BRANCH  25  26
ATOM     26  S   UNL     1       5.013   2.190   0.338  0.00  0.00    -0.164 S 
ATOM     27  C   UNL     1       4.182   3.417   1.384  0.00  0.00    +0.084 C 
ENDBRANCH  25  26
ENDBRANCH  24  25
ENDBRANCH  10  24
TORSDOF 5
