REMARK  Name = ZINC64061256
REMARK  7 active torsions:
REMARK  status: ('A' for Active; 'I' for Inactive)
REMARK    1  A    between atoms: C_6  and  C_11
REMARK    2  A    between atoms: C_11  and  N_12
REMARK    3  A    between atoms: C_18  and  C_20
REMARK    4  A    between atoms: C_20  and  C_21
REMARK    5  A    between atoms: N_23  and  C_24
REMARK    6  A    between atoms: C_24  and  C_25
REMARK    7  A    between atoms: C_25  and  C_26
REMARK                            x       y       z     vdW  Elec       q    Type
REMARK                         _______ _______ _______ _____ _____    ______ ____
ROOT
ATOM      1  N   UNL     1       5.429  -2.907   0.973  0.00  0.00    +0.391 N 
ATOM      2  C   UNL     1       5.737  -1.582   1.535  0.00  0.00    -0.058 C 
ATOM      3  C   UNL     1       5.679  -1.669   3.062  0.00  0.00    +0.085 C 
ATOM      4  N   UNL     1       6.493  -2.789   3.527  0.00  0.00    -0.318 N 
ATOM      5  C   UNL     1       6.885  -3.780   2.719  0.00  0.00    +0.200 C 
ATOM      6  O   UNL     1       7.540  -4.688   3.187  0.00  0.00    -0.278 OA
ATOM      7  C   UNL     1       6.547  -3.815   1.256  0.00  0.00    +0.028 C 
ATOM      8  H   UNL     1       6.759  -2.815   4.460  0.00  0.00    +0.149 HD
ATOM      9  H   UNL     1       4.586  -3.267   1.395  0.00  0.00    -0.080 HD
ENDROOT
BRANCH   1  10
ATOM     10  C   UNL     1       5.242  -2.793  -0.479  0.00  0.00    -0.042 C 
BRANCH  10  16
ATOM     11  C   UNL     1       0.654   1.588  -1.690  0.00  0.00    +0.001 A 
ATOM     12  C   UNL     1       1.885   2.231  -1.567  0.00  0.00    +0.001 A 
ATOM     13  C   UNL     1       3.021   1.527  -1.309  0.00  0.00    +0.008 A 
ATOM     14  C   UNL     1       2.955   0.130  -1.165  0.00  0.00    -0.018 A 
ATOM     15  C   UNL     1       4.106  -0.630  -0.898  0.00  0.00    +0.010 A 
ATOM     16  C   UNL     1       4.005  -1.981  -0.765  0.00  0.00    -0.063 A 
ATOM     17  C   UNL     1       2.775  -2.624  -0.888  0.00  0.00    +0.002 A 
ATOM     18  C   UNL     1       1.639  -1.920  -1.146  0.00  0.00    +0.009 A 
ATOM     19  C   UNL     1       1.704  -0.523  -1.290  0.00  0.00    -0.018 A 
ATOM     20  C   UNL     1       0.553   0.237  -1.557  0.00  0.00    +0.008 A 
ENDBRANCH  10  16
ENDBRANCH   1  10
BRANCH   7  21
ATOM     21  C   UNL     1       6.156  -5.240   0.859  0.00  0.00    +0.089 C 
BRANCH  21  22
ATOM     22  C   UNL     1       5.024  -5.712   1.735  0.00  0.00    +0.212 C 
ATOM     23  O   UNL     1       4.557  -4.971   2.574  0.00  0.00    -0.276 OA
ATOM     24  N   UNL     1       4.531  -6.958   1.586  0.00  0.00    -0.315 N 
ATOM     25  H   UNL     1       4.905  -7.550   0.915  0.00  0.00    +0.149 HD
BRANCH  24  26
ATOM     26  C   UNL     1       3.431  -7.417   2.438  0.00  0.00    +0.108 C 
BRANCH  26  27
ATOM     27  C   UNL     1       3.064  -8.855   2.066  0.00  0.00    +0.052 C 
BRANCH  27  28
ATOM     28  C   UNL     1       1.933  -9.327   2.942  0.00  0.00    -0.040 C 
ATOM     29  C   UNL     1       0.613  -9.303   2.648  0.00  0.00    -0.001 A 
ATOM     30  C   UNL     1      -0.136  -8.847   1.471  0.00  0.00    +0.010 A 
ATOM     31  C   UNL     1      -1.484  -8.952   1.470  0.00  0.00    +0.001 A 
ATOM     32  C   UNL     1      -2.183  -9.484   2.562  0.00  0.00    +0.002 A 
ATOM     33  C   UNL     1      -1.565  -9.925   3.678  0.00  0.00    +0.026 A 
ATOM     34  C   UNL     1      -0.149  -9.862   3.788  0.00  0.00    +0.043 A 
ATOM     35  N   UNL     1       0.669 -10.218   4.749  0.00  0.00    -0.380 N 
ATOM     36  C   UNL     1       2.043  -9.930   4.324  0.00  0.00    +0.144 C 
ATOM     37  H   UNL     1       0.409 -10.610   5.597  0.00  0.00    +0.160 HD
ENDBRANCH  27  28
ENDBRANCH  26  27
ENDBRANCH  24  26
ENDBRANCH  21  22
ENDBRANCH   7  21
TORSDOF 7
