REMARK  Name = ZINC21238631
REMARK  2 active torsions:
REMARK  status: ('A' for Active; 'I' for Inactive)
REMARK    1  A    between atoms: C_4  and  C_7
REMARK    2  A    between atoms: C_12  and  C_17
REMARK                            x       y       z     vdW  Elec       q    Type
REMARK                         _______ _______ _______ _____ _____    ______ ____
ROOT
ATOM      1  C   UNL     1       2.451   3.937  -0.001  0.00  0.00    +0.136 C 
ATOM      2  C   UNL     1       2.784   4.296  -1.429  0.00  0.00    +0.036 C 
ATOM      3  C   UNL     1       2.742   5.529  -1.963  0.00  0.00    +0.017 C 
ATOM      4  C   UNL     1       3.111   5.753  -3.419  0.00  0.00    +0.060 C 
ATOM      5  C   UNL     1       2.740   4.524  -4.248  0.00  0.00    +0.039 C 
ATOM      6  C   UNL     1       3.510   3.327  -3.677  0.00  0.00    +0.088 C 
ATOM      7  C   UNL     1       3.164   3.189  -2.224  0.00  0.00    +0.163 C 
ATOM      8  O   UNL     1       3.213   2.088  -1.712  0.00  0.00    -0.292 OA
ATOM      9  N   UNL     1       2.397   6.652  -1.284  0.00  0.00    -0.316 N 
ATOM     10  C   UNL     1       1.295   6.769  -0.445  0.00  0.00    +0.052 A 
ATOM     11  C   UNL     1       0.235   7.614  -0.725  0.00  0.00    +0.025 A 
ATOM     12  C   UNL     1      -0.808   7.717   0.180  0.00  0.00    +0.002 A 
ATOM     13  C   UNL     1      -0.789   6.985   1.353  0.00  0.00    +0.002 A 
ATOM     14  C   UNL     1       0.261   6.125   1.626  0.00  0.00    +0.025 A 
ATOM     15  C   UNL     1       1.295   6.004   0.712  0.00  0.00    +0.049 A 
ATOM     16  N   UNL     1       2.315   5.070   0.889  0.00  0.00    -0.331 N 
ATOM     17  H   UNL     1       3.009   7.562  -1.378  0.00  0.00    +0.152 HD
ATOM     18  H   UNL     1       3.023   5.205   1.720  0.00  0.00    +0.147 HD
ENDROOT
BRANCH   1  22
ATOM     19  C   UNL     1      -1.218   1.749   0.018  0.00  0.00    +0.000 A 
ATOM     20  C   UNL     1      -0.051   1.146   0.450  0.00  0.00    +0.000 A 
ATOM     21  C   UNL     1       1.136   1.853   0.443  0.00  0.00    +0.006 A 
ATOM     22  C   UNL     1       1.156   3.165   0.008  0.00  0.00    -0.023 A 
ATOM     23  C   UNL     1      -0.011   3.770  -0.420  0.00  0.00    +0.006 A 
ATOM     24  C   UNL     1      -1.199   3.062  -0.412  0.00  0.00    +0.000 A 
ENDBRANCH   1  22
BRANCH   5  25
ATOM     25  C   UNL     1       3.130   4.742  -5.687  0.00  0.00    -0.006 A 
ATOM     26  C   UNL     1       2.350   4.718  -6.795  0.00  0.00    +0.011 A 
ATOM     27  C   UNL     1       2.930   4.949  -8.029  0.00  0.00    +0.008 A 
ATOM     28  C   UNL     1       4.262   5.194  -8.093  0.00  0.00    +0.045 A 
ATOM     29  S   UNL     1       4.736   5.108  -6.374  0.00  0.00    -0.101 S 
ENDBRANCH   5  25
TORSDOF 2
