REMARK  Name = ZINC37034240
REMARK  3 active torsions:
REMARK  status: ('A' for Active; 'I' for Inactive)
REMARK    1  A    between atoms: C_6  and  C_7
REMARK    2  A    between atoms: C_7  and  C_9
REMARK    3  A    between atoms: C_7  and  N_17
REMARK                            x       y       z     vdW  Elec       q    Type
REMARK                         _______ _______ _______ _____ _____    ______ ____
ROOT
ATOM      1  C   UNL     1      -1.293  -0.774   0.009  0.00  0.00    -0.013 C 
ENDROOT
BRANCH   1   7
ATOM      2  C   UNL     1      -0.017   1.378   0.010  0.00  0.00    +0.006 A 
ATOM      3  C   UNL     1       1.170   2.088   0.002  0.00  0.00    +0.049 A 
ATOM      4  C   UNL     1       2.382   1.415  -0.013  0.00  0.00    +0.162 A 
ATOM      5  C   UNL     1       2.401   0.025  -0.018  0.00  0.00    +0.162 A 
ATOM      6  C   UNL     1       1.207  -0.681  -0.011  0.00  0.00    +0.051 A 
ATOM      7  C   UNL     1       0.002  -0.004   0.002  0.00  0.00    -0.054 A 
ATOM      8  O   UNL     1       3.579  -0.656  -0.024  0.00  0.00    -0.485 OA
ATOM      9  C   UNL     1       4.746   0.081  -0.406  0.00  0.00    +0.270 C 
ATOM     10  C   UNL     1       4.733   1.422   0.340  0.00  0.00    +0.270 C 
ATOM     11  O   UNL     1       3.542   2.127  -0.024  0.00  0.00    -0.485 OA
ENDBRANCH   1   7
BRANCH   1  12
ATOM     12  C   UNL     1      -1.840  -0.826   1.412  0.00  0.00    -0.054 A 
ATOM     13  C   UNL     1      -2.527   0.257   1.927  0.00  0.00    +0.040 A 
ATOM     14  C   UNL     1      -3.029   0.210   3.216  0.00  0.00    +0.125 A 
ATOM     15  C   UNL     1      -2.842  -0.923   3.989  0.00  0.00    +0.053 A 
ATOM     16  C   UNL     1      -2.154  -2.006   3.473  0.00  0.00    +0.021 A 
ATOM     17  C   UNL     1      -1.658  -1.959   2.182  0.00  0.00    +0.017 A 
ATOM     18 BR   UNL     1      -1.898  -3.554   4.529  0.00  0.00    -0.050 Br
ATOM     19  F   UNL     1      -3.700   1.269   3.720  0.00  0.00    -0.205 F 
ENDBRANCH   1  12
BRANCH   1  20
ATOM     20  N   UNL     1      -2.264  -0.107  -0.870  0.00  0.00    +0.385 N 
ATOM     21  H   UNL     1      -2.429   0.831  -0.538  0.00  0.00    -0.089 HD
ATOM     22  H   UNL     1      -1.898  -0.072  -1.810  0.00  0.00    -0.089 HD
ATOM     23  H   UNL     1      -3.131  -0.623  -0.866  0.00  0.00    -0.089 HD
ENDBRANCH   1  20
TORSDOF 3
