REMARK  Name = ZINC39845581
REMARK  8 active torsions:
REMARK  status: ('A' for Active; 'I' for Inactive)
REMARK    1  A    between atoms: C_1  and  C_2
REMARK    2  A    between atoms: C_2  and  C_3
REMARK    3  A    between atoms: C_2  and  C_4
REMARK    4  A    between atoms: C_4  and  N_5
REMARK    5  A    between atoms: N_5  and  C_6
REMARK    6  A    between atoms: C_7  and  S_18
REMARK    7  A    between atoms: C_9  and  C_11
REMARK    8  A    between atoms: S_18  and  C_21
REMARK                            x       y       z     vdW  Elec       q    Type
REMARK                         _______ _______ _______ _____ _____    ______ ____
ROOT
ATOM      1  C   UNL     1       0.471  -0.495   3.700  0.00  0.00    +0.233 A 
ATOM      2  C   UNL     1      -0.116  -0.226   4.891  0.00  0.00    +0.243 A 
ATOM      3  N   UNL     1       0.664  -0.738   5.856  0.00  0.00    -0.188 NA
ATOM      4  C   UNL     1       1.704  -1.309   5.298  0.00  0.00    +0.233 A 
ATOM      5  O   UNL     1       1.605  -1.177   3.961  0.00  0.00    -0.420 OA
ENDROOT
BRANCH   4   6
ATOM      6  C   UNL     1       2.800  -1.990   6.016  0.00  0.00    +0.055 A 
ATOM      7  C   UNL     1       2.782  -2.071   7.410  0.00  0.00    +0.014 A 
ATOM      8  C   UNL     1       3.809  -2.708   8.075  0.00  0.00    +0.001 A 
ATOM      9  C   UNL     1       4.856  -3.268   7.364  0.00  0.00    +0.001 A 
ATOM     10  C   UNL     1       4.882  -3.192   5.983  0.00  0.00    +0.021 A 
ATOM     11  C   UNL     1       3.858  -2.562   5.304  0.00  0.00    +0.053 A 
ATOM     12 CL   UNL     1       3.887  -2.475   3.571  0.00  0.00    -0.083 Cl
ENDBRANCH   4   6
BRANCH   2  13
ATOM     13  S   UNL     1      -1.631   0.641   5.131  0.00  0.00    +0.047 S 
ATOM     14  O   UNL     1      -1.589   1.175   6.447  0.00  0.00    -0.163 OA
ATOM     15  O   UNL     1      -1.817   1.457   3.983  0.00  0.00    -0.163 OA
BRANCH  13  16
ATOM     16  C   UNL     1      -2.924  -0.556   5.113  0.00  0.00    +0.096 A 
ATOM     17  C   UNL     1      -3.537  -0.893   3.921  0.00  0.00    +0.029 A 
ATOM     18  C   UNL     1      -4.551  -1.832   3.907  0.00  0.00    +0.022 A 
ATOM     19  C   UNL     1      -4.953  -2.433   5.086  0.00  0.00    +0.041 A 
ATOM     20  C   UNL     1      -4.340  -2.095   6.279  0.00  0.00    +0.022 A 
ATOM     21  C   UNL     1      -3.321  -1.160   6.291  0.00  0.00    +0.029 A 
ATOM     22 CL   UNL     1      -6.228  -3.612   5.069  0.00  0.00    -0.084 Cl
ENDBRANCH  13  16
ENDBRANCH   2  13
BRANCH   1  23
ATOM     23  N   UNL     1      -0.008  -0.140   2.444  0.00  0.00    -0.312 N 
ATOM     24  H   UNL     1      -0.840   0.353   2.364  0.00  0.00    +0.149 HD
BRANCH  23  25
ATOM     25  C   UNL     1       0.742  -0.511   1.242  0.00  0.00    +0.107 C 
BRANCH  25  27
ATOM     26  C   UNL     1      -0.019   1.526   0.010  0.00  0.00    +0.009 C 
ATOM     27  C   UNL     1       0.002  -0.004   0.002  0.00  0.00    -0.000 C 
ATOM     28  C   UNL     1       0.718  -0.497  -1.257  0.00  0.00    +0.009 C 
ENDBRANCH  25  27
ENDBRANCH  23  25
ENDBRANCH   1  23
TORSDOF 6
