REMARK  Name = ZINC15646009
REMARK  16 active torsions:
REMARK  status: ('A' for Active; 'I' for Inactive)
REMARK    1  A    between atoms: C_1  and  C_2
REMARK    2  A    between atoms: C_5  and  C_36
REMARK    3  A    between atoms: C_6  and  N_8
REMARK    4  A    between atoms: C_9  and  C_11
REMARK    5  A    between atoms: C_11  and  C_13
REMARK    6  A    between atoms: C_11  and  O_14
REMARK    7  A    between atoms: O_14  and  C_15
REMARK    8  A    between atoms: C_15  and  C_17
REMARK    9  A    between atoms: C_18  and  C_19
REMARK   10  A    between atoms: C_19  and  O_21
REMARK   11  A    between atoms: O_21  and  C_22
REMARK   12  A    between atoms: C_22  and  C_24
REMARK   13  A    between atoms: C_22  and  C_25
REMARK   14  A    between atoms: N_27  and  C_28
REMARK   15  A    between atoms: C_30  and  C_35
REMARK   16  A    between atoms: C_33  and  C_34
REMARK                            x       y       z     vdW  Elec       q    Type
REMARK                         _______ _______ _______ _____ _____    ______ ____
ROOT
ATOM      1  C   UNL     1       1.447  -1.548   8.140  0.00  0.00    +0.098 C 
ATOM      2  C   UNL     1       2.173  -1.984   9.183  0.00  0.00    +0.098 C 
ENDROOT
BRANCH   1   3
ATOM      3  C   UNL     1       1.195  -2.441   6.992  0.00  0.00    +0.333 C 
ATOM      4  O   UNL     1       1.643  -3.569   6.990  0.00  0.00    -0.246 OA
BRANCH   3   5
ATOM      5  O   UNL     1       0.467  -2.003   5.946  0.00  0.00    -0.449 OA
BRANCH   5   6
ATOM      6  C   UNL     1       0.262  -2.920   4.869  0.00  0.00    +0.259 C 
ATOM      7  C   UNL     1      -1.014  -3.726   5.122  0.00  0.00    +0.062 C 
BRANCH   6   9
ATOM      8  N   UNL     1       0.026  -2.820   2.409  0.00  0.00    -0.282 N 
ATOM      9  C   UNL     1       0.126  -2.156   3.577  0.00  0.00    +0.258 C 
ATOM     10  O   UNL     1       0.107  -0.944   3.589  0.00  0.00    -0.271 OA
ATOM     11  H   UNL     1      -0.039  -3.788   2.405  0.00  0.00    +0.155 HD
BRANCH   8  17
ATOM     12  C   UNL     1       1.224   1.204  -0.149  0.00  0.00    +0.044 C 
ATOM     13  C   UNL     1       0.591  -0.161  -0.067  0.00  0.00    -0.049 A 
ATOM     14  C   UNL     1       0.000  -0.717  -1.187  0.00  0.00    +0.004 A 
ATOM     15  C   UNL     1      -0.581  -1.969  -1.116  0.00  0.00    +0.005 A 
ATOM     16  C   UNL     1      -0.574  -2.669   0.075  0.00  0.00    -0.029 A 
ATOM     17  C   UNL     1       0.018  -2.114   1.201  0.00  0.00    +0.037 A 
ATOM     18  C   UNL     1       0.606  -0.858   1.125  0.00  0.00    +0.027 A 
ATOM     19  C   UNL     1      -1.209  -4.034   0.151  0.00  0.00    +0.045 C 
ENDBRANCH   8  17
ENDBRANCH   6   9
ENDBRANCH   5   6
ENDBRANCH   3   5
ENDBRANCH   1   3
BRANCH   2  20
ATOM     20  C   UNL     1       2.425  -1.092  10.331  0.00  0.00    +0.333 C 
ATOM     21  O   UNL     1       1.976   0.037  10.332  0.00  0.00    -0.246 OA
BRANCH  20  22
ATOM     22  O   UNL     1       3.153  -1.529  11.377  0.00  0.00    -0.449 OA
BRANCH  22  23
ATOM     23  C   UNL     1       3.358  -0.612  12.453  0.00  0.00    +0.259 C 
ATOM     24  C   UNL     1       2.228  -0.763  13.474  0.00  0.00    +0.062 C 
BRANCH  23  25
ATOM     25  C   UNL     1       4.678  -0.904  13.118  0.00  0.00    +0.258 C 
ATOM     26  O   UNL     1       5.375  -1.809  12.710  0.00  0.00    -0.271 OA
ATOM     27  N   UNL     1       5.084  -0.161  14.166  0.00  0.00    -0.282 N 
ATOM     28  H   UNL     1       4.497   0.517  14.536  0.00  0.00    +0.155 HD
BRANCH  27  29
ATOM     29  C   UNL     1       6.353  -0.366  14.720  0.00  0.00    +0.037 A 
ATOM     30  C   UNL     1       6.892  -1.645  14.768  0.00  0.00    +0.027 A 
ATOM     31  C   UNL     1       8.144  -1.845  15.315  0.00  0.00    -0.049 A 
ATOM     32  C   UNL     1       8.861  -0.773  15.815  0.00  0.00    +0.004 A 
ATOM     33  C   UNL     1       8.326   0.501  15.769  0.00  0.00    +0.005 A 
ATOM     34  C   UNL     1       7.077   0.708  15.219  0.00  0.00    -0.029 A 
ATOM     35  C   UNL     1       6.498   2.099  15.163  0.00  0.00    +0.045 C 
ATOM     36  C   UNL     1       8.730  -3.232  15.368  0.00  0.00    +0.044 C 
ENDBRANCH  27  29
ENDBRANCH  23  25
ENDBRANCH  22  23
ENDBRANCH  20  22
ENDBRANCH   2  20
TORSDOF 10
