REMARK  Name = ZINC13893679
REMARK  15 active torsions:
REMARK  status: ('A' for Active; 'I' for Inactive)
REMARK    1  A    between atoms: C_1  and  C_2
REMARK    2  A    between atoms: C_2  and  O_3
REMARK    3  A    between atoms: O_3  and  C_4
REMARK    4  A    between atoms: C_6  and  C_23
REMARK    5  A    between atoms: C_9  and  O_10
REMARK    6  A    between atoms: O_10  and  C_11
REMARK    7  A    between atoms: C_11  and  C_12
REMARK    8  A    between atoms: C_12  and  O_13
REMARK    9  A    between atoms: O_13  and  C_14
REMARK   10  A    between atoms: C_17  and  C_21
REMARK   11  A    between atoms: C_18  and  C_20
REMARK   12  A    between atoms: N_24  and  N_25
REMARK   13  A    between atoms: N_25  and  C_26
REMARK   14  A    between atoms: C_26  and  N_28
REMARK   15  A    between atoms: N_28  and  C_29
REMARK                            x       y       z     vdW  Elec       q    Type
REMARK                         _______ _______ _______ _____ _____    ______ ____
ROOT
ATOM      1  C   UNL     1      -5.790   6.860  -0.864  0.00  0.00    +0.164 A 
ATOM      2  C   UNL     1      -6.841   7.745  -1.013  0.00  0.00    +0.059 A 
ATOM      3  C   UNL     1      -8.035   7.315  -1.598  0.00  0.00    -0.001 A 
ATOM      4  C   UNL     1      -8.161   5.993  -2.030  0.00  0.00    +0.028 A 
ATOM      5  C   UNL     1      -7.105   5.116  -1.883  0.00  0.00    +0.064 A 
ATOM      6  C   UNL     1      -5.921   5.542  -1.296  0.00  0.00    +0.176 A 
ATOM      7 BR   UNL     1      -7.274   3.328  -2.475  0.00  0.00    -0.046 Br
ENDROOT
BRANCH   3   8
ATOM      8  C   UNL     1      -9.159   8.256  -1.760  0.00  0.00    +0.138 C 
ATOM      9  N   UNL     1     -10.267   7.855  -2.304  0.00  0.00    -0.188 NA
BRANCH   9  10
ATOM     10  N   UNL     1     -11.335   8.748  -2.457  0.00  0.00    -0.218 N 
ATOM     11  H   UNL     1     -11.246   9.666  -2.157  0.00  0.00    +0.176 HD
BRANCH  10  12
ATOM     12  C   UNL     1     -12.486   8.332  -3.022  0.00  0.00    +0.150 C 
ATOM     13  S   UNL     1     -13.791   9.424  -3.210  0.00  0.00    -0.017 S 
BRANCH  12  14
ATOM     14  N   UNL     1     -12.609   7.056  -3.439  0.00  0.00    -0.328 N 
ATOM     15  C   UNL     1     -13.860   6.604  -4.052  0.00  0.00    +0.127 C 
ATOM     16  H   UNL     1     -11.870   6.438  -3.332  0.00  0.00    +0.147 HD
ENDBRANCH  12  14
ENDBRANCH  10  12
ENDBRANCH   9  10
ENDBRANCH   3   8
BRANCH   1  17
ATOM     17  O   UNL     1      -4.626   7.275  -0.295  0.00  0.00    -0.489 OA
BRANCH  17  19
ATOM     18  C   UNL     1      -3.186   8.919   0.736  0.00  0.00    +0.048 C 
ATOM     19  C   UNL     1      -4.561   8.639   0.125  0.00  0.00    +0.226 C 
ENDBRANCH  17  19
ENDBRANCH   1  17
BRANCH   6  20
ATOM     20  O   UNL     1      -4.886   4.673  -1.149  0.00  0.00    -0.484 OA
BRANCH  20  21
ATOM     21  C   UNL     1      -4.835   3.926   0.068  0.00  0.00    +0.270 C 
BRANCH  21  22
ATOM     22  C   UNL     1      -3.610   3.009   0.052  0.00  0.00    +0.270 C 
BRANCH  22  23
ATOM     23  O   UNL     1      -2.421   3.802   0.045  0.00  0.00    -0.489 OA
BRANCH  23  24
ATOM     24  C   UNL     1      -1.236   3.137   0.030  0.00  0.00    +0.121 A 
ATOM     25  C   UNL     1      -1.218   1.750   0.017  0.00  0.00    +0.046 A 
ATOM     26  C   UNL     1      -0.013   1.076   0.008  0.00  0.00    +0.007 A 
ATOM     27  C   UNL     1       1.176   1.783   0.000  0.00  0.00    -0.047 A 
ATOM     28  C   UNL     1       1.161   3.165   0.007  0.00  0.00    -0.044 A 
ATOM     29  C   UNL     1      -0.043   3.844   0.022  0.00  0.00    +0.049 A 
ATOM     30  C   UNL     1       2.457   3.933  -0.002  0.00  0.00    +0.044 C 
ATOM     31  C   UNL     1       2.490   1.045  -0.016  0.00  0.00    +0.044 C 
ENDBRANCH  23  24
ENDBRANCH  22  23
ENDBRANCH  21  22
ENDBRANCH  20  21
ENDBRANCH   6  20
TORSDOF 11
