REMARK  Name = ZINC36205739
REMARK  16 active torsions:
REMARK  status: ('A' for Active; 'I' for Inactive)
REMARK    1  A    between atoms: C_1  and  C_2
REMARK    2  A    between atoms: C_7  and  C_8
REMARK    3  A    between atoms: C_17  and  C_19
REMARK    4  A    between atoms: C_19  and  N_20
REMARK    5  A    between atoms: N_20  and  C_21
REMARK    6  A    between atoms: N_20  and  C_31
REMARK    7  A    between atoms: C_21  and  C_22
REMARK    8  A    between atoms: C_22  and  C_24
REMARK    9  A    between atoms: C_22  and  O_30
REMARK   10  A    between atoms: C_24  and  O_25
REMARK   11  A    between atoms: O_25  and  C_26
REMARK   12  A    between atoms: C_26  and  C_27
REMARK   13  A    between atoms: C_26  and  C_28
REMARK   14  A    between atoms: C_26  and  C_29
REMARK   15  A    between atoms: C_31  and  C_32
REMARK   16  A    between atoms: C_31  and  C_33
REMARK                            x       y       z     vdW  Elec       q    Type
REMARK                         _______ _______ _______ _____ _____    ______ ____
ROOT
ATOM      1  C   UNL     1       0.088   3.488   0.760  0.00  0.00    +0.004 A 
ATOM      2  C   UNL     1       1.297   3.601   1.361  0.00  0.00    +0.056 A 
ATOM      3  S   UNL     1       0.885   3.797   3.084  0.00  0.00    -0.076 S 
ATOM      4  C   UNL     1      -0.883   3.723   2.959  0.00  0.00    +0.116 A 
ATOM      5  C   UNL     1      -1.113   3.554   1.584  0.00  0.00    +0.080 A 
ATOM      6  C   UNL     1      -2.487   3.467   1.191  0.00  0.00    +0.260 A 
ATOM      7  O   UNL     1      -2.787   3.315   0.019  0.00  0.00    -0.267 OA
ATOM      8  N   UNL     1      -3.442   3.554   2.135  0.00  0.00    -0.312 N 
ATOM      9  H   UNL     1      -4.375   3.496   1.875  0.00  0.00    +0.170 HD
ATOM     10  C   UNL     1      -3.126   3.723   3.445  0.00  0.00    +0.094 A 
ATOM     11  N   UNL     1      -1.882   3.797   3.835  0.00  0.00    -0.229 NA
ENDROOT
BRANCH   1  18
ATOM     12  C   UNL     1      -1.131   5.552  -0.859  0.00  0.00    +0.044 C 
ATOM     13  C   UNL     1      -0.598   4.295  -1.496  0.00  0.00    -0.043 A 
ATOM     14  C   UNL     1      -0.683   4.123  -2.863  0.00  0.00    +0.004 A 
ATOM     15  C   UNL     1      -0.194   2.970  -3.450  0.00  0.00    +0.000 A 
ATOM     16  C   UNL     1       0.384   1.983  -2.671  0.00  0.00    +0.001 A 
ATOM     17  C   UNL     1       0.474   2.143  -1.304  0.00  0.00    +0.009 A 
ATOM     18  C   UNL     1      -0.012   3.306  -0.708  0.00  0.00    -0.014 A 
ENDBRANCH   1  18
BRANCH  10  19
ATOM     19  C   UNL     1      -4.229   3.816   4.467  0.00  0.00    -0.003 C 
BRANCH  19  20
ATOM     20  N   UNL     1      -3.649   3.804   5.816  0.00  0.00    +0.388 N 
ATOM     21  H   UNL     1      -2.773   4.304   5.810  0.00  0.00    -0.081 HD
BRANCH  20  22
ATOM     22  C   UNL     1      -3.418   2.416   6.238  0.00  0.00    -0.074 C 
ATOM     23  C   UNL     1      -4.745   1.653   6.231  0.00  0.00    -0.014 C 
ATOM     24  C   UNL     1      -2.440   1.745   5.272  0.00  0.00    -0.014 C 
ENDBRANCH  20  22
BRANCH  20  25
ATOM     25  C   UNL     1      -4.576   4.453   6.754  0.00  0.00    -0.044 C 
BRANCH  25  26
ATOM     26  C   UNL     1      -3.912   4.572   8.127  0.00  0.00    +0.124 C 
BRANCH  26  27
ATOM     27  O   UNL     1      -2.743   5.387   8.021  0.00  0.00    -0.391 OA
ATOM     28  H   UNL     1      -2.917   6.286   7.709  0.00  0.00    +0.210 HD
ENDBRANCH  26  27
BRANCH  26  29
ATOM     29  C   UNL     1      -4.892   5.212   9.113  0.00  0.00    +0.189 C 
BRANCH  29  30
ATOM     30  O   UNL     1      -4.315   5.217  10.421  0.00  0.00    -0.372 OA
BRANCH  30  31
ATOM     31  C   UNL     1      -5.154   5.796  11.423  0.00  0.00    +0.061 C 
ATOM     32  C   UNL     1      -6.463   5.009  11.510  0.00  0.00    +0.041 C 
ATOM     33  C   UNL     1      -4.439   5.749  12.775  0.00  0.00    +0.041 C 
ATOM     34  C   UNL     1      -5.457   7.251  11.056  0.00  0.00    +0.041 C 
ENDBRANCH  30  31
ENDBRANCH  29  30
ENDBRANCH  26  29
ENDBRANCH  25  26
ENDBRANCH  20  25
ENDBRANCH  19  20
ENDBRANCH  10  19
TORSDOF 10
