REMARK  Name = ZINC08502519
REMARK  7 active torsions:
REMARK  status: ('A' for Active; 'I' for Inactive)
REMARK    1  A    between atoms: C_1  and  C_2
REMARK    2  A    between atoms: C_2  and  C_4
REMARK    3  A    between atoms: C_2  and  N_13
REMARK    4  A    between atoms: C_14  and  C_16
REMARK    5  A    between atoms: C_16  and  N_17
REMARK    6  A    between atoms: C_20  and  C_24
REMARK    7  A    between atoms: C_20  and  C_25
REMARK                            x       y       z     vdW  Elec       q    Type
REMARK                         _______ _______ _______ _____ _____    ______ ____
ROOT
ATOM      1  C   UNL     1      -5.287   2.606  -2.323  0.00  0.00    +0.213 C 
ENDROOT
BRANCH   1   2
ATOM      2  N   UNL     1      -6.448   1.848  -2.797  0.00  0.00    -0.215 N 
ATOM      3  C   UNL     1      -7.636   1.809  -2.162  0.00  0.00    +0.251 C 
ATOM      4  O   UNL     1      -7.935   2.370  -1.130  0.00  0.00    -0.272 OA
ATOM      5  C   UNL     1      -8.523   0.915  -3.007  0.00  0.00    +0.135 C 
ATOM      6  N   UNL     1      -7.648   0.517  -4.124  0.00  0.00    -0.281 N 
ATOM      7  C   UNL     1      -6.462   1.115  -3.916  0.00  0.00    +0.310 C 
ATOM      8  O   UNL     1      -5.507   1.000  -4.660  0.00  0.00    -0.252 OA
ATOM      9  C   UNL     1      -8.970  -0.310  -2.207  0.00  0.00    +0.047 C 
ATOM     10  H   UNL     1      -7.884  -0.061  -4.867  0.00  0.00    +0.152 HD
BRANCH   5  11
ATOM     11  C   UNL     1      -9.717   1.680  -3.515  0.00  0.00    -0.016 A 
ATOM     12  C   UNL     1     -10.238   2.722  -2.771  0.00  0.00    +0.006 A 
ATOM     13  C   UNL     1     -11.331   3.427  -3.239  0.00  0.00    +0.000 A 
ATOM     14  C   UNL     1     -11.909   3.083  -4.447  0.00  0.00    +0.000 A 
ATOM     15  C   UNL     1     -11.392   2.038  -5.189  0.00  0.00    +0.000 A 
ATOM     16  C   UNL     1     -10.296   1.336  -4.723  0.00  0.00    +0.006 A 
ENDBRANCH   5  11
ENDBRANCH   1   2
BRANCH   1  18
ATOM     17  N   UNL     1      -3.329   2.223  -0.860  0.00  0.00    -0.304 N 
ATOM     18  C   UNL     1      -4.455   1.734  -1.417  0.00  0.00    +0.232 C 
ATOM     19  O   UNL     1      -4.798   0.593  -1.191  0.00  0.00    -0.274 OA
ATOM     20  H   UNL     1      -3.055   3.136  -1.041  0.00  0.00    +0.149 HD
BRANCH  17  22
ATOM     21  C   UNL     1      -3.078   1.440   1.443  0.00  0.00    +0.036 C 
ATOM     22  C   UNL     1      -2.520   1.377   0.020  0.00  0.00    +0.136 C 
BRANCH  22  23
ATOM     23  C   UNL     1      -1.095   1.866   0.017  0.00  0.00    +0.126 A 
ATOM     24  C   UNL     1      -0.013   1.076   0.008  0.00  0.00    +0.055 A 
ATOM     25  C   UNL     1       1.149   1.973   0.002  0.00  0.00    +0.020 A 
ATOM     26  C   UNL     1       2.530   1.781  -0.012  0.00  0.00    +0.011 A 
ATOM     27  C   UNL     1       3.365   2.863  -0.014  0.00  0.00    +0.001 A 
ATOM     28  C   UNL     1       2.847   4.150  -0.004  0.00  0.00    +0.004 A 
ATOM     29  C   UNL     1       1.485   4.360   0.009  0.00  0.00    +0.047 A 
ATOM     30  C   UNL     1       0.618   3.274   0.013  0.00  0.00    +0.135 A 
ATOM     31  O   UNL     1      -0.725   3.158   0.025  0.00  0.00    -0.458 OA
ENDBRANCH  22  23
ENDBRANCH  17  22
ENDBRANCH   1  18
TORSDOF 5
