REMARK  Name = ZINC36207493
REMARK  17 active torsions:
REMARK  status: ('A' for Active; 'I' for Inactive)
REMARK    1  A    between atoms: C_1  and  C_2
REMARK    2  A    between atoms: C_8  and  C_17
REMARK    3  A    between atoms: C_12  and  C_13
REMARK    4  A    between atoms: C_13  and  O_15
REMARK    5  A    between atoms: O_15  and  C_16
REMARK    6  A    between atoms: C_17  and  N_18
REMARK    7  A    between atoms: N_18  and  C_19
REMARK    8  A    between atoms: N_18  and  C_31
REMARK    9  A    between atoms: C_19  and  C_20
REMARK   10  A    between atoms: C_20  and  C_22
REMARK   11  A    between atoms: C_20  and  O_30
REMARK   12  A    between atoms: C_22  and  O_23
REMARK   13  A    between atoms: O_23  and  C_24
REMARK   14  A    between atoms: C_24  and  C_25
REMARK   15  A    between atoms: C_31  and  C_32
REMARK   16  A    between atoms: C_32  and  C_33
REMARK   17  A    between atoms: C_32  and  C_34
REMARK                            x       y       z     vdW  Elec       q    Type
REMARK                         _______ _______ _______ _____ _____    ______ ____
ROOT
ATOM      1  N   UNL     1      -0.549  -4.720  -4.048  0.00  0.00    +0.386 N 
ATOM      2  H   UNL     1      -1.349  -4.826  -3.442  0.00  0.00    -0.081 HD
ENDROOT
BRANCH   1   3
ATOM      3  C   UNL     1      -0.789  -3.616  -4.988  0.00  0.00    -0.003 C 
BRANCH   3  11
ATOM      4  C   UNL     1      -6.349  -3.844  -8.635  0.00  0.00    +0.046 C 
ATOM      5  C   UNL     1      -5.747  -4.634  -7.501  0.00  0.00    -0.015 A 
ATOM      6  C   UNL     1      -4.507  -4.268  -6.974  0.00  0.00    +0.076 A 
ATOM      7  C   UNL     1      -3.616  -3.152  -7.367  0.00  0.00    +0.260 A 
ATOM      8  O   UNL     1      -3.925  -2.394  -8.269  0.00  0.00    -0.267 OA
ATOM      9  N   UNL     1      -2.454  -2.999  -6.702  0.00  0.00    -0.312 N 
ATOM     10  H   UNL     1      -1.859  -2.273  -6.947  0.00  0.00    +0.170 HD
ATOM     11  C   UNL     1      -2.101  -3.837  -5.697  0.00  0.00    +0.094 A 
ATOM     12  N   UNL     1      -2.863  -4.829  -5.325  0.00  0.00    -0.229 NA
ATOM     13  C   UNL     1      -4.027  -5.070  -5.914  0.00  0.00    +0.116 A 
ATOM     14  S   UNL     1      -5.310  -6.280  -5.706  0.00  0.00    -0.062 S 
ATOM     15  C   UNL     1      -6.415  -5.706  -6.984  0.00  0.00    +0.102 A 
BRANCH  15  16
ATOM     16  C   UNL     1      -7.716  -6.251  -7.380  0.00  0.00    +0.346 C 
ATOM     17  O   UNL     1      -8.343  -5.732  -8.284  0.00  0.00    -0.244 OA
BRANCH  16  18
ATOM     18  O   UNL     1      -8.218  -7.328  -6.743  0.00  0.00    -0.464 OA
ATOM     19  C   UNL     1      -9.491  -7.806  -7.182  0.00  0.00    +0.280 C 
ENDBRANCH  16  18
ENDBRANCH  15  16
ENDBRANCH   3  11
ENDBRANCH   1   3
BRANCH   1  20
ATOM     20  C   UNL     1      -0.336  -5.965  -4.799  0.00  0.00    -0.044 C 
BRANCH  20  21
ATOM     21  C   UNL     1      -0.266  -7.142  -3.824  0.00  0.00    +0.124 C 
BRANCH  21  22
ATOM     22  O   UNL     1       0.937  -7.055  -3.057  0.00  0.00    -0.391 OA
ATOM     23  H   UNL     1       1.745  -7.075  -3.588  0.00  0.00    +0.210 HD
ENDBRANCH  21  22
BRANCH  21  24
ATOM     24  C   UNL     1      -0.275  -8.455  -4.610  0.00  0.00    +0.189 C 
BRANCH  24  25
ATOM     25  O   UNL     1      -0.327  -9.555  -3.698  0.00  0.00    -0.370 OA
BRANCH  25  26
ATOM     26  C   UNL     1      -0.341 -10.835  -4.333  0.00  0.00    +0.234 C 
BRANCH  26  27
ATOM     27  C   UNL     1      -0.396 -11.915  -3.283  0.00  0.00    +0.130 A 
ATOM     28  C   UNL     1      -1.515 -12.456  -2.770  0.00  0.00    +0.047 A 
ATOM     29  C   UNL     1      -1.106 -13.424  -1.824  0.00  0.00    +0.041 A 
ATOM     30  C   UNL     1       0.239 -13.416  -1.816  0.00  0.00    +0.195 A 
ATOM     31  O   UNL     1       0.664 -12.505  -2.706  0.00  0.00    -0.465 OA
ENDBRANCH  26  27
ENDBRANCH  25  26
ENDBRANCH  24  25
ENDBRANCH  21  24
ENDBRANCH  20  21
ENDBRANCH   1  20
BRANCH   1  32
ATOM     32  C   UNL     1       0.641  -4.425  -3.240  0.00  0.00    -0.075 C 
BRANCH  32  33
ATOM     33  C   UNL     1       0.399  -3.157  -2.419  0.00  0.00    -0.034 C 
ATOM     34  C   UNL     1      -0.817  -3.362  -1.512  0.00  0.00    +0.005 C 
ATOM     35  C   UNL     1       1.631  -2.861  -1.561  0.00  0.00    +0.005 C 
ENDBRANCH  32  33
ENDBRANCH   1  32
TORSDOF 13
