REMARK  Name = ZINC23257498
REMARK  8 active torsions:
REMARK  status: ('A' for Active; 'I' for Inactive)
REMARK    1  A    between atoms: C_1  and  C_2
REMARK    2  A    between atoms: C_2  and  C_26
REMARK    3  A    between atoms: N_5  and  C_9
REMARK    4  A    between atoms: C_9  and  N_10
REMARK    5  A    between atoms: N_13  and  C_16
REMARK    6  A    between atoms: C_16  and  C_17
REMARK    7  A    between atoms: C_17  and  O_18
REMARK    8  A    between atoms: O_18  and  C_19
REMARK                            x       y       z     vdW  Elec       q    Type
REMARK                         _______ _______ _______ _____ _____    ______ ____
ROOT
ATOM      1  C   UNL     1       2.460   4.127  -1.342  0.00  0.00    +0.047 C 
ATOM      2  C   UNL     1       1.847   3.504  -0.087  0.00  0.00    +0.135 C 
ATOM      3  C   UNL     1       2.089   2.008  -0.061  0.00  0.00    +0.252 C 
ATOM      4  O   UNL     1       3.160   1.440  -0.033  0.00  0.00    -0.272 OA
ATOM      5  N   UNL     1       0.867   1.440  -0.077  0.00  0.00    -0.210 N 
ATOM      6  C   UNL     1      -0.104   2.360  -0.113  0.00  0.00    +0.311 C 
ATOM      7  O   UNL     1      -1.289   2.091  -0.137  0.00  0.00    -0.252 OA
ATOM      8  N   UNL     1       0.379   3.616  -0.116  0.00  0.00    -0.281 N 
ATOM      9  H   UNL     1      -0.097   4.608  -0.136  0.00  0.00    +0.152 HD
ENDROOT
BRANCH   2  10
ATOM     10  C   UNL     1       2.407   4.153   1.153  0.00  0.00    -0.015 A 
ATOM     11  C   UNL     1       3.509   3.606   1.783  0.00  0.00    +0.006 A 
ATOM     12  C   UNL     1       4.020   4.202   2.919  0.00  0.00    +0.004 A 
ATOM     13  C   UNL     1       3.432   5.348   3.430  0.00  0.00    -0.044 A 
ATOM     14  C   UNL     1       2.330   5.894   2.800  0.00  0.00    -0.044 A 
ATOM     15  C   UNL     1       1.822   5.298   1.658  0.00  0.00    +0.010 A 
ATOM     16  C   UNL     1       1.877   7.132   3.545  0.00  0.00    +0.036 C 
ATOM     17  C   UNL     1       2.543   7.034   4.934  0.00  0.00    +0.009 C 
ATOM     18  C   UNL     1       3.795   6.180   4.641  0.00  0.00    +0.036 C 
ENDBRANCH   2  10
BRANCH   5  19
ATOM     19  C   UNL     1       0.631  -0.005  -0.062  0.00  0.00    +0.205 C 
BRANCH  19  20
ATOM     20  N   UNL     1       0.526  -0.470   1.328  0.00  0.00    -0.290 NA
ATOM     21  C   UNL     1       1.856  -0.659   1.922  0.00  0.00    +0.067 C 
ATOM     22  C   UNL     1       1.704  -1.065   3.390  0.00  0.00    -0.063 C 
ATOM     23  N   UNL     1       0.912  -2.301   3.473  0.00  0.00    +0.384 N 
ATOM     24  C   UNL     1      -0.418  -2.112   2.879  0.00  0.00    -0.063 C 
ATOM     25  C   UNL     1      -0.266  -1.706   1.411  0.00  0.00    +0.067 C 
ATOM     26  H   UNL     1       1.435  -3.078   2.897  0.00  0.00    -0.082 HD
BRANCH  23  27
ATOM     27  C   UNL     1       0.807  -2.766   4.863  0.00  0.00    -0.037 C 
BRANCH  27  28
ATOM     28  C   UNL     1       0.425  -4.247   4.878  0.00  0.00    +0.210 C 
BRANCH  28  29
ATOM     29  O   UNL     1       1.478  -5.016   4.293  0.00  0.00    -0.494 OA
BRANCH  29  30
ATOM     30  C   UNL     1       1.296  -6.362   4.228  0.00  0.00    +0.120 A 
ATOM     31  C   UNL     1       0.131  -6.930   4.723  0.00  0.00    +0.047 A 
ATOM     32  C   UNL     1      -0.054  -8.297   4.651  0.00  0.00    +0.023 A 
ATOM     33  C   UNL     1       0.926  -9.101   4.097  0.00  0.00    +0.041 A 
ATOM     34  C   UNL     1       2.091  -8.537   3.608  0.00  0.00    +0.023 A 
ATOM     35  C   UNL     1       2.278  -7.169   3.673  0.00  0.00    +0.047 A 
ATOM     36 CL   UNL     1       0.694 -10.819   4.014  0.00  0.00    -0.084 Cl
ENDBRANCH  29  30
ENDBRANCH  28  29
ENDBRANCH  27  28
ENDBRANCH  23  27
ENDBRANCH  19  20
ENDBRANCH   5  19
TORSDOF 7
