REMARK  Name = ZINC09512641
REMARK  11 active torsions:
REMARK  status: ('A' for Active; 'I' for Inactive)
REMARK    1  A    between atoms: C_1  and  C_2
REMARK    2  A    between atoms: C_2  and  C_4
REMARK    3  A    between atoms: C_2  and  N_58
REMARK    4  A    between atoms: C_7  and  S_16
REMARK    5  A    between atoms: N_8  and  C_9
REMARK    6  A    between atoms: S_16  and  C_17
REMARK    7  A    between atoms: C_17  and  C_18
REMARK    8  A    between atoms: N_20  and  C_21
REMARK    9  A    between atoms: C_22  and  C_29
REMARK   10  A    between atoms: C_32  and  N_58
REMARK   11  A    between atoms: C_33  and  N_58
REMARK                            x       y       z     vdW  Elec       q    Type
REMARK                         _______ _______ _______ _____ _____    ______ ____
ROOT
ATOM      1  S   UNL     1       1.768  -2.116  -0.026  0.00  0.00    -0.076 S 
ENDROOT
BRANCH   1   5
ATOM      2  C   UNL     1       1.202   1.746   0.000  0.00  0.00    +0.125 A 
ATOM      3  N   UNL     1      -0.015   1.281   0.009  0.00  0.00    -0.135 NA
ATOM      4  N   UNL     1       0.002  -0.004   0.002  0.00  0.00    -0.122 NA
ATOM      5  C   UNL     1       1.242  -0.434  -0.012  0.00  0.00    +0.197 A 
ATOM      6  N   UNL     1       2.049   0.670  -0.014  0.00  0.00    -0.275 N 
BRANCH   6   7
ATOM      7  C   UNL     1       3.452   0.696  -0.027  0.00  0.00    +0.050 A 
ATOM      8  C   UNL     1       4.148   1.216   1.055  0.00  0.00    +0.029 A 
ATOM      9  C   UNL     1       5.529   1.234   1.043  0.00  0.00    +0.040 A 
ATOM     10  C   UNL     1       6.219   0.746  -0.053  0.00  0.00    +0.124 A 
ATOM     11  C   UNL     1       5.526   0.232  -1.137  0.00  0.00    +0.040 A 
ATOM     12  C   UNL     1       4.146   0.206  -1.125  0.00  0.00    +0.029 A 
ATOM     13  F   UNL     1       7.570   0.770  -0.066  0.00  0.00    -0.205 F 
ENDBRANCH   6   7
BRANCH   2  15
ATOM     14  C   UNL     1       1.365   3.797  -1.384  0.00  0.00    -0.005 C 
ATOM     15  C   UNL     1       1.603   3.199   0.004  0.00  0.00    -0.003 C 
BRANCH  15  18
ATOM     16  C   UNL     1       0.930   3.319   2.327  0.00  0.00    -0.096 C 
ATOM     17  C   UNL     1       1.163   5.349   1.027  0.00  0.00    -0.096 C 
ATOM     18  N   UNL     1       0.771   3.924   0.987  0.00  0.00    +0.382 N 
ATOM     19  H   UNL     1      -0.213   3.857   0.706  0.00  0.00    -0.082 HD
ENDBRANCH  15  18
ENDBRANCH   2  15
ENDBRANCH   1   5
BRANCH   1  20
ATOM     20  C   UNL     1       0.161  -2.948  -0.015  0.00  0.00    +0.173 C 
BRANCH  20  21
ATOM     21  C   UNL     1       0.368  -4.441  -0.025  0.00  0.00    +0.228 C 
ATOM     22  O   UNL     1       1.491  -4.897  -0.037  0.00  0.00    -0.275 OA
ATOM     23  N   UNL     1      -0.696  -5.269  -0.019  0.00  0.00    -0.279 N 
ATOM     24  H   UNL     1      -1.595  -4.904  -0.009  0.00  0.00    +0.155 HD
BRANCH  23  25
ATOM     25  C   UNL     1      -0.505  -6.642  -0.028  0.00  0.00    +0.084 A 
ATOM     26  C   UNL     1      -1.462  -7.643  -0.019  0.00  0.00    +0.068 A 
ATOM     27  C   UNL     1      -0.992  -9.028  -0.036  0.00  0.00    -0.023 A 
ATOM     28  C   UNL     1       0.345  -9.178  -0.049  0.00  0.00    -0.004 A 
ATOM     29  S   UNL     1       0.985  -7.521  -0.046  0.00  0.00    -0.077 S 
ATOM     30  C   UNL     1       0.750 -10.627  -0.063  0.00  0.00    +0.043 C 
ATOM     31  C   UNL     1      -0.526 -11.384  -0.494  0.00  0.00    +0.010 C 
ATOM     32  C   UNL     1      -1.635 -10.416  -0.035  0.00  0.00    +0.037 C 
BRANCH  26  33
ATOM     33  C   UNL     1      -2.893  -7.326   0.003  0.00  0.00    +0.244 C 
ATOM     34  O   UNL     1      -3.502  -7.191  -1.042  0.00  0.00    -0.270 OA
ATOM     35  N   UNL     1      -3.534  -7.186   1.181  0.00  0.00    -0.325 N 
ATOM     36  H   UNL     1      -3.048  -7.294   2.013  0.00  0.00    +0.145 HD
ATOM     37  H   UNL     1      -4.481  -6.976   1.195  0.00  0.00    +0.145 HD
ENDBRANCH  26  33
ENDBRANCH  23  25
ENDBRANCH  20  21
ENDBRANCH   1  20
TORSDOF 8
