REMARK  Name = ZINC15664625
REMARK  8 active torsions:
REMARK  status: ('A' for Active; 'I' for Inactive)
REMARK    1  A    between atoms: C_4  and  C_7
REMARK    2  A    between atoms: C_7  and  N_8
REMARK    3  A    between atoms: N_8  and  S_9
REMARK    4  A    between atoms: S_9  and  C_12
REMARK    5  A    between atoms: C_16  and  C_18
REMARK    6  A    between atoms: N_20  and  N_21
REMARK    7  A    between atoms: C_22  and  C_24
REMARK    8  A    between atoms: C_27  and  C_29
REMARK                            x       y       z     vdW  Elec       q    Type
REMARK                         _______ _______ _______ _____ _____    ______ ____
ROOT
ATOM      1  C   UNL     1      -1.222   1.748   0.017  0.00  0.00    +0.106 A 
ATOM      2  C   UNL     1      -0.013   1.076   0.008  0.00  0.00    +0.028 A 
ATOM      3  C   UNL     1       1.178   1.781   0.000  0.00  0.00    +0.003 A 
ATOM      4  C   UNL     1       1.166   3.160   0.008  0.00  0.00    +0.013 A 
ATOM      5  C   UNL     1      -0.050   3.845   0.023  0.00  0.00    +0.040 A 
ATOM      6  C   UNL     1      -1.248   3.127   0.031  0.00  0.00    +0.041 A 
ENDROOT
BRANCH   5   7
ATOM      7  C   UNL     1      -0.070   5.323   0.032  0.00  0.00    +0.260 C 
ATOM      8  O   UNL     1      -1.131   5.916   0.045  0.00  0.00    -0.269 OA
ATOM      9  N   UNL     1       1.088   6.013   0.025  0.00  0.00    -0.230 N 
ATOM     10  H   UNL     1       1.934   5.539   0.014  0.00  0.00    +0.173 HD
BRANCH   9  11
ATOM     11  N   UNL     1       1.069   7.414   0.033  0.00  0.00    -0.229 N 
ATOM     12  C   UNL     1       2.227   8.103   0.026  0.00  0.00    +0.279 C 
ATOM     13  O   UNL     1       3.288   7.510   0.013  0.00  0.00    -0.267 OA
ATOM     14  H   UNL     1       0.222   7.887   0.044  0.00  0.00    +0.173 HD
BRANCH  12  15
ATOM     15  C   UNL     1       2.207   9.576   0.035  0.00  0.00    +0.135 A 
ATOM     16  C   UNL     1       3.380  10.287   0.028  0.00  0.00    +0.080 A 
ATOM     17  S   UNL     1       2.798  11.923   0.042  0.00  0.00    -0.074 S 
ATOM     18  C   UNL     1       1.050  11.554   0.056  0.00  0.00    +0.116 A 
ATOM     19  N   UNL     1       1.055  10.232   0.044  0.00  0.00    -0.234 NA
BRANCH  18  20
ATOM     20  C   UNL     1      -0.094  12.480   0.072  0.00  0.00    +0.044 A 
ATOM     21  C   UNL     1      -0.096  13.852   0.085  0.00  0.00    +0.018 A 
ATOM     22  C   UNL     1      -1.305  14.510   0.094  0.00  0.00    +0.008 A 
ATOM     23  C   UNL     1      -2.454  13.785   0.101  0.00  0.00    +0.046 A 
ATOM     24  S   UNL     1      -1.840  12.109   0.087  0.00  0.00    -0.095 S 
ENDBRANCH  18  20
ENDBRANCH  12  15
ENDBRANCH   9  11
ENDBRANCH   5   7
BRANCH   1  25
ATOM     25  S   UNL     1      -2.732   0.841   0.019  0.00  0.00    +0.059 S 
ATOM     26  O   UNL     1      -3.724   1.702  -0.522  0.00  0.00    -0.153 OA
ATOM     27  O   UNL     1      -2.442  -0.433  -0.540  0.00  0.00    -0.153 OA
BRANCH  25  28
ATOM     28  N   UNL     1      -3.145   0.580   1.601  0.00  0.00    -0.186 NA
ATOM     29  H   UNL     1      -3.165  -0.324   1.955  0.00  0.00    +0.148 HD
BRANCH  28  30
ATOM     30  C   UNL     1      -3.480   1.712   2.468  0.00  0.00    +0.141 C 
BRANCH  30  34
ATOM     31  C   UNL     1      -5.412   0.283   5.999  0.00  0.00    +0.000 A 
ATOM     32  C   UNL     1      -4.037   0.414   5.969  0.00  0.00    +0.000 A 
ATOM     33  C   UNL     1      -3.411   0.877   4.826  0.00  0.00    +0.005 A 
ATOM     34  C   UNL     1      -4.162   1.208   3.713  0.00  0.00    -0.032 A 
ATOM     35  C   UNL     1      -5.538   1.082   3.745  0.00  0.00    +0.005 A 
ATOM     36  C   UNL     1      -6.163   0.614   4.886  0.00  0.00    +0.000 A 
ENDBRANCH  30  34
ENDBRANCH  28  30
ENDBRANCH  25  28
ENDBRANCH   1  25
TORSDOF 8
