REMARK  Name = ZINC37069305
REMARK  7 active torsions:
REMARK  status: ('A' for Active; 'I' for Inactive)
REMARK    1  A    between atoms: C_1  and  C_2
REMARK    2  A    between atoms: C_5  and  N_12
REMARK    3  A    between atoms: C_8  and  C_10
REMARK    4  A    between atoms: C_8  and  C_11
REMARK    5  A    between atoms: N_12  and  C_13
REMARK    6  A    between atoms: C_15  and  C_20
REMARK    7  A    between atoms: N_22  and  C_23
REMARK                            x       y       z     vdW  Elec       q    Type
REMARK                         _______ _______ _______ _____ _____    ______ ____
ROOT
ATOM      1  C   UNL     1       0.718  -2.636  -3.669  0.00  0.00    +0.047 A 
ATOM      2  C   UNL     1      -0.630  -2.319  -3.718  0.00  0.00    +0.037 A 
ATOM      3  C   UNL     1      -1.331  -2.457  -4.916  0.00  0.00    +0.039 A 
ATOM      4  C   UNL     1      -0.670  -2.913  -6.059  0.00  0.00    +0.014 A 
ATOM      5  C   UNL     1       0.672  -3.226  -6.000  0.00  0.00    +0.022 A 
ATOM      6  C   UNL     1       1.369  -3.085  -4.813  0.00  0.00    +0.062 A 
ATOM      7 CL   UNL     1       3.059  -3.475  -4.751  0.00  0.00    -0.082 Cl
ENDROOT
BRANCH   3   8
ATOM      8  C   UNL     1      -2.770  -2.121  -4.977  0.00  0.00    +0.244 C 
ATOM      9  O   UNL     1      -3.343  -1.725  -3.981  0.00  0.00    -0.270 OA
ATOM     10  N   UNL     1      -3.445  -2.255  -6.135  0.00  0.00    -0.314 N 
ATOM     11  C   UNL     1      -4.870  -1.922  -6.195  0.00  0.00    +0.128 C 
ATOM     12  H   UNL     1      -2.987  -2.571  -6.930  0.00  0.00    +0.149 HD
ENDBRANCH   3   8
BRANCH   1  13
ATOM     13  N   UNL     1       1.425  -2.500  -2.470  0.00  0.00    -0.340 N 
ATOM     14  H   UNL     1       2.369  -2.718  -2.437  0.00  0.00    +0.146 HD
BRANCH  13  18
ATOM     15  C   UNL     1      -0.019   1.526   0.010  0.00  0.00    +0.007 C 
ATOM     16  C   UNL     1       0.002  -0.004   0.002  0.00  0.00    -0.012 C 
ATOM     17  C   UNL     1       0.718  -0.497  -1.257  0.00  0.00    +0.025 C 
ATOM     18  C   UNL     1       0.739  -2.027  -1.265  0.00  0.00    +0.071 C 
ATOM     19  C   UNL     1       1.479  -2.534  -0.026  0.00  0.00    +0.028 C 
ATOM     20  C   UNL     1       0.763  -2.041   1.233  0.00  0.00    -0.033 C 
ATOM     21  C   UNL     1       0.742  -0.511   1.242  0.00  0.00    +0.009 C 
ATOM     22  C   UNL     1       1.503  -2.548   2.473  0.00  0.00    +0.011 C 
ATOM     23  C   UNL     1      -0.673  -2.570   1.244  0.00  0.00    +0.011 C 
ENDBRANCH  13  18
ENDBRANCH   1  13
TORSDOF 3
