REMARK  Name = ZINC48990026
REMARK  2 active torsions:
REMARK  status: ('A' for Active; 'I' for Inactive)
REMARK    1  A    between atoms: C_6  and  C_7
REMARK    2  A    between atoms: N_21  and  C_24
REMARK                            x       y       z     vdW  Elec       q    Type
REMARK                         _______ _______ _______ _____ _____    ______ ____
ROOT
ATOM      1  C   UNL     1      -4.283  -4.258  -1.041  0.00  0.00    +0.015 A 
ATOM      2  C   UNL     1      -4.984  -3.667  -0.041  0.00  0.00    +0.056 A 
ATOM      3  S   UNL     1      -4.109  -2.291   0.355  0.00  0.00    -0.089 S 
ATOM      4  C   UNL     1      -2.771  -2.438  -0.793  0.00  0.00    +0.103 A 
ATOM      5  C   UNL     1      -3.055  -3.623  -1.488  0.00  0.00    +0.094 A 
ATOM      6  N   UNL     1      -2.172  -3.998  -2.452  0.00  0.00    -0.215 NA
ATOM      7  C   UNL     1      -1.106  -3.290  -2.719  0.00  0.00    +0.199 A 
ATOM      8  N   UNL     1      -0.802  -2.136  -2.056  0.00  0.00    -0.294 N 
ATOM      9  H   UNL     1      -0.000  -1.639  -2.283  0.00  0.00    +0.172 HD
ATOM     10  C   UNL     1      -1.633  -1.685  -1.087  0.00  0.00    +0.267 A 
ATOM     11  O   UNL     1      -1.387  -0.658  -0.477  0.00  0.00    -0.267 OA
ATOM     12  N   UNL     1      -0.256  -3.725  -3.706  0.00  0.00    -0.305 N 
ATOM     13  C   UNL     1      -0.597  -4.889  -4.538  0.00  0.00    +0.089 C 
ATOM     14  C   UNL     1       0.596  -5.852  -4.540  0.00  0.00    -0.059 C 
ATOM     15  N   UNL     1       1.802  -5.133  -4.968  0.00  0.00    +0.384 N 
ATOM     16  C   UNL     1       2.138  -4.091  -3.990  0.00  0.00    -0.059 C 
ATOM     17  C   UNL     1       1.019  -3.038  -3.964  0.00  0.00    +0.089 C 
ATOM     18  H   UNL     1       1.638  -4.707  -5.868  0.00  0.00    -0.081 HD
ENDROOT
BRANCH   1  24
ATOM     19  C   UNL     1      -5.116  -6.601  -0.854  0.00  0.00    +0.011 A 
ATOM     20  C   UNL     1      -5.555  -7.774  -1.433  0.00  0.00    +0.039 A 
ATOM     21  C   UNL     1      -5.638  -7.880  -2.812  0.00  0.00    +0.123 A 
ATOM     22  C   UNL     1      -5.280  -6.810  -3.615  0.00  0.00    +0.039 A 
ATOM     23  C   UNL     1      -4.839  -5.633  -3.046  0.00  0.00    +0.011 A 
ATOM     24  C   UNL     1      -4.755  -5.521  -1.659  0.00  0.00    -0.015 A 
ATOM     25  F   UNL     1      -6.068  -9.030  -3.374  0.00  0.00    -0.205 F 
ENDBRANCH   1  24
BRANCH  15  26
ATOM     26  C   UNL     1       2.921  -6.079  -5.076  0.00  0.00    -0.068 C 
ATOM     27  C   UNL     1       4.180  -5.333  -5.521  0.00  0.00    -0.015 C 
ATOM     28  C   UNL     1       5.345  -6.318  -5.633  0.00  0.00    -0.002 C 
ATOM     29  C   UNL     1       5.002  -7.399  -6.661  0.00  0.00    -0.000 C 
ATOM     30  C   UNL     1       3.743  -8.145  -6.215  0.00  0.00    -0.002 C 
ATOM     31  C   UNL     1       2.578  -7.160  -6.103  0.00  0.00    -0.015 C 
ENDBRANCH  15  26
TORSDOF 2
