REMARK  Name = ZINC39524312
REMARK  3 active torsions:
REMARK  status: ('A' for Active; 'I' for Inactive)
REMARK    1  A    between atoms: C_4  and  O_22
REMARK    2  A    between atoms: C_5  and  C_7
REMARK    3  A    between atoms: C_17  and  O_21
REMARK                            x       y       z     vdW  Elec       q    Type
REMARK                         _______ _______ _______ _____ _____    ______ ____
ROOT
ATOM      1  C   UNL     1       1.227  -2.187  -0.022  0.00  0.00    +0.024 C 
ATOM      2  C   UNL     1       0.500  -2.699  -1.267  0.00  0.00    +0.008 C 
ATOM      3  C   UNL     1       0.520  -4.229  -1.275  0.00  0.00    +0.002 C 
ATOM      4  C   UNL     1      -0.182  -4.755  -0.022  0.00  0.00    +0.024 C 
ATOM      5  C   UNL     1       0.545  -4.243   1.223  0.00  0.00    +0.040 C 
ATOM      6  C   UNL     1       0.525  -2.713   1.232  0.00  0.00    +0.032 C 
ATOM      7  C   UNL     1      -0.161  -4.768   2.476  0.00  0.00    +0.024 C 
ATOM      8  C   UNL     1       0.580  -4.272   3.720  0.00  0.00    +0.006 C 
ATOM      9  C   UNL     1       2.037  -4.739   3.656  0.00  0.00    +0.049 C 
ATOM     10  C   UNL     1       2.679  -4.213   2.370  0.00  0.00    +0.200 C 
ATOM     11  N   UNL     1       1.935  -4.716   1.209  0.00  0.00    -0.186 NA
ATOM     12 CL   UNL     1       2.001  -6.423   1.130  0.00  0.00    -0.018 Cl
ENDROOT
BRANCH   1  17
ATOM     13  C   UNL     1      -0.017   1.378   0.010  0.00  0.00    +0.001 A 
ATOM     14  C   UNL     1       1.170   2.088   0.002  0.00  0.00    +0.004 A 
ATOM     15  C   UNL     1       2.377   1.417  -0.013  0.00  0.00    +0.046 A 
ATOM     16  C   UNL     1       2.399   0.030  -0.021  0.00  0.00    +0.120 A 
ATOM     17  C   UNL     1       1.207  -0.680  -0.013  0.00  0.00    -0.003 A 
ATOM     18  C   UNL     1       0.002  -0.004   0.002  0.00  0.00    +0.007 A 
BRANCH  16  19
ATOM     19  O   UNL     1       3.586  -0.632  -0.037  0.00  0.00    -0.506 OA
ATOM     20  H   UNL     1       3.938  -0.829   0.842  0.00  0.00    +0.292 HD
ENDBRANCH  16  19
ENDBRANCH   1  17
BRANCH  10  21
ATOM     21  O   UNL     1       2.650  -2.784   2.373  0.00  0.00    -0.376 OA
ATOM     22  H   UNL     1       3.124  -2.382   3.114  0.00  0.00    +0.211 HD
ENDBRANCH  10  21
TORSDOF 3
