REMARK  Name = ZINC05100887
REMARK  8 active torsions:
REMARK  status: ('A' for Active; 'I' for Inactive)
REMARK    1  A    between atoms: C_1  and  C_2
REMARK    2  A    between atoms: C_2  and  C_3
REMARK    3  A    between atoms: C_3  and  C_5
REMARK    4  A    between atoms: C_3  and  N_6
REMARK    5  A    between atoms: C_7  and  C_9
REMARK    6  A    between atoms: N_20  and  N_23
REMARK    7  A    between atoms: C_21  and  N_22
REMARK    8  A    between atoms: C_24  and  C_25
REMARK                            x       y       z     vdW  Elec       q    Type
REMARK                         _______ _______ _______ _____ _____    ______ ____
ROOT
ATOM      1  C   UNL     1      -2.480   1.367  -2.848  0.00  0.00    +0.105 A 
ATOM      2  C   UNL     1      -2.176   1.039  -4.251  0.00  0.00    +0.124 A 
ATOM      3  C   UNL     1      -3.168   1.770  -5.045  0.00  0.00    +0.183 A 
ATOM      4  N   UNL     1      -3.148   1.668  -6.357  0.00  0.00    -0.224 NA
ATOM      5  C   UNL     1      -2.230   0.897  -6.952  0.00  0.00    +0.092 A 
ATOM      6  C   UNL     1      -2.202   0.782  -8.355  0.00  0.00    +0.030 A 
ATOM      7  C   UNL     1      -1.266  -0.004  -8.951  0.00  0.00    +0.002 A 
ATOM      8  C   UNL     1      -0.327  -0.702  -8.194  0.00  0.00    +0.002 A 
ATOM      9  C   UNL     1      -0.323  -0.617  -6.836  0.00  0.00    +0.030 A 
ATOM     10  C   UNL     1      -1.276   0.186  -6.182  0.00  0.00    +0.090 A 
ATOM     11  N   UNL     1      -1.281   0.278  -4.847  0.00  0.00    -0.241 NA
ATOM     12  N   UNL     1      -3.965   2.464  -4.155  0.00  0.00    -0.198 N 
ATOM     13  C   UNL     1      -3.568   2.232  -2.871  0.00  0.00    +0.134 A 
ENDROOT
BRANCH   1  15
ATOM     14  N   UNL     1      -0.721   1.571  -1.179  0.00  0.00    -0.309 N 
ATOM     15  C   UNL     1      -1.773   0.883  -1.664  0.00  0.00    +0.250 C 
ATOM     16  O   UNL     1      -2.135  -0.143  -1.116  0.00  0.00    -0.270 OA
ATOM     17  H   UNL     1      -0.433   2.388  -1.615  0.00  0.00    +0.149 HD
BRANCH  14  18
ATOM     18  C   UNL     1      -0.013   1.086   0.008  0.00  0.00    +0.070 C 
ATOM     19  C   UNL     1      -0.729   1.579   1.267  0.00  0.00    +0.028 C 
BRANCH  18  21
ATOM     20  C   UNL     1       2.176   1.022  -1.195  0.00  0.00    +0.005 C 
ATOM     21  C   UNL     1       1.423   1.615  -0.003  0.00  0.00    +0.018 C 
ENDBRANCH  18  21
ENDBRANCH  14  18
ENDBRANCH   1  15
BRANCH  13  22
ATOM     22  N   UNL     1      -4.159   2.776  -1.760  0.00  0.00    -0.342 N 
ATOM     23  H   UNL     1      -3.819   2.564  -0.876  0.00  0.00    +0.144 HD
ATOM     24  H   UNL     1      -4.917   3.374  -1.857  0.00  0.00    +0.144 HD
ENDBRANCH  13  22
BRANCH  12  25
ATOM     25  N   UNL     1      -5.034   3.292  -4.521  0.00  0.00    -0.171 NA
ATOM     26  C   UNL     1      -4.829   4.553  -4.749  0.00  0.00    +0.141 C 
BRANCH  26  27
ATOM     27  C   UNL     1      -5.954   5.425  -5.135  0.00  0.00    -0.005 A 
ATOM     28  C   UNL     1      -7.240   4.895  -5.262  0.00  0.00    +0.011 A 
ATOM     29  C   UNL     1      -8.289   5.717  -5.618  0.00  0.00    +0.020 A 
ATOM     30  C   UNL     1      -8.067   7.062  -5.860  0.00  0.00    +0.041 A 
ATOM     31  C   UNL     1      -6.793   7.593  -5.741  0.00  0.00    +0.020 A 
ATOM     32  C   UNL     1      -5.737   6.783  -5.380  0.00  0.00    +0.011 A 
ATOM     33 CL   UNL     1      -9.392   8.089  -6.315  0.00  0.00    -0.084 Cl
ENDBRANCH  26  27
ENDBRANCH  12  25
TORSDOF 6
