REMARK  Name = ZINC06870630
REMARK  5 active torsions:
REMARK  status: ('A' for Active; 'I' for Inactive)
REMARK    1  A    between atoms: C_1  and  C_2
REMARK    2  A    between atoms: C_2  and  O_3
REMARK    3  A    between atoms: O_3  and  C_4
REMARK    4  A    between atoms: C_9  and  N_10
REMARK    5  A    between atoms: C_16  and  C_17
REMARK                            x       y       z     vdW  Elec       q    Type
REMARK                         _______ _______ _______ _____ _____    ______ ____
ROOT
ATOM      1  N   UNL     1      -1.071   2.136   1.431  0.00  0.00    -0.222 NA
ATOM      2  C   UNL     1      -1.117   3.432   1.222  0.00  0.00    +0.166 C 
ATOM      3  N   UNL     1      -2.204   4.275   1.302  0.00  0.00    -0.260 N 
ATOM      4  C   UNL     1      -2.073   5.569   1.061  0.00  0.00    +0.256 C 
ATOM      5  O   UNL     1      -3.021   6.329   1.131  0.00  0.00    -0.269 OA
ATOM      6  C   UNL     1      -0.725   6.048   0.696  0.00  0.00    +0.078 C 
ATOM      7  C   UNL     1      -0.309   7.304   0.395  0.00  0.00    +0.028 C 
ATOM      8  S   UNL     1       0.213   4.528   0.756  0.00  0.00    -0.049 S 
ATOM      9  H   UNL     1      -3.193   3.874   1.568  0.00  0.00    +0.157 HD
ENDROOT
BRANCH   7  10
ATOM     10  C   UNL     1       1.124   7.585   0.235  0.00  0.00    -0.024 A 
ATOM     11  C   UNL     1       2.077   6.681   0.718  0.00  0.00    +0.009 A 
ATOM     12  C   UNL     1       3.419   6.949   0.560  0.00  0.00    +0.020 A 
ATOM     13  C   UNL     1       3.827   8.117  -0.066  0.00  0.00    +0.041 A 
ATOM     14  C   UNL     1       2.889   9.019  -0.542  0.00  0.00    +0.020 A 
ATOM     15  C   UNL     1       1.543   8.762  -0.396  0.00  0.00    +0.009 A 
ATOM     16 CL   UNL     1       5.520   8.450  -0.255  0.00  0.00    -0.084 Cl
ENDBRANCH   7  10
BRANCH   1  22
ATOM     17  C   UNL     1       0.255   0.343   0.543  0.00  0.00    +0.146 A 
ATOM     18  C   UNL     1       1.469  -0.318   0.473  0.00  0.00    +0.048 A 
ATOM     19  C   UNL     1       2.549   0.136   1.209  0.00  0.00    +0.004 A 
ATOM     20  C   UNL     1       2.425   1.251   2.018  0.00  0.00    +0.002 A 
ATOM     21  C   UNL     1       1.220   1.922   2.098  0.00  0.00    +0.031 A 
ATOM     22  C   UNL     1       0.124   1.472   1.360  0.00  0.00    +0.108 A 
BRANCH  17  23
ATOM     23  O   UNL     1      -0.807  -0.103  -0.180  0.00  0.00    -0.490 OA
BRANCH  23  25
ATOM     24  C   UNL     1      -1.897  -1.610  -1.723  0.00  0.00    +0.048 C 
ATOM     25  C   UNL     1      -0.600  -1.261  -0.991  0.00  0.00    +0.226 C 
ENDBRANCH  23  25
ENDBRANCH  17  23
ENDBRANCH   1  22
TORSDOF 4
