REMARK  Name = ZINC36303417
REMARK  18 active torsions:
REMARK  status: ('A' for Active; 'I' for Inactive)
REMARK    1  A    between atoms: C_1  and  C_2
REMARK    2  A    between atoms: C_2  and  C_3
REMARK    3  A    between atoms: C_4  and  C_22
REMARK    4  A    between atoms: C_5  and  O_15
REMARK    5  A    between atoms: N_6  and  C_8
REMARK    6  A    between atoms: O_15  and  C_16
REMARK    7  A    between atoms: C_22  and  N_23
REMARK    8  A    between atoms: N_23  and  C_24
REMARK    9  A    between atoms: N_23  and  C_30
REMARK   10  A    between atoms: C_24  and  C_25
REMARK   11  A    between atoms: C_30  and  C_31
REMARK   12  A    between atoms: C_31  and  C_33
REMARK   13  A    between atoms: C_31  and  O_39
REMARK   14  A    between atoms: C_33  and  O_34
REMARK   15  A    between atoms: O_34  and  C_35
REMARK   16  A    between atoms: C_35  and  C_36
REMARK   17  A    between atoms: C_35  and  C_37
REMARK   18  A    between atoms: C_35  and  C_38
REMARK                            x       y       z     vdW  Elec       q    Type
REMARK                         _______ _______ _______ _____ _____    ______ ____
ROOT
ATOM      1  C   UNL     1       1.044  -0.205  -1.063  0.00  0.00    +0.068 A 
ATOM      2  C   UNL     1      -0.094  -0.319  -1.867  0.00  0.00    +0.021 A 
ATOM      3  C   UNL     1       0.310  -0.691  -3.111  0.00  0.00    +0.225 A 
ATOM      4  N   UNL     1       1.665  -0.806  -3.084  0.00  0.00    -0.200 N 
ATOM      5  N   UNL     1       2.095  -0.490  -1.789  0.00  0.00    -0.168 NA
ENDROOT
BRANCH   4   6
ATOM      6  C   UNL     1       2.485  -1.171  -4.161  0.00  0.00    +0.069 A 
ATOM      7  C   UNL     1       2.096  -2.192  -5.017  0.00  0.00    +0.031 A 
ATOM      8  C   UNL     1       2.905  -2.549  -6.077  0.00  0.00    +0.040 A 
ATOM      9  C   UNL     1       4.105  -1.890  -6.287  0.00  0.00    +0.124 A 
ATOM     10  C   UNL     1       4.495  -0.872  -5.434  0.00  0.00    +0.040 A 
ATOM     11  C   UNL     1       3.686  -0.507  -4.376  0.00  0.00    +0.031 A 
ATOM     12  F   UNL     1       4.896  -2.242  -7.324  0.00  0.00    -0.205 F 
ENDBRANCH   4   6
BRANCH   1  14
ATOM     13  C   UNL     1       1.180   1.706   0.511  0.00  0.00    +0.010 C 
ATOM     14  C   UNL     1       1.058   0.185   0.393  0.00  0.00    +0.054 C 
ENDBRANCH   1  14
BRANCH   3  15
ATOM     15  O   UNL     1      -0.492  -0.907  -4.185  0.00  0.00    -0.438 OA
BRANCH  15  16
ATOM     16  C   UNL     1      -1.070  -2.130  -4.312  0.00  0.00    +0.130 A 
ATOM     17  C   UNL     1      -0.933  -3.073  -3.303  0.00  0.00    +0.046 A 
ATOM     18  C   UNL     1      -1.522  -4.315  -3.436  0.00  0.00    +0.004 A 
ATOM     19  C   UNL     1      -2.246  -4.621  -4.573  0.00  0.00    +0.000 A 
ATOM     20  C   UNL     1      -2.384  -3.684  -5.580  0.00  0.00    +0.004 A 
ATOM     21  C   UNL     1      -1.803  -2.437  -5.450  0.00  0.00    +0.046 A 
ENDBRANCH  15  16
ENDBRANCH   3  15
BRANCH   2  22
ATOM     22  C   UNL     1      -1.516  -0.073  -1.433  0.00  0.00    -0.035 C 
BRANCH  22  23
ATOM     23  N   UNL     1      -1.828   1.357  -1.565  0.00  0.00    +0.389 N 
ATOM     24  H   UNL     1      -1.149   1.898  -1.050  0.00  0.00    -0.081 HD
BRANCH  23  25
ATOM     25  C   UNL     1      -3.170   1.616  -1.028  0.00  0.00    -0.003 C 
BRANCH  25  26
ATOM     26  C   UNL     1      -3.179   1.345   0.455  0.00  0.00    +0.089 A 
ATOM     27  C   UNL     1      -2.951   2.251   1.422  0.00  0.00    +0.042 A 
ATOM     28  C   UNL     1      -3.058   1.569   2.656  0.00  0.00    +0.041 A 
ATOM     29  C   UNL     1      -3.344   0.287   2.369  0.00  0.00    +0.195 A 
ATOM     30  O   UNL     1      -3.423   0.158   1.034  0.00  0.00    -0.470 OA
ENDBRANCH  25  26
ENDBRANCH  23  25
BRANCH  23  31
ATOM     31  C   UNL     1      -1.785   1.738  -2.983  0.00  0.00    -0.044 C 
BRANCH  31  32
ATOM     32  C   UNL     1      -1.987   3.249  -3.110  0.00  0.00    +0.124 C 
BRANCH  32  33
ATOM     33  O   UNL     1      -0.887   3.930  -2.502  0.00  0.00    -0.391 OA
ATOM     34  H   UNL     1      -0.029   3.722  -2.897  0.00  0.00    +0.210 HD
ENDBRANCH  32  33
BRANCH  32  35
ATOM     35  C   UNL     1      -2.067   3.630  -4.590  0.00  0.00    +0.189 C 
BRANCH  35  36
ATOM     36  O   UNL     1      -2.371   5.021  -4.708  0.00  0.00    -0.372 OA
BRANCH  36  37
ATOM     37  C   UNL     1      -2.469   5.482  -6.057  0.00  0.00    +0.061 C 
ATOM     38  C   UNL     1      -3.579   4.715  -6.779  0.00  0.00    +0.041 C 
ATOM     39  C   UNL     1      -2.796   6.977  -6.063  0.00  0.00    +0.041 C 
ATOM     40  C   UNL     1      -1.138   5.249  -6.774  0.00  0.00    +0.041 C 
ENDBRANCH  36  37
ENDBRANCH  35  36
ENDBRANCH  32  35
ENDBRANCH  31  32
ENDBRANCH  23  31
ENDBRANCH  22  23
ENDBRANCH   2  22
TORSDOF 14
