REMARK  Name = ZINC12218611
REMARK  15 active torsions:
REMARK  status: ('A' for Active; 'I' for Inactive)
REMARK    1  A    between atoms: C_1  and  C_2
REMARK    2  A    between atoms: C_5  and  C_8
REMARK    3  A    between atoms: N_10  and  C_11
REMARK    4  A    between atoms: N_10  and  C_20
REMARK    5  A    between atoms: C_11  and  C_12
REMARK    6  A    between atoms: C_12  and  C_13
REMARK    7  A    between atoms: C_13  and  N_14
REMARK    8  A    between atoms: C_20  and  C_21
REMARK    9  A    between atoms: C_24  and  O_35
REMARK   10  A    between atoms: C_27  and  O_33
REMARK   11  A    between atoms: C_29  and  N_30
REMARK   12  A    between atoms: N_30  and  C_31
REMARK   13  A    between atoms: N_30  and  C_32
REMARK   14  A    between atoms: O_33  and  C_34
REMARK   15  A    between atoms: O_35  and  C_36
REMARK                            x       y       z     vdW  Elec       q    Type
REMARK                         _______ _______ _______ _____ _____    ______ ____
ROOT
ATOM      1  C   UNL     1      -0.138   1.236  -0.523  0.00  0.00    +0.247 C 
ATOM      2  O   UNL     1      -1.022   1.865   0.025  0.00  0.00    -0.270 OA
ATOM      3  N   UNL     1      -0.205  -0.109  -0.583  0.00  0.00    -0.293 N 
ENDROOT
BRANCH   1   8
ATOM      4  C   UNL     1       4.346   3.998  -2.841  0.00  0.00    +0.044 C 
ATOM      5  C   UNL     1       3.172   3.275  -2.234  0.00  0.00    -0.050 A 
ATOM      6  C   UNL     1       1.946   3.909  -2.142  0.00  0.00    +0.004 A 
ATOM      7  C   UNL     1       0.867   3.252  -1.587  0.00  0.00    +0.013 A 
ATOM      8  C   UNL     1       1.014   1.945  -1.119  0.00  0.00    +0.037 A 
ATOM      9  C   UNL     1       2.255   1.314  -1.211  0.00  0.00    +0.013 A 
ATOM     10  C   UNL     1       3.325   1.980  -1.772  0.00  0.00    +0.004 A 
ENDBRANCH   1   8
BRANCH   3  11
ATOM     11  C   UNL     1       0.823  -0.863  -1.305  0.00  0.00    +0.110 C 
BRANCH  11  12
ATOM     12  C   UNL     1       1.708  -1.605  -0.303  0.00  0.00    +0.038 C 
BRANCH  12  13
ATOM     13  C   UNL     1       2.782  -2.393  -1.057  0.00  0.00    +0.109 C 
BRANCH  13  14
ATOM     14  N   UNL     1       3.631  -3.104  -0.098  0.00  0.00    -0.301 N 
ATOM     15  C   UNL     1       4.854  -2.551   0.495  0.00  0.00    +0.108 C 
ATOM     16  C   UNL     1       5.148  -3.435   1.729  0.00  0.00    +0.028 C 
ATOM     17  C   UNL     1       4.463  -4.764   1.333  0.00  0.00    +0.097 C 
ATOM     18  C   UNL     1       3.392  -4.349   0.348  0.00  0.00    +0.216 C 
ATOM     19  O   UNL     1       2.454  -5.040   0.010  0.00  0.00    -0.276 OA
ENDBRANCH  13  14
ENDBRANCH  12  13
ENDBRANCH  11  12
ENDBRANCH   3  11
BRANCH   3  20
ATOM     20  C   UNL     1      -1.307  -0.817   0.075  0.00  0.00    +0.146 C 
BRANCH  20  21
ATOM     21  C   UNL     1      -2.424  -1.034  -0.912  0.00  0.00    +0.009 A 
ATOM     22  C   UNL     1      -3.486  -0.179  -0.942  0.00  0.00    +0.022 A 
ATOM     23  C   UNL     1      -4.509  -0.417  -1.879  0.00  0.00    +0.044 A 
ATOM     24  C   UNL     1      -5.633   0.427  -1.963  0.00  0.00    +0.129 A 
ATOM     25  C   UNL     1      -6.613   0.162  -2.893  0.00  0.00    +0.050 A 
ATOM     26  C   UNL     1      -6.503  -0.931  -3.748  0.00  0.00    +0.051 A 
ATOM     27  C   UNL     1      -5.425  -1.766  -3.689  0.00  0.00    +0.144 A 
ATOM     28  C   UNL     1      -4.402  -1.527  -2.751  0.00  0.00    +0.093 A 
ATOM     29  C   UNL     1      -2.372  -2.113  -1.806  0.00  0.00    +0.104 A 
ATOM     30  N   UNL     1      -3.331  -2.394  -2.724  0.00  0.00    -0.340 N 
ATOM     31  H   UNL     1      -3.263  -3.199  -3.356  0.00  0.00    +0.167 HD
BRANCH  29  32
ATOM     32  N   UNL     1      -1.283  -2.972  -1.768  0.00  0.00    -0.322 N 
ATOM     33  C   UNL     1      -1.571  -4.151  -0.940  0.00  0.00    +0.130 C 
ATOM     34  C   UNL     1      -0.878  -3.367  -3.124  0.00  0.00    +0.130 C 
ENDBRANCH  29  32
BRANCH  27  35
ATOM     35  O   UNL     1      -5.340  -2.828  -4.535  0.00  0.00    -0.493 OA
ATOM     36  C   UNL     1      -6.414  -3.009  -5.460  0.00  0.00    +0.277 C 
ENDBRANCH  27  35
BRANCH  24  37
ATOM     37  O   UNL     1      -5.749   1.497  -1.133  0.00  0.00    -0.494 OA
ATOM     38  C   UNL     1      -6.917   2.307  -1.278  0.00  0.00    +0.277 C 
ENDBRANCH  24  37
ENDBRANCH  20  21
ENDBRANCH   3  20
TORSDOF 10
