REMARK  Name = ZINC26957665
REMARK  5 active torsions:
REMARK  status: ('A' for Active; 'I' for Inactive)
REMARK    1  A    between atoms: C_4  and  O_27
REMARK    2  A    between atoms: C_5  and  C_7
REMARK    3  A    between atoms: C_8  and  C_9
REMARK    4  A    between atoms: N_19  and  C_20
REMARK    5  A    between atoms: C_24  and  O_26
REMARK                            x       y       z     vdW  Elec       q    Type
REMARK                         _______ _______ _______ _____ _____    ______ ____
ROOT
ATOM      1  C   UNL     1       3.557   3.214   0.089  0.00  0.00    +0.141 A 
ATOM      2  N   UNL     1       4.720   3.823   0.084  0.00  0.00    -0.229 NA
ATOM      3  C   UNL     1       4.816   5.163  -0.007  0.00  0.00    +0.079 A 
ATOM      4  C   UNL     1       6.057   5.808  -0.013  0.00  0.00    +0.028 A 
ATOM      5  C   UNL     1       6.114   7.169  -0.107  0.00  0.00    +0.002 A 
ATOM      6  C   UNL     1       4.955   7.929  -0.198  0.00  0.00    +0.001 A 
ATOM      7  C   UNL     1       3.717   7.324  -0.195  0.00  0.00    +0.015 A 
ATOM      8  C   UNL     1       3.635   5.935  -0.099  0.00  0.00    +0.065 A 
ATOM      9  C   UNL     1       2.342   5.235  -0.096  0.00  0.00    +0.267 A 
ATOM     10  O   UNL     1       1.293   5.847  -0.177  0.00  0.00    -0.267 OA
ATOM     11  N   UNL     1       2.362   3.886   0.004  0.00  0.00    -0.261 N 
ENDROOT
BRANCH  11  12
ATOM     12  C   UNL     1       1.158   3.171   0.016  0.00  0.00    +0.055 A 
ATOM     13  C   UNL     1       0.595   2.738  -1.178  0.00  0.00    +0.026 A 
ATOM     14  C   UNL     1      -0.593   2.033  -1.166  0.00  0.00    +0.006 A 
ATOM     15  C   UNL     1      -1.226   1.761   0.032  0.00  0.00    +0.045 A 
ATOM     16  C   UNL     1      -0.666   2.187   1.228  0.00  0.00    +0.119 A 
ATOM     17  C   UNL     1       0.526   2.895   1.220  0.00  0.00    +0.071 A 
BRANCH  16  18
ATOM     18  O   UNL     1      -1.288   1.915   2.405  0.00  0.00    -0.507 OA
ATOM     19  H   UNL     1      -0.843   2.253   3.353  0.00  0.00    +0.292 HD
ENDBRANCH  16  18
ENDBRANCH  11  12
BRANCH   1  21
ATOM     20  C   UNL     1       4.680   1.072   0.381  0.00  0.00    +0.015 C 
ATOM     21  C   UNL     1       3.532   1.754   0.191  0.00  0.00    +0.047 C 
BRANCH  20  26
ATOM     22  C   UNL     1       3.429  -2.461   0.479  0.00  0.00    +0.001 A 
ATOM     23  C   UNL     1       4.608  -3.162   0.674  0.00  0.00    +0.004 A 
ATOM     24  C   UNL     1       5.812  -2.491   0.774  0.00  0.00    +0.046 A 
ATOM     25  C   UNL     1       5.848  -1.109   0.675  0.00  0.00    +0.124 A 
ATOM     26  C   UNL     1       4.656  -0.395   0.483  0.00  0.00    +0.017 A 
ATOM     27  C   UNL     1       3.444  -1.087   0.383  0.00  0.00    +0.011 A 
BRANCH  25  28
ATOM     28  O   UNL     1       7.031  -0.450   0.768  0.00  0.00    -0.506 OA
ATOM     29  H   UNL     1       7.057   0.647   0.689  0.00  0.00    +0.292 HD
ENDBRANCH  25  28
ENDBRANCH  20  26
ENDBRANCH   1  21
TORSDOF 5
