REMARK  Name = ZINC00820216
REMARK  3 active torsions:
REMARK  status: ('A' for Active; 'I' for Inactive)
REMARK    1  A    between atoms: C_7  and  N_15
REMARK    2  A    between atoms: N_15  and  S_16
REMARK    3  A    between atoms: S_16  and  C_19
REMARK                            x       y       z     vdW  Elec       q    Type
REMARK                         _______ _______ _______ _____ _____    ______ ____
ROOT
ATOM      1  C   UNL     1      -1.355   1.706   0.265  0.00  0.00    +0.001 A 
ATOM      2  C   UNL     1      -0.165   1.002   0.237  0.00  0.00    +0.004 A 
ATOM      3  C   UNL     1       1.034   1.677   0.130  0.00  0.00    +0.046 A 
ATOM      4  C   UNL     1       1.049   3.066   0.055  0.00  0.00    +0.133 A 
ATOM      5  C   UNL     1      -0.144   3.769   0.087  0.00  0.00    +0.018 A 
ATOM      6  C   UNL     1      -1.343   3.086   0.196  0.00  0.00    +0.009 A 
ATOM      7  C   UNL     1      -0.155   5.271   0.006  0.00  0.00    +0.143 C 
ATOM      8  C   UNL     1       1.204   5.826   0.333  0.00  0.00    +0.018 A 
ATOM      9  C   UNL     1       1.327   7.160   0.679  0.00  0.00    +0.009 A 
ATOM     10  C   UNL     1       2.567   7.689   0.984  0.00  0.00    +0.001 A 
ATOM     11  C   UNL     1       3.691   6.885   0.943  0.00  0.00    +0.004 A 
ATOM     12  C   UNL     1       3.575   5.554   0.597  0.00  0.00    +0.046 A 
ATOM     13  C   UNL     1       2.329   5.019   0.289  0.00  0.00    +0.133 A 
ATOM     14  O   UNL     1       2.236   3.710  -0.048  0.00  0.00    -0.455 OA
ENDROOT
BRANCH   7  15
ATOM     15  N   UNL     1      -1.134   5.799   0.960  0.00  0.00    -0.178 NA
ATOM     16  H   UNL     1      -1.080   5.553   1.896  0.00  0.00    +0.149 HD
BRANCH  15  17
ATOM     17  S   UNL     1      -2.332   6.816   0.438  0.00  0.00    +0.059 S 
ATOM     18  O   UNL     1      -3.117   7.138   1.578  0.00  0.00    -0.153 OA
ATOM     19  O   UNL     1      -1.703   7.811  -0.358  0.00  0.00    -0.153 OA
BRANCH  17  20
ATOM     20  C   UNL     1      -3.370   5.888  -0.642  0.00  0.00    +0.105 A 
ATOM     21  C   UNL     1      -3.100   5.853  -1.998  0.00  0.00    +0.030 A 
ATOM     22  C   UNL     1      -3.910   5.120  -2.845  0.00  0.00    +0.022 A 
ATOM     23  C   UNL     1      -4.998   4.432  -2.338  0.00  0.00    +0.041 A 
ATOM     24  C   UNL     1      -5.271   4.473  -0.982  0.00  0.00    +0.022 A 
ATOM     25  C   UNL     1      -4.457   5.201  -0.135  0.00  0.00    +0.030 A 
ATOM     26 CL   UNL     1      -6.019   3.517  -3.402  0.00  0.00    -0.084 Cl
ENDBRANCH  17  20
ENDBRANCH  15  17
ENDBRANCH   7  15
TORSDOF 3
