REMARK  Name = ZINC11667003
REMARK  6 active torsions:
REMARK  status: ('A' for Active; 'I' for Inactive)
REMARK    1  A    between atoms: C_1  and  C_2
REMARK    2  A    between atoms: N_14  and  N_15
REMARK    3  A    between atoms: C_16  and  C_17
REMARK    4  A    between atoms: C_20  and  N_22
REMARK    5  A    between atoms: C_28  and  C_35
REMARK    6  A    between atoms: C_31  and  O_34
REMARK                            x       y       z     vdW  Elec       q    Type
REMARK                         _______ _______ _______ _____ _____    ______ ____
ROOT
ATOM      1  C   UNL     1      -1.622  -1.055  -0.537  0.00  0.00    +0.018 C 
ATOM      2  C   UNL     1      -0.316  -0.352  -0.160  0.00  0.00    +0.011 C 
ATOM      3  C   UNL     1       0.242  -0.845   1.178  0.00  0.00    +0.013 C 
ATOM      4  C   UNL     1      -0.635  -0.360   2.328  0.00  0.00    +0.005 C 
ATOM      5  C   UNL     1      -0.596   1.172   2.374  0.00  0.00    +0.003 C 
ATOM      6  C   UNL     1      -1.184   1.718   1.072  0.00  0.00    +0.001 C 
ATOM      7  C   UNL     1      -0.472   1.177  -0.144  0.00  0.00    +0.005 C 
ATOM      8  C   UNL     1       0.981   1.679  -0.251  0.00  0.00    +0.010 C 
ATOM      9  C   UNL     1       1.622   0.679  -1.241  0.00  0.00    +0.053 C 
ATOM     10  C   UNL     1       0.779  -0.581  -1.201  0.00  0.00    +0.047 C 
ATOM     11  N   UNL     1       0.954  -1.648  -1.913  0.00  0.00    -0.158 NA
ATOM     12  C   UNL     1      -1.055   3.248   1.093  0.00  0.00    +0.031 C 
ATOM     13  C   UNL     1      -1.659   3.792   2.353  0.00  0.00    -0.027 C 
ATOM     14  C   UNL     1      -1.828   3.091   3.428  0.00  0.00    -0.065 C 
ATOM     15  C   UNL     1      -1.432   1.645   3.557  0.00  0.00    -0.008 C 
ATOM     16  C   UNL     1      -2.690   0.794   3.716  0.00  0.00    +0.014 C 
ATOM     17  C   UNL     1      -3.797   1.616   4.374  0.00  0.00    +0.032 C 
ATOM     18  C   UNL     1      -3.221   2.602   5.388  0.00  0.00    +0.119 C 
ATOM     19  C   UNL     1      -2.479   3.724   4.648  0.00  0.00    +0.062 C 
ATOM     20  C   UNL     1      -0.598   1.487   4.830  0.00  0.00    +0.016 C 
ENDROOT
BRANCH  11  21
ATOM     21  N   UNL     1       2.010  -1.712  -2.833  0.00  0.00    -0.157 NA
ATOM     22  C   UNL     1       2.187  -2.792  -3.553  0.00  0.00    +0.150 C 
BRANCH  22  23
ATOM     23  C   UNL     1       3.254  -2.856  -4.483  0.00  0.00    +0.034 A 
ATOM     24  C   UNL     1       3.616  -3.896  -5.330  0.00  0.00    +0.019 A 
ATOM     25  C   UNL     1       4.704  -3.688  -6.141  0.00  0.00    +0.041 A 
ATOM     26  C   UNL     1       5.369  -2.505  -6.071  0.00  0.00    +0.164 A 
ATOM     27  S   UNL     1       4.488  -1.625  -4.865  0.00  0.00    -0.064 S 
BRANCH  26  28
ATOM     28  N   UNL     1       6.559  -2.072  -6.839  0.00  0.00    +0.063 N 
ATOM     29  O   UNL     1       7.061  -2.822  -7.658  0.00  0.00    -0.126 OA
ATOM     30  O   UNL     1       7.035  -0.967  -6.652  0.00  0.00    -0.126 OA
ENDBRANCH  26  28
ENDBRANCH  22  23
ENDBRANCH  11  21
BRANCH  18  31
ATOM     31  O   UNL     1      -2.312   1.919   6.253  0.00  0.00    -0.391 OA
ATOM     32  H   UNL     1      -1.980   2.461   6.982  0.00  0.00    +0.210 HD
ENDBRANCH  18  31
TORSDOF 4
