REMARK  Name = ZINC12170465
REMARK  12 active torsions:
REMARK  status: ('A' for Active; 'I' for Inactive)
REMARK    1  A    between atoms: C_1  and  C_2
REMARK    2  A    between atoms: C_4  and  O_11
REMARK    3  A    between atoms: C_7  and  C_8
REMARK    4  A    between atoms: C_8  and  C_9
REMARK    5  A    between atoms: C_8  and  C_10
REMARK    6  A    between atoms: O_11  and  C_12
REMARK    7  A    between atoms: C_12  and  C_13
REMARK    8  A    between atoms: C_13  and  C_15
REMARK    9  A    between atoms: C_13  and  O_37
REMARK   10  A    between atoms: C_15  and  N_73
REMARK   11  A    between atoms: C_18  and  C_21
REMARK   12  A    between atoms: C_21  and  N_22
REMARK                            x       y       z     vdW  Elec       q    Type
REMARK                         _______ _______ _______ _____ _____    ______ ____
ROOT
ATOM      1  C   UNL     1      -0.624   3.635  -0.427  0.00  0.00    -0.078 C 
ATOM      2  C   UNL     1      -0.644   2.110  -0.295  0.00  0.00    -0.014 C 
ATOM      3  C   UNL     1      -0.231   1.720   1.127  0.00  0.00    +0.003 C 
ATOM      4  C   UNL     1      -1.179   2.387   2.128  0.00  0.00    -0.014 C 
ATOM      5  C   UNL     1      -1.145   3.903   1.924  0.00  0.00    -0.078 C 
ATOM      6  N   UNL     1      -1.576   4.213   0.544  0.00  0.00    +0.381 N 
ATOM      7  H   UNL     1      -2.504   3.804   0.386  0.00  0.00    -0.082 HD
ENDROOT
BRANCH   6   8
ATOM      8  C   UNL     1      -1.659   5.677   0.359  0.00  0.00    -0.044 C 
BRANCH   8   9
ATOM      9  C   UNL     1      -2.540   5.966  -0.858  0.00  0.00    +0.135 C 
BRANCH   9  10
ATOM     10  O   UNL     1      -3.843   5.422  -0.643  0.00  0.00    -0.390 OA
ATOM     11  H   UNL     1      -4.298   5.784   0.131  0.00  0.00    +0.210 HD
ENDBRANCH   9  10
BRANCH   9  12
ATOM     12  C   UNL     1      -2.646   7.478  -1.063  0.00  0.00    +0.258 C 
BRANCH  12  13
ATOM     13  O   UNL     1      -3.371   7.747  -2.265  0.00  0.00    -0.489 OA
BRANCH  13  17
ATOM     14  C   UNL     1      -5.191  11.073  -5.338  0.00  0.00    +0.044 C 
ATOM     15  C   UNL     1      -4.437  10.711  -4.084  0.00  0.00    -0.044 A 
ATOM     16  C   UNL     1      -4.250   9.384  -3.750  0.00  0.00    +0.049 A 
ATOM     17  C   UNL     1      -3.556   9.052  -2.596  0.00  0.00    +0.121 A 
ATOM     18  C   UNL     1      -3.054  10.054  -1.778  0.00  0.00    +0.046 A 
ATOM     19  C   UNL     1      -3.238  11.379  -2.120  0.00  0.00    +0.008 A 
ATOM     20  C   UNL     1      -3.932  11.708  -3.270  0.00  0.00    -0.042 A 
BRANCH  20  21
ATOM     21  C   UNL     1      -4.137  13.155  -3.637  0.00  0.00    +0.013 C 
ATOM     22  C   UNL     1      -4.941  13.851  -2.538  0.00  0.00    +0.012 C 
ATOM     23  C   UNL     1      -2.777  13.841  -3.786  0.00  0.00    +0.012 C 
ENDBRANCH  20  21
ENDBRANCH  13  17
ENDBRANCH  12  13
ENDBRANCH   9  12
ENDBRANCH   8   9
ENDBRANCH   6   8
BRANCH   3  24
ATOM     24  C   UNL     1      -0.308   0.201   1.284  0.00  0.00    +0.120 C 
BRANCH  24  25
ATOM     25  N   UNL     1       0.197  -0.181   2.605  0.00  0.00    -0.234 N 
ATOM     26  C   UNL     1       1.508  -0.456   2.743  0.00  0.00    +0.254 C 
ATOM     27  O   UNL     1       2.246  -0.384   1.779  0.00  0.00    -0.270 OA
ATOM     28  C   UNL     1       2.053  -0.838   4.054  0.00  0.00    +0.046 A 
ATOM     29  C   UNL     1       3.397  -1.123   4.242  0.00  0.00    +0.014 A 
ATOM     30  C   UNL     1       3.865  -1.484   5.501  0.00  0.00    +0.001 A 
ATOM     31  C   UNL     1       3.030  -1.567   6.577  0.00  0.00    +0.008 A 
ATOM     32  C   UNL     1       1.660  -1.285   6.429  0.00  0.00    -0.016 A 
ATOM     33  C   UNL     1       1.174  -0.918   5.157  0.00  0.00    +0.006 A 
ATOM     34  C   UNL     1      -0.198  -0.627   4.976  0.00  0.00    +0.046 A 
ATOM     35  C   UNL     1      -1.053  -0.709   6.065  0.00  0.00    +0.014 A 
ATOM     36  C   UNL     1      -0.561  -1.071   7.314  0.00  0.00    +0.001 A 
ATOM     37  C   UNL     1       0.760  -1.356   7.507  0.00  0.00    +0.008 A 
ATOM     38  C   UNL     1      -0.667  -0.248   3.635  0.00  0.00    +0.254 C 
ATOM     39  O   UNL     1      -1.843   0.006   3.456  0.00  0.00    -0.270 OA
ENDBRANCH  24  25
ENDBRANCH   3  24
TORSDOF 9
