REMARK  Name = ZINC34074924
REMARK  8 active torsions:
REMARK  status: ('A' for Active; 'I' for Inactive)
REMARK    1  A    between atoms: C_1  and  C_2
REMARK    2  A    between atoms: C_3  and  C_4
REMARK    3  A    between atoms: C_3  and  C_5
REMARK    4  A    between atoms: C_5  and  O_7
REMARK    5  A    between atoms: O_7  and  C_8
REMARK    6  A    between atoms: C_22  and  C_26
REMARK    7  A    between atoms: C_22  and  C_27
REMARK    8  A    between atoms: C_23  and  O_25
REMARK                            x       y       z     vdW  Elec       q    Type
REMARK                         _______ _______ _______ _____ _____    ______ ____
ROOT
ATOM      1  C   UNL     1       2.277   0.300  -4.148  0.00  0.00    +0.246 C 
ATOM      2  C   UNL     1       1.173   0.615  -5.126  0.00  0.00    +0.080 A 
ATOM      3  C   UNL     1       1.102  -0.005  -6.359  0.00  0.00    +0.132 A 
ATOM      4  C   UNL     1       0.063   0.303  -7.243  0.00  0.00    +0.047 A 
ATOM      5  C   UNL     1      -0.890   1.217  -6.906  0.00  0.00    +0.015 A 
ATOM      6  C   UNL     1      -0.830   1.855  -5.662  0.00  0.00    +0.018 A 
ATOM      7  C   UNL     1       0.209   1.551  -4.766  0.00  0.00    +0.149 A 
ATOM      8  O   UNL     1       0.273   2.161  -3.564  0.00  0.00    -0.422 OA
ATOM      9  C   UNL     1      -0.650   3.062  -3.208  0.00  0.00    +0.337 A 
ATOM     10  O   UNL     1      -0.561   3.592  -2.114  0.00  0.00    -0.245 OA
ATOM     11  C   UNL     1      -1.722   3.422  -4.049  0.00  0.00    +0.092 A 
ATOM     12  C   UNL     1      -1.840   2.842  -5.273  0.00  0.00    +0.018 A 
ATOM     13  O   UNL     1       2.028  -0.917  -6.753  0.00  0.00    -0.483 OA
ATOM     14  C   UNL     1       2.854  -1.508  -5.749  0.00  0.00    +0.135 C 
ATOM     15  C   UNL     1       3.433  -0.386  -4.880  0.00  0.00    +0.203 C 
ATOM     16  C   UNL     1       3.993  -2.287  -6.411  0.00  0.00    +0.058 C 
ATOM     17  C   UNL     1       2.018  -2.452  -4.883  0.00  0.00    +0.058 C 
ENDROOT
BRANCH  15  18
ATOM     18  O   UNL     1       4.112   0.562  -5.705  0.00  0.00    -0.384 OA
ATOM     19  H   UNL     1       4.488   1.309  -5.219  0.00  0.00    +0.210 HD
ENDBRANCH  15  18
BRANCH   1  20
ATOM     20  O   UNL     1       1.777  -0.568  -3.129  0.00  0.00    -0.450 OA
BRANCH  20  21
ATOM     21  C   UNL     1       2.282  -0.411  -1.889  0.00  0.00    +0.335 C 
ATOM     22  O   UNL     1       3.193   0.370  -1.699  0.00  0.00    -0.245 OA
BRANCH  21  25
ATOM     23  C   UNL     1       3.359  -0.061   0.692  0.00  0.00    +0.036 C 
ATOM     24  C   UNL     1       2.229  -1.029   0.456  0.00  0.00    -0.020 C 
ATOM     25  C   UNL     1       1.730  -1.184  -0.768  0.00  0.00    +0.029 C 
ATOM     26  C   UNL     1       0.600  -2.152  -1.004  0.00  0.00    +0.051 C 
ENDBRANCH  21  25
ENDBRANCH  20  21
ENDBRANCH   1  20
TORSDOF 4
