REMARK  Name = ZINC43211168
REMARK  8 active torsions:
REMARK  status: ('A' for Active; 'I' for Inactive)
REMARK    1  A    between atoms: C_1  and  C_2
REMARK    2  A    between atoms: C_2  and  C_3
REMARK    3  A    between atoms: C_2  and  C_4
REMARK    4  A    between atoms: C_4  and  C_5
REMARK    5  A    between atoms: C_5  and  C_29
REMARK    6  A    between atoms: C_10  and  C_13
REMARK    7  A    between atoms: C_17  and  S_19
REMARK    8  A    between atoms: S_19  and  C_20
REMARK                            x       y       z     vdW  Elec       q    Type
REMARK                         _______ _______ _______ _____ _____    ______ ____
ROOT
ATOM      1  C   UNL     1       2.135  -0.431  -1.514  0.00  0.00    +0.048 C 
ATOM      2  C   UNL     1       2.815  -0.854  -2.832  0.00  0.00    +0.087 C 
ATOM      3  C   UNL     1       2.691   0.386  -3.760  0.00  0.00    +0.078 C 
ATOM      4  C   UNL     1       1.931   1.433  -2.920  0.00  0.00    -0.027 C 
ATOM      5  N   UNL     1       2.216   1.052  -1.506  0.00  0.00    +0.395 N 
ATOM      6  C   UNL     1       4.129   0.820  -3.940  0.00  0.00    +0.242 C 
ATOM      7  O   UNL     1       4.532   1.867  -4.675  0.00  0.00    -0.273 OA
ATOM      8  N   UNL     1       4.915   0.027  -3.276  0.00  0.00    -0.145 NA
ATOM      9  C   UNL     1       4.308  -0.972  -2.606  0.00  0.00    +0.242 C 
ATOM     10  O   UNL     1       4.853  -1.822  -1.932  0.00  0.00    -0.273 OA
ATOM     11  H   UNL     1       1.516   1.440  -0.892  0.00  0.00    -0.083 HD
ATOM     12  H   UNL     1       3.138   1.353  -1.228  0.00  0.00    -0.083 HD
ENDROOT
BRANCH   4  13
ATOM     13  C   UNL     1       2.465   2.815  -3.195  0.00  0.00    -0.060 A 
ATOM     14  C   UNL     1       3.634   3.237  -2.588  0.00  0.00    +0.002 A 
ATOM     15  C   UNL     1       4.128   4.504  -2.837  0.00  0.00    +0.001 A 
ATOM     16  C   UNL     1       3.455   5.353  -3.693  0.00  0.00    +0.015 A 
ATOM     17  C   UNL     1       2.280   4.933  -4.305  0.00  0.00    +0.016 A 
ATOM     18  C   UNL     1       1.789   3.656  -4.056  0.00  0.00    +0.017 A 
BRANCH  17  19
ATOM     19  S   UNL     1       1.417   6.013  -5.397  0.00  0.00    -0.016 S 
BRANCH  19  20
ATOM     20  C   UNL     1       2.423   7.523  -5.407  0.00  0.00    +0.448 C 
ATOM     21  F   UNL     1       3.709   7.223  -5.869  0.00  0.00    -0.160 F 
ATOM     22  F   UNL     1       1.834   8.470  -6.250  0.00  0.00    -0.160 F 
ATOM     23  F   UNL     1       2.502   8.039  -4.109  0.00  0.00    -0.160 F 
ENDBRANCH  19  20
ENDBRANCH  17  19
ENDBRANCH   4  13
BRANCH   1  24
ATOM     24  C   UNL     1       2.875  -1.004  -0.332  0.00  0.00    +0.346 C 
ATOM     25  O   UNL     1       2.896  -2.209  -0.152  0.00  0.00    -0.248 OA
ATOM     26  O   UNL     1       3.452  -0.261   0.444  0.00  0.00    -0.248 OA
ENDBRANCH   1  24
BRANCH   1  27
ATOM     27  C   UNL     1       0.674  -0.885  -1.498  0.00  0.00    +0.002 C 
BRANCH  27  29
ATOM     28  C   UNL     1      -1.540  -0.572  -0.384  0.00  0.00    +0.007 C 
ATOM     29  C   UNL     1      -0.048  -0.238  -0.315  0.00  0.00    -0.018 C 
ATOM     30  C   UNL     1       0.534  -0.775   0.994  0.00  0.00    +0.007 C 
ENDBRANCH  27  29
ENDBRANCH   1  27
TORSDOF 6
