REMARK  Name = ZINC26103999
REMARK  9 active torsions:
REMARK  status: ('A' for Active; 'I' for Inactive)
REMARK    1  A    between atoms: C_1  and  C_2
REMARK    2  A    between atoms: C_9  and  N_15
REMARK    3  A    between atoms: C_10  and  C_11
REMARK    4  A    between atoms: C_11  and  O_13
REMARK    5  A    between atoms: O_13  and  C_14
REMARK    6  A    between atoms: C_16  and  C_18
REMARK    7  A    between atoms: C_18  and  S_19
REMARK    8  A    between atoms: S_19  and  C_20
REMARK    9  A    between atoms: N_29  and  C_30
REMARK                            x       y       z     vdW  Elec       q    Type
REMARK                         _______ _______ _______ _____ _____    ______ ____
ROOT
ATOM      1  N   UNL     1      -6.091  -1.853   0.048  0.00  0.00    -0.279 N 
ATOM      2  C   UNL     1      -4.970  -2.600   0.034  0.00  0.00    +0.228 C 
ATOM      3  O   UNL     1      -5.047  -3.810   0.027  0.00  0.00    -0.275 OA
ATOM      4  H   UNL     1      -6.021  -0.755   0.054  0.00  0.00    +0.155 HD
ENDROOT
BRANCH   1  12
ATOM      5  C   UNL     1     -12.898  -5.705  -0.007  0.00  0.00    +0.008 C 
ATOM      6  C   UNL     1     -11.828  -4.650  -0.297  0.00  0.00    -0.009 C 
ATOM      7  C   UNL     1     -12.095  -3.402   0.550  0.00  0.00    +0.008 C 
ATOM      8  C   UNL     1     -11.187  -2.260   0.093  0.00  0.00    +0.037 C 
ATOM      9  C   UNL     1      -9.746  -2.755   0.076  0.00  0.00    -0.021 A 
ATOM     10  C   UNL     1      -9.464  -4.075   0.066  0.00  0.00    -0.004 A 
ATOM     11  S   UNL     1      -7.696  -4.161   0.050  0.00  0.00    -0.077 S 
ATOM     12  C   UNL     1      -7.333  -2.467   0.056  0.00  0.00    +0.086 A 
ATOM     13  C   UNL     1      -8.589  -1.875   0.077  0.00  0.00    +0.091 A 
ATOM     14  C   UNL     1     -10.444  -5.208   0.067  0.00  0.00    +0.046 C 
BRANCH  13  15
ATOM     15  C   UNL     1      -8.742  -0.419   0.095  0.00  0.00    +0.342 C 
ATOM     16  O   UNL     1      -8.818   0.198  -0.951  0.00  0.00    -0.245 OA
BRANCH  15  17
ATOM     17  O   UNL     1      -8.799   0.239   1.271  0.00  0.00    -0.464 OA
ATOM     18  C   UNL     1      -8.951   1.682   1.213  0.00  0.00    +0.280 C 
ENDBRANCH  15  17
ENDBRANCH  13  15
ENDBRANCH   1  12
BRANCH   2  19
ATOM     19  C   UNL     1      -3.619  -1.931   0.025  0.00  0.00    +0.173 C 
BRANCH  19  20
ATOM     20  S   UNL     1      -2.321  -3.193   0.005  0.00  0.00    -0.078 S 
BRANCH  20  21
ATOM     21  C   UNL     1      -0.892  -2.163  -0.002  0.00  0.00    +0.172 A 
ATOM     22  N   UNL     1      -1.057  -0.867   0.007  0.00  0.00    -0.223 NA
ATOM     23  C   UNL     1       0.002  -0.004   0.002  0.00  0.00    +0.086 A 
ATOM     24  C   UNL     1      -0.017   1.398   0.010  0.00  0.00    +0.036 A 
ATOM     25  C   UNL     1       1.141   2.093   0.002  0.00  0.00    +0.048 A 
ATOM     26  S   UNL     1       2.375   0.803  -0.016  0.00  0.00    -0.090 S 
ATOM     27  C   UNL     1       1.280  -0.592  -0.013  0.00  0.00    +0.102 A 
ATOM     28  C   UNL     1       1.447  -1.974  -0.023  0.00  0.00    +0.269 A 
ATOM     29  O   UNL     1       2.561  -2.470  -0.036  0.00  0.00    -0.266 OA
ATOM     30  N   UNL     1       0.339  -2.754  -0.017  0.00  0.00    -0.290 N 
ATOM     31  C   UNL     1       0.460  -4.214  -0.026  0.00  0.00    +0.154 C 
ENDBRANCH  20  21
ENDBRANCH  19  20
ENDBRANCH   2  19
TORSDOF 6
