REMARK  Name = ZINC02107251
REMARK  12 active torsions:
REMARK  status: ('A' for Active; 'I' for Inactive)
REMARK    1  A    between atoms: C_1  and  C_2
REMARK    2  A    between atoms: C_2  and  C_3
REMARK    3  A    between atoms: C_3  and  C_4
REMARK    4  A    between atoms: C_4  and  C_5
REMARK    5  A    between atoms: C_5  and  N_6
REMARK    6  A    between atoms: C_26  and  C_28
REMARK    7  A    between atoms: C_30  and  O_38
REMARK    8  A    between atoms: C_31  and  O_36
REMARK    9  A    between atoms: C_32  and  O_34
REMARK   10  A    between atoms: O_34  and  C_35
REMARK   11  A    between atoms: O_36  and  C_37
REMARK   12  A    between atoms: O_38  and  C_39
REMARK                            x       y       z     vdW  Elec       q    Type
REMARK                         _______ _______ _______ _____ _____    ______ ____
ROOT
ATOM      1  N   UNL     1      -1.702  -1.183   8.680  0.00  0.00    -0.291 N 
ATOM      2  C   UNL     1      -1.046   0.073   9.000  0.00  0.00    +0.203 C 
ATOM      3  C   UNL     1       0.074   0.376   8.059  0.00  0.00    +0.234 C 
ATOM      4  O   UNL     1       0.679   1.416   8.215  0.00  0.00    -0.274 OA
ATOM      5  N   UNL     1       0.455  -0.420   7.058  0.00  0.00    -0.276 N 
ATOM      6  C   UNL     1      -0.137  -1.734   6.812  0.00  0.00    +0.167 C 
ATOM      7  C   UNL     1      -1.307  -1.998   7.704  0.00  0.00    +0.237 C 
ATOM      8  O   UNL     1      -1.937  -3.020   7.527  0.00  0.00    -0.274 OA
ATOM      9  C   UNL     1       0.930  -2.817   7.029  0.00  0.00    +0.069 C 
ATOM     10  C   UNL     1       2.205  -2.388   6.348  0.00  0.00    -0.015 A 
ATOM     11  C   UNL     1       3.349  -3.200   5.990  0.00  0.00    +0.003 A 
ATOM     12  C   UNL     1       3.630  -4.562   6.145  0.00  0.00    +0.010 A 
ATOM     13  C   UNL     1       4.845  -5.001   5.679  0.00  0.00    +0.001 A 
ATOM     14  C   UNL     1       5.757  -4.146   5.082  0.00  0.00    +0.002 A 
ATOM     15  C   UNL     1       5.505  -2.795   4.917  0.00  0.00    +0.026 A 
ATOM     16  C   UNL     1       4.280  -2.321   5.380  0.00  0.00    +0.047 A 
ATOM     17  N   UNL     1       3.720  -1.076   5.377  0.00  0.00    -0.356 N 
ATOM     18  H   UNL     1       4.137  -0.277   5.018  0.00  0.00    +0.166 HD
ATOM     19  C   UNL     1       2.480  -1.125   5.956  0.00  0.00    +0.046 A 
ATOM     20  C   UNL     1       1.528   0.035   6.148  0.00  0.00    +0.154 C 
ENDROOT
BRANCH  20  21
ATOM     21  C   UNL     1       0.938   0.438   4.822  0.00  0.00    -0.014 A 
ATOM     22  C   UNL     1       0.338  -0.511   4.017  0.00  0.00    +0.055 A 
ATOM     23  C   UNL     1      -0.206  -0.144   2.795  0.00  0.00    +0.165 A 
ATOM     24  C   UNL     1      -0.147   1.181   2.381  0.00  0.00    +0.204 A 
ATOM     25  C   UNL     1       0.463   2.132   3.190  0.00  0.00    +0.165 A 
ATOM     26  C   UNL     1       0.999   1.757   4.413  0.00  0.00    +0.055 A 
BRANCH  25  27
ATOM     27  O   UNL     1       0.528   3.429   2.787  0.00  0.00    -0.491 OA
ATOM     28  C   UNL     1       1.169   4.352   3.670  0.00  0.00    +0.277 C 
ENDBRANCH  25  27
BRANCH  24  29
ATOM     29  O   UNL     1      -0.679   1.545   1.182  0.00  0.00    -0.488 OA
ATOM     30  C   UNL     1      -2.050   1.946   1.176  0.00  0.00    +0.277 C 
ENDBRANCH  24  29
BRANCH  23  31
ATOM     31  O   UNL     1      -0.797  -1.079   2.004  0.00  0.00    -0.491 OA
ATOM     32  C   UNL     1      -0.822  -2.421   2.494  0.00  0.00    +0.277 C 
ENDBRANCH  23  31
ENDBRANCH  20  21
BRANCH   1  33
ATOM     33  C   UNL     1      -2.867  -1.576   9.478  0.00  0.00    +0.108 C 
BRANCH  33  34
ATOM     34  C   UNL     1      -4.138  -1.025   8.830  0.00  0.00    +0.019 C 
BRANCH  34  35
ATOM     35  C   UNL     1      -5.354  -1.435   9.663  0.00  0.00    +0.001 C 
BRANCH  35  37
ATOM     36  C   UNL     1      -7.842  -1.295   9.849  0.00  0.00    +0.004 C 
ATOM     37  C   UNL     1      -6.626  -0.884   9.015  0.00  0.00    -0.003 C 
ENDBRANCH  35  37
ENDBRANCH  34  35
ENDBRANCH  33  34
ENDBRANCH   1  33
TORSDOF 8
