REMARK  Name = ZINC03373617
REMARK  6 active torsions:
REMARK  status: ('A' for Active; 'I' for Inactive)
REMARK    1  A    between atoms: C_1  and  C_2
REMARK    2  A    between atoms: C_2  and  C_4
REMARK    3  A    between atoms: C_2  and  S_16
REMARK    4  A    between atoms: N_6  and  C_7
REMARK    5  A    between atoms: S_16  and  C_17
REMARK    6  A    between atoms: N_29  and  C_30
REMARK                            x       y       z     vdW  Elec       q    Type
REMARK                         _______ _______ _______ _____ _____    ______ ____
ROOT
ATOM      1  C   UNL     1      -0.882  -6.157   1.692  0.00  0.00    +0.029 C 
ATOM      2  C   UNL     1      -0.517  -6.739   0.325  0.00  0.00    +0.137 C 
ENDROOT
BRANCH   2   3
ATOM      3  C   UNL     1      -0.852  -8.209   0.299  0.00  0.00    +0.230 C 
ATOM      4  O   UNL     1       0.003  -9.030   0.554  0.00  0.00    -0.274 OA
ATOM      5  N   UNL     1      -2.101  -8.610  -0.008  0.00  0.00    -0.284 N 
ATOM      6  H   UNL     1      -2.803  -7.953  -0.138  0.00  0.00    +0.155 HD
BRANCH   5   7
ATOM      7  C   UNL     1      -2.386  -9.975  -0.141  0.00  0.00    +0.037 A 
ATOM      8  C   UNL     1      -1.423 -10.839  -0.643  0.00  0.00    +0.027 A 
ATOM      9  C   UNL     1      -1.700 -12.187  -0.771  0.00  0.00    +0.051 A 
ATOM     10  C   UNL     1      -2.944 -12.678  -0.407  0.00  0.00    +0.166 A 
ATOM     11  C   UNL     1      -3.914 -11.812   0.092  0.00  0.00    +0.168 A 
ATOM     12  C   UNL     1      -3.633 -10.463   0.224  0.00  0.00    +0.072 A 
ATOM     13  O   UNL     1      -5.039 -12.533   0.374  0.00  0.00    -0.453 OA
ATOM     14  C   UNL     1      -4.888 -13.775  -0.339  0.00  0.00    +0.466 C 
ATOM     15  O   UNL     1      -3.462 -13.942  -0.438  0.00  0.00    -0.453 OA
ENDBRANCH   5   7
ENDBRANCH   2   3
BRANCH   2  16
ATOM     16  S   UNL     1       1.255  -6.519   0.030  0.00  0.00    -0.075 S 
BRANCH  16  17
ATOM     17  C   UNL     1       1.338  -4.761  -0.037  0.00  0.00    +0.173 A 
ATOM     18  N   UNL     1       0.238  -4.052   0.120  0.00  0.00    -0.216 NA
ATOM     19  C   UNL     1       0.273  -2.725   0.074  0.00  0.00    +0.117 A 
ATOM     20  C   UNL     1       1.464  -2.018  -0.142  0.00  0.00    +0.076 A 
ATOM     21  C   UNL     1       1.348  -0.550  -0.169  0.00  0.00    -0.023 A 
ATOM     22  C   UNL     1       0.123  -0.035   0.019  0.00  0.00    -0.004 A 
ATOM     23  S   UNL     1      -0.941  -1.442   0.235  0.00  0.00    -0.073 S 
ATOM     24  C   UNL     1       0.127   1.470  -0.025  0.00  0.00    +0.043 C 
ATOM     25  C   UNL     1       1.610   1.859   0.160  0.00  0.00    +0.010 C 
ATOM     26  C   UNL     1       2.331   0.606  -0.373  0.00  0.00    +0.037 C 
ATOM     27  C   UNL     1       2.643  -2.810  -0.310  0.00  0.00    +0.263 A 
ATOM     28  O   UNL     1       3.724  -2.280  -0.502  0.00  0.00    -0.267 OA
ATOM     29  N   UNL     1       2.540  -4.151  -0.252  0.00  0.00    -0.290 N 
ATOM     30  C   UNL     1       3.742  -4.972  -0.422  0.00  0.00    +0.154 C 
ENDBRANCH  16  17
ENDBRANCH   2  16
TORSDOF 4
