REMARK  Name = ZINC52008746
REMARK  4 active torsions:
REMARK  status: ('A' for Active; 'I' for Inactive)
REMARK    1  A    between atoms: C_2  and  C_12
REMARK    2  A    between atoms: C_6  and  N_7
REMARK    3  A    between atoms: N_14  and  C_15
REMARK    4  A    between atoms: C_21  and  O_23
REMARK                            x       y       z     vdW  Elec       q    Type
REMARK                         _______ _______ _______ _____ _____    ______ ____
ROOT
ATOM      1  C   UNL     1       1.170   3.565   0.009  0.00  0.00    +0.244 C 
ATOM      2  O   UNL     1       0.112   4.162   0.022  0.00  0.00    -0.270 OA
ATOM      3  N   UNL     1       2.331   4.250   0.002  0.00  0.00    -0.306 N 
ATOM      4  H   UNL     1       3.176   3.773  -0.008  0.00  0.00    +0.149 HD
ENDROOT
BRANCH   1   6
ATOM      5  C   UNL     1      -0.017   1.375   0.010  0.00  0.00    +0.047 A 
ATOM      6  C   UNL     1       1.184   2.087   0.002  0.00  0.00    +0.040 A 
ATOM      7  C   UNL     1       2.398   1.398  -0.013  0.00  0.00    +0.034 A 
ATOM      8  C   UNL     1       2.405   0.018  -0.021  0.00  0.00    +0.062 A 
ATOM      9  C   UNL     1       1.209  -0.683  -0.014  0.00  0.00    +0.089 A 
ATOM     10  C   UNL     1       0.002  -0.004   0.002  0.00  0.00    +0.147 A 
ATOM     11 CL   UNL     1       1.224  -2.419  -0.024  0.00  0.00    -0.080 Cl
ATOM     12 CL   UNL     1       3.913  -0.842  -0.040  0.00  0.00    -0.082 Cl
BRANCH  10  13
ATOM     13  N   UNL     1      -1.270  -0.760   0.011  0.00  0.00    +0.058 N 
ATOM     14  O   UNL     1      -2.325  -0.168   0.024  0.00  0.00    -0.126 OA
ATOM     15  O   UNL     1      -1.256  -1.969   0.004  0.00  0.00    -0.126 OA
ENDBRANCH  10  13
ENDBRANCH   1   6
BRANCH   3  16
ATOM     16  C   UNL     1       2.317   5.715   0.010  0.00  0.00    +0.102 C 
ATOM     17  C   UNL     1       2.200   6.216   1.450  0.00  0.00    +0.025 C 
ATOM     18  C   UNL     1       2.185   7.746   1.458  0.00  0.00    +0.002 C 
ATOM     19  C   UNL     1       3.482   8.272   0.839  0.00  0.00    +0.003 C 
ATOM     20  C   UNL     1       3.599   7.770  -0.602  0.00  0.00    +0.033 C 
ATOM     21  C   UNL     1       3.614   6.240  -0.610  0.00  0.00    +0.135 C 
BRANCH  21  22
ATOM     22  O   UNL     1       3.723   5.772  -1.955  0.00  0.00    -0.390 OA
ATOM     23  H   UNL     1       4.523   6.067  -2.410  0.00  0.00    +0.210 HD
ENDBRANCH  21  22
ENDBRANCH   3  16
TORSDOF 4
