REMARK  Name = ZINC32753083
REMARK  4 active torsions:
REMARK  status: ('A' for Active; 'I' for Inactive)
REMARK    1  A    between atoms: C_5  and  C_7
REMARK    2  A    between atoms: C_7  and  C_8
REMARK    3  A    between atoms: C_13  and  C_17
REMARK    4  A    between atoms: N_19  and  C_20
REMARK                            x       y       z     vdW  Elec       q    Type
REMARK                         _______ _______ _______ _____ _____    ______ ____
ROOT
ATOM      1  C   UNL     1       0.075  -2.773   0.088  0.00  0.00    +0.238 C 
ATOM      2  O   UNL     1      -0.984  -2.182   0.101  0.00  0.00    -0.273 OA
ATOM      3  N   UNL     1       1.229  -2.085  -0.020  0.00  0.00    -0.284 N 
ATOM      4  H   UNL     1       2.184  -2.623  -0.108  0.00  0.00    +0.155 HD
ENDROOT
BRANCH   3   5
ATOM      5  C   UNL     1       1.212  -0.684  -0.021  0.00  0.00    +0.037 A 
ATOM      6  C   UNL     1       2.247   0.023   0.576  0.00  0.00    +0.027 A 
ATOM      7  C   UNL     1       2.233   1.405   0.577  0.00  0.00    +0.051 A 
ATOM      8  C   UNL     1       1.186   2.087  -0.016  0.00  0.00    +0.167 A 
ATOM      9  C   UNL     1       0.144   1.380  -0.616  0.00  0.00    +0.169 A 
ATOM     10  C   UNL     1       0.159  -0.003  -0.618  0.00  0.00    +0.073 A 
ATOM     11  O   UNL     1      -0.755   2.283  -1.121  0.00  0.00    -0.447 OA
ATOM     12  C   UNL     1       0.008   3.492  -1.250  0.00  0.00    +0.254 C 
ATOM     13  O   UNL     1       0.930   3.428  -0.153  0.00  0.00    -0.448 OA
ATOM     14  C   UNL     1      -0.890   4.729  -1.150  0.00  0.00    +0.093 C 
ATOM     15  C   UNL     1      -0.238   5.744  -2.125  0.00  0.00    +0.008 C 
ATOM     16  C   UNL     1       0.246   4.843  -3.289  0.00  0.00    +0.008 C 
ATOM     17  C   UNL     1       0.736   3.554  -2.593  0.00  0.00    +0.093 C 
ENDBRANCH   3   5
BRANCH   1  22
ATOM     18  C   UNL     1      -1.577  -6.826  -0.561  0.00  0.00    +0.136 C 
ATOM     19  C   UNL     1      -1.850  -5.815   0.516  0.00  0.00    +0.227 C 
ATOM     20  O   UNL     1      -2.808  -6.022   1.230  0.00  0.00    -0.275 OA
ATOM     21  N   UNL     1      -1.150  -4.726   0.760  0.00  0.00    -0.302 N 
ATOM     22  C   UNL     1       0.101  -4.276   0.193  0.00  0.00    +0.169 C 
ATOM     23  C   UNL     1       0.362  -4.864  -1.193  0.00  0.00    +0.101 C 
ATOM     24  S   UNL     1       0.157  -6.671  -1.089  0.00  0.00    -0.145 S 
ATOM     25  H   UNL     1      -1.660  -4.118   1.521  0.00  0.00    +0.150 HD
BRANCH  18  26
ATOM     26  C   UNL     1      -1.823  -8.235  -0.016  0.00  0.00    +0.061 C 
BRANCH  26  31
ATOM     27  C   UNL     1      -0.352 -10.876  -2.278  0.00  0.00    +0.000 A 
ATOM     28  C   UNL     1      -1.385 -11.081  -3.173  0.00  0.00    +0.003 A 
ATOM     29  C   UNL     1      -2.561 -10.366  -3.049  0.00  0.00    +0.038 A 
ATOM     30  C   UNL     1      -2.706  -9.446  -2.023  0.00  0.00    +0.127 A 
ATOM     31  C   UNL     1      -1.669  -9.238  -1.130  0.00  0.00    -0.011 A 
ATOM     32  C   UNL     1      -0.494  -9.955  -1.257  0.00  0.00    +0.006 A 
ATOM     33  F   UNL     1      -3.857  -8.750  -1.897  0.00  0.00    -0.205 F 
ENDBRANCH  26  31
ENDBRANCH  18  26
ENDBRANCH   1  22
TORSDOF 4
