REMARK  Name = ZINC62466102
REMARK  4 active torsions:
REMARK  status: ('A' for Active; 'I' for Inactive)
REMARK    1  A    between atoms: C_1  and  C_2
REMARK    2  A    between atoms: C_2  and  C_3
REMARK    3  A    between atoms: C_2  and  N_10
REMARK    4  A    between atoms: C_3  and  N_4
REMARK                            x       y       z     vdW  Elec       q    Type
REMARK                         _______ _______ _______ _____ _____    ______ ____
ROOT
ATOM      1  N   UNL     1      -1.369  -0.518   0.011  0.00  0.00    -0.295 N 
ATOM      2  C   UNL     1      -2.051  -0.643  -1.145  0.00  0.00    +0.303 C 
ATOM      3  O   UNL     1      -1.560  -0.250  -2.185  0.00  0.00    -0.253 OA
ATOM      4  N   UNL     1      -3.277  -1.203  -1.147  0.00  0.00    -0.282 N 
ATOM      5  C   UNL     1      -3.875  -1.542   0.113  0.00  0.00    +0.113 C 
ATOM      6  C   UNL     1      -5.364  -1.376   0.118  0.00  0.00    +0.007 C 
ATOM      7  C   UNL     1      -5.815  -0.063  -0.502  0.00  0.00    +0.008 C 
ATOM      8  C   UNL     1      -6.018  -0.120  -2.003  0.00  0.00    -0.009 C 
ATOM      9  C   UNL     1      -6.889  -1.318  -2.394  0.00  0.00    +0.007 C 
ATOM     10  C   UNL     1      -6.169  -2.578  -1.909  0.00  0.00    -0.009 C 
ATOM     11  C   UNL     1      -6.146  -2.559  -0.380  0.00  0.00    +0.008 C 
ATOM     12  C   UNL     1      -4.772  -2.678  -2.478  0.00  0.00    +0.026 C 
ATOM     13  C   UNL     1      -3.931  -1.428  -2.424  0.00  0.00    +0.078 C 
ATOM     14  C   UNL     1      -4.720  -0.178  -2.794  0.00  0.00    +0.026 C 
ATOM     15  H   UNL     1      -1.788  -0.765   0.851  0.00  0.00    +0.151 HD
ENDROOT
BRANCH   1  17
ATOM     16  C   UNL     1      -0.018   1.521   0.019  0.00  0.00    +0.029 C 
ATOM     17  C   UNL     1       0.004  -0.009   0.001  0.00  0.00    +0.089 C 
BRANCH  17  18
ATOM     18  C   UNL     1       0.748  -0.523   1.235  0.00  0.00    +0.129 C 
BRANCH  18  19
ATOM     19  N   UNL     1       0.667  -1.985   1.280  0.00  0.00    -0.300 N 
ATOM     20  C   UNL     1      -0.403  -2.734   1.948  0.00  0.00    +0.108 C 
ATOM     21  C   UNL     1      -0.320  -4.167   1.377  0.00  0.00    +0.028 C 
ATOM     22  C   UNL     1       1.163  -4.252   0.949  0.00  0.00    +0.097 C 
ATOM     23  C   UNL     1       1.561  -2.812   0.710  0.00  0.00    +0.216 C 
ATOM     24  O   UNL     1       2.544  -2.455   0.096  0.00  0.00    -0.276 OA
ENDBRANCH  18  19
ENDBRANCH  17  18
ENDBRANCH   1  17
TORSDOF 3
