REMARK  Name = ZINC00743742
REMARK  13 active torsions:
REMARK  status: ('A' for Active; 'I' for Inactive)
REMARK    1  A    between atoms: C_1  and  C_2
REMARK    2  A    between atoms: C_7  and  N_8
REMARK    3  A    between atoms: C_9  and  N_20
REMARK    4  A    between atoms: C_10  and  C_14
REMARK    5  A    between atoms: C_11  and  C_13
REMARK    6  A    between atoms: C_21  and  C_23
REMARK    7  A    between atoms: C_23  and  N_24
REMARK    8  A    between atoms: N_24  and  C_25
REMARK    9  A    between atoms: N_24  and  S_29
REMARK   10  A    between atoms: C_25  and  C_26
REMARK   11  A    between atoms: C_26  and  C_27
REMARK   12  A    between atoms: C_26  and  C_28
REMARK   13  A    between atoms: S_29  and  C_32
REMARK                            x       y       z     vdW  Elec       q    Type
REMARK                         _______ _______ _______ _____ _____    ______ ____
ROOT
ATOM      1  N   UNL     1       0.960  -1.862   2.143  0.00  0.00    -0.217 N 
ATOM      2  C   UNL     1       1.537  -2.272   0.981  0.00  0.00    +0.137 A 
ATOM      3  C   UNL     1       0.640  -3.122   0.359  0.00  0.00    +0.045 A 
ATOM      4  C   UNL     1      -0.501  -3.203   1.181  0.00  0.00    +0.070 A 
ATOM      5  N   UNL     1      -0.305  -2.456   2.234  0.00  0.00    -0.169 NA
ATOM      6  C   UNL     1      -1.738  -4.014   0.894  0.00  0.00    +0.068 C 
ENDROOT
BRANCH   1  13
ATOM      7  C   UNL     1      -0.665   0.215   3.212  0.00  0.00    +0.046 C 
ATOM      8  C   UNL     1       0.772   0.035   3.628  0.00  0.00    -0.025 A 
ATOM      9  C   UNL     1       1.336   0.890   4.554  0.00  0.00    +0.005 A 
ATOM     10  C   UNL     1       2.655   0.725   4.936  0.00  0.00    +0.000 A 
ATOM     11  C   UNL     1       3.412  -0.297   4.394  0.00  0.00    +0.002 A 
ATOM     12  C   UNL     1       2.853  -1.156   3.468  0.00  0.00    +0.028 A 
ATOM     13  C   UNL     1       1.530  -0.992   3.082  0.00  0.00    +0.070 A 
ENDBRANCH   1  13
BRANCH   3  14
ATOM     14  C   UNL     1       0.840  -3.815  -0.937  0.00  0.00    -0.013 A 
ATOM     15  C   UNL     1       1.839  -4.779  -1.068  0.00  0.00    +0.008 A 
ATOM     16  C   UNL     1       2.017  -5.425  -2.274  0.00  0.00    +0.001 A 
ATOM     17  C   UNL     1       1.215  -5.108  -3.356  0.00  0.00    +0.000 A 
ATOM     18  C   UNL     1       0.226  -4.149  -3.234  0.00  0.00    +0.001 A 
ATOM     19  C   UNL     1       0.035  -3.501  -2.030  0.00  0.00    +0.008 A 
ENDBRANCH   3  14
BRANCH   2  20
ATOM     20  N   UNL     1       2.794  -1.908   0.509  0.00  0.00    -0.269 N 
ATOM     21  C   UNL     1       3.259  -0.662   0.725  0.00  0.00    +0.234 C 
ATOM     22  O   UNL     1       2.562   0.157   1.286  0.00  0.00    -0.274 OA
ATOM     23  H   UNL     1       3.335  -2.551   0.026  0.00  0.00    +0.156 HD
BRANCH  21  24
ATOM     24  C   UNL     1       4.644  -0.285   0.267  0.00  0.00    +0.205 C 
BRANCH  24  25
ATOM     25  N   UNL     1       4.866   1.143   0.504  0.00  0.00    -0.168 NA
BRANCH  25  26
ATOM     26  S   UNL     1       4.701   2.225  -0.739  0.00  0.00    +0.061 S 
ATOM     27  O   UNL     1       5.308   3.435  -0.307  0.00  0.00    -0.153 OA
ATOM     28  O   UNL     1       5.106   1.549  -1.921  0.00  0.00    -0.153 OA
BRANCH  26  29
ATOM     29  C   UNL     1       2.980   2.559  -0.914  0.00  0.00    +0.105 A 
ATOM     30  C   UNL     1       2.204   1.772  -1.745  0.00  0.00    +0.028 A 
ATOM     31  C   UNL     1       0.853   2.032  -1.878  0.00  0.00    +0.002 A 
ATOM     32  C   UNL     1       0.279   3.083  -1.189  0.00  0.00    +0.000 A 
ATOM     33  C   UNL     1       1.056   3.874  -0.362  0.00  0.00    +0.002 A 
ATOM     34  C   UNL     1       2.406   3.611  -0.225  0.00  0.00    +0.028 A 
ENDBRANCH  26  29
ENDBRANCH  25  26
BRANCH  25  35
ATOM     35  C   UNL     1       5.233   1.615   1.842  0.00  0.00    +0.113 C 
BRANCH  35  36
ATOM     36  C   UNL     1       6.748   1.500   2.025  0.00  0.00    -0.001 C 
ATOM     37  C   UNL     1       7.453   2.448   1.054  0.00  0.00    +0.008 C 
ATOM     38  C   UNL     1       7.118   1.873   3.462  0.00  0.00    +0.008 C 
ENDBRANCH  35  36
ENDBRANCH  25  35
ENDBRANCH  24  25
ENDBRANCH  21  24
ENDBRANCH   2  20
TORSDOF 9
