REMARK  Name = ZINC32447679
REMARK  8 active torsions:
REMARK  status: ('A' for Active; 'I' for Inactive)
REMARK    1  A    between atoms: C_1  and  C_2
REMARK    2  A    between atoms: C_2  and  C_3
REMARK    3  A    between atoms: C_3  and  C_5
REMARK    4  A    between atoms: C_3  and  N_22
REMARK    5  A    between atoms: C_5  and  N_6
REMARK    6  A    between atoms: C_7  and  C_9
REMARK    7  A    between atoms: C_12  and  S_14
REMARK    8  A    between atoms: S_14  and  N_17
REMARK                            x       y       z     vdW  Elec       q    Type
REMARK                         _______ _______ _______ _____ _____    ______ ____
ROOT
ATOM      1  N   UNL     1      -1.414   1.166   2.423  0.00  0.00    -0.310 N 
ATOM      2  C   UNL     1      -1.930   1.868   3.452  0.00  0.00    +0.279 C 
ATOM      3  O   UNL     1      -1.365   2.870   3.849  0.00  0.00    -0.267 OA
ATOM      4  H   UNL     1      -1.925   0.260   2.065  0.00  0.00    +0.149 HD
ENDROOT
BRANCH   2   5
ATOM      5  C   UNL     1      -3.171   1.424   4.094  0.00  0.00    +0.192 A 
ATOM      6  C   UNL     1      -3.799   2.038   5.139  0.00  0.00    +0.057 A 
ATOM      7  C   UNL     1      -4.942   1.277   5.427  0.00  0.00    +0.072 A 
ATOM      8  C   UNL     1      -4.963   0.245   4.555  0.00  0.00    +0.259 A 
ATOM      9  O   UNL     1      -3.897   0.340   3.750  0.00  0.00    -0.432 OA
BRANCH   8  10
ATOM     10  S   UNL     1      -6.194  -1.014   4.485  0.00  0.00    +0.094 S 
ATOM     11  O   UNL     1      -5.587  -2.142   3.870  0.00  0.00    -0.150 OA
ATOM     12  O   UNL     1      -6.786  -1.076   5.775  0.00  0.00    -0.150 OA
BRANCH  10  13
ATOM     13  N   UNL     1      -7.374  -0.487   3.448  0.00  0.00    -0.174 NA
ATOM     14  C   UNL     1      -8.562   0.291   3.826  0.00  0.00    +0.109 C 
ATOM     15  C   UNL     1      -9.382   0.529   2.541  0.00  0.00    +0.018 C 
ATOM     16  C   UNL     1      -8.905  -0.617   1.609  0.00  0.00    +0.018 C 
ATOM     17  C   UNL     1      -7.409  -0.727   1.994  0.00  0.00    +0.109 C 
ENDBRANCH  10  13
ENDBRANCH   8  10
ENDBRANCH   2   5
BRANCH   1  18
ATOM     18  C   UNL     1      -0.174   1.610   1.782  0.00  0.00    +0.089 C 
BRANCH  18  19
ATOM     19  C   UNL     1       0.112   0.732   0.562  0.00  0.00    -0.051 C 
BRANCH  19  20
ATOM     20  N   UNL     1      -1.055   0.739  -0.330  0.00  0.00    +0.385 N 
ATOM     21  C   UNL     1      -1.031  -0.419  -1.238  0.00  0.00    -0.073 C 
ATOM     22  C   UNL     1      -2.415  -0.568  -1.871  0.00  0.00    +0.017 C 
ATOM     23  C   UNL     1      -2.864   0.753  -2.443  0.00  0.00    -0.048 A 
ATOM     24  C   UNL     1      -3.907   0.758  -3.357  0.00  0.00    +0.004 A 
ATOM     25  C   UNL     1      -4.351   1.945  -3.901  0.00  0.00    +0.000 A 
ATOM     26  C   UNL     1      -3.753   3.137  -3.534  0.00  0.00    +0.000 A 
ATOM     27  C   UNL     1      -2.714   3.133  -2.626  0.00  0.00    +0.002 A 
ATOM     28  C   UNL     1      -2.265   1.940  -2.079  0.00  0.00    -0.061 A 
ATOM     29  C   UNL     1      -1.123   1.986  -1.099  0.00  0.00    -0.042 C 
ATOM     30  H   UNL     1      -1.955   0.672   0.299  0.00  0.00    -0.081 HD
ENDBRANCH  19  20
BRANCH  19  32
ATOM     31  C   UNL     1       1.695   0.331  -1.328  0.00  0.00    +0.002 C 
ATOM     32  C   UNL     1       1.329   1.280  -0.186  0.00  0.00    -0.017 C 
ENDBRANCH  19  32
ENDBRANCH  18  19
ENDBRANCH   1  18
TORSDOF 7
