REMARK  Name = ZINC20924098
REMARK  13 active torsions:
REMARK  status: ('A' for Active; 'I' for Inactive)
REMARK    1  A    between atoms: C_1  and  C_2
REMARK    2  A    between atoms: C_3  and  C_11
REMARK    3  A    between atoms: C_4  and  C_10
REMARK    4  A    between atoms: N_5  and  C_7
REMARK    5  A    between atoms: C_7  and  C_8
REMARK    6  A    between atoms: C_7  and  C_9
REMARK    7  A    between atoms: N_12  and  N_13
REMARK    8  A    between atoms: C_17  and  S_20
REMARK    9  A    between atoms: N_18  and  N_19
REMARK   10  A    between atoms: S_20  and  C_21
REMARK   11  A    between atoms: C_21  and  C_22
REMARK   12  A    between atoms: N_24  and  N_25
REMARK   13  A    between atoms: C_26  and  C_28
REMARK                            x       y       z     vdW  Elec       q    Type
REMARK                         _______ _______ _______ _____ _____    ______ ____
ROOT
ATOM      1  N   UNL     1      11.155   0.762  -0.099  0.00  0.00    -0.204 N 
ATOM      2  C   UNL     1       9.768   0.730  -0.087  0.00  0.00    +0.254 A 
ATOM      3  N   UNL     1       9.022  -0.348  -0.085  0.00  0.00    -0.109 NA
ATOM      4  N   UNL     1       7.680   0.055  -0.065  0.00  0.00    -0.119 NA
ATOM      5  C   UNL     1       7.650   1.366  -0.064  0.00  0.00    +0.210 A 
ATOM      6  N   UNL     1       8.940   1.818  -0.073  0.00  0.00    -0.211 N 
ATOM      7  H   UNL     1      11.683   1.727  -0.099  0.00  0.00    +0.177 HD
ENDROOT
BRANCH   6   8
ATOM      8  N   UNL     1       9.332   3.126  -0.071  0.00  0.00    -0.294 N 
ATOM      9  H   UNL     1       8.578   3.926  -0.059  0.00  0.00    +0.163 HD
ATOM     10  H   UNL     1      10.402   3.379  -0.080  0.00  0.00    +0.163 HD
ENDBRANCH   6   8
BRANCH   1  12
ATOM     11  C   UNL     1      13.180  -0.406  -0.124  0.00  0.00    +0.141 C 
ATOM     12  N   UNL     1      11.883  -0.435  -0.112  0.00  0.00    -0.187 NA
BRANCH  11  15
ATOM     13  C   UNL     1      11.946  -3.327  -0.128  0.00  0.00    +0.068 C 
ATOM     14  C   UNL     1      13.411  -2.972  -0.140  0.00  0.00    +0.069 A 
ATOM     15  C   UNL     1      13.947  -1.667  -0.138  0.00  0.00    +0.038 A 
ATOM     16  C   UNL     1      15.320  -1.788  -0.156  0.00  0.00    +0.045 A 
ATOM     17  N   UNL     1      15.608  -3.105  -0.161  0.00  0.00    -0.265 N 
ATOM     18  N   UNL     1      14.404  -3.820  -0.154  0.00  0.00    -0.175 NA
ATOM     19  C   UNL     1      16.315  -0.657  -0.166  0.00  0.00    +0.066 C 
BRANCH  17  20
ATOM     20  C   UNL     1      16.951  -3.689  -0.176  0.00  0.00    +0.101 C 
ATOM     21  C   UNL     1      17.143  -4.561   1.067  0.00  0.00    +0.032 C 
ATOM     22  C   UNL     1      17.121  -4.547  -1.432  0.00  0.00    +0.032 C 
ENDBRANCH  17  20
ENDBRANCH  11  15
ENDBRANCH   1  12
BRANCH   5  23
ATOM     23  S   UNL     1       6.202   2.369  -0.044  0.00  0.00    -0.075 S 
BRANCH  23  24
ATOM     24  C   UNL     1       4.839   1.171  -0.038  0.00  0.00    +0.174 C 
BRANCH  24  25
ATOM     25  C   UNL     1       3.524   1.907  -0.021  0.00  0.00    +0.239 C 
ATOM     26  O   UNL     1       3.508   3.120  -0.015  0.00  0.00    -0.273 OA
ATOM     27  N   UNL     1       2.366   1.217  -0.014  0.00  0.00    -0.233 N 
ATOM     28  H   UNL     1       2.381   0.117  -0.020  0.00  0.00    +0.173 HD
BRANCH  27  29
ATOM     29  N   UNL     1       1.143   1.901   0.001  0.00  0.00    -0.230 N 
ATOM     30  C   UNL     1      -0.014   1.211   0.009  0.00  0.00    +0.260 C 
ATOM     31  O   UNL     1       0.002  -0.004   0.002  0.00  0.00    -0.269 OA
ATOM     32  H   UNL     1       1.129   3.001   0.007  0.00  0.00    +0.173 HD
BRANCH  30  33
ATOM     33  C   UNL     1      -1.304   1.933   0.019  0.00  0.00    +0.038 A 
ATOM     34  C   UNL     1      -1.326   3.329   0.032  0.00  0.00    +0.014 A 
ATOM     35  C   UNL     1      -2.533   3.996   0.035  0.00  0.00    +0.021 A 
ATOM     36  C   UNL     1      -3.721   3.285   0.037  0.00  0.00    +0.041 A 
ATOM     37  C   UNL     1      -3.706   1.900   0.030  0.00  0.00    +0.021 A 
ATOM     38  C   UNL     1      -2.505   1.221   0.021  0.00  0.00    +0.014 A 
ATOM     39 CL   UNL     1      -5.236   4.132   0.048  0.00  0.00    -0.084 Cl
ENDBRANCH  30  33
ENDBRANCH  27  29
ENDBRANCH  24  25
ENDBRANCH  23  24
ENDBRANCH   5  23
TORSDOF 9
