REMARK  Name = ZINC13223586
REMARK  13 active torsions:
REMARK  status: ('A' for Active; 'I' for Inactive)
REMARK    1  A    between atoms: C_1  and  C_2
REMARK    2  A    between atoms: C_4  and  N_12
REMARK    3  A    between atoms: C_5  and  N_9
REMARK    4  A    between atoms: C_7  and  C_8
REMARK    5  A    between atoms: C_13  and  C_15
REMARK    6  A    between atoms: C_15  and  S_16
REMARK    7  A    between atoms: S_16  and  C_17
REMARK    8  A    between atoms: N_27  and  C_28
REMARK    9  A    between atoms: C_28  and  C_29
REMARK   10  A    between atoms: C_29  and  C_30
REMARK   11  A    between atoms: C_30  and  C_31
REMARK   12  A    between atoms: C_31  and  C_32
REMARK   13  A    between atoms: C_32  and  C_33
REMARK                            x       y       z     vdW  Elec       q    Type
REMARK                         _______ _______ _______ _____ _____    ______ ____
ROOT
ATOM      1  C   UNL     1      -1.119  -2.034  -0.018  0.00  0.00    +0.173 A 
ATOM      2  N   UNL     1      -1.137  -0.724  -0.026  0.00  0.00    -0.223 NA
ATOM      3  C   UNL     1       0.001  -0.002  -0.048  0.00  0.00    +0.079 A 
ATOM      4  C   UNL     1      -0.018   1.396  -0.056  0.00  0.00    +0.028 A 
ATOM      5  C   UNL     1       1.159   2.088  -0.078  0.00  0.00    +0.002 A 
ATOM      6  C   UNL     1       2.379   1.424  -0.092  0.00  0.00    +0.001 A 
ATOM      7  C   UNL     1       2.431   0.057  -0.085  0.00  0.00    +0.015 A 
ATOM      8  C   UNL     1       1.244  -0.675  -0.063  0.00  0.00    +0.065 A 
ATOM      9  C   UNL     1       1.238  -2.144  -0.053  0.00  0.00    +0.262 A 
ATOM     10  O   UNL     1       2.277  -2.779  -0.065  0.00  0.00    -0.267 OA
ATOM     11  N   UNL     1       0.036  -2.764  -0.031  0.00  0.00    -0.287 N 
ENDROOT
BRANCH   1  12
ATOM     12  S   UNL     1      -2.656  -2.896   0.012  0.00  0.00    -0.078 S 
BRANCH  12  13
ATOM     13  C   UNL     1      -3.801  -1.494   0.021  0.00  0.00    +0.173 C 
BRANCH  13  15
ATOM     14  N   UNL     1      -6.248  -1.134   0.057  0.00  0.00    -0.283 N 
ATOM     15  C   UNL     1      -5.219  -2.004   0.046  0.00  0.00    +0.228 C 
ATOM     16  O   UNL     1      -5.434  -3.198   0.057  0.00  0.00    -0.275 OA
ATOM     17  H   UNL     1      -6.077  -0.182   0.130  0.00  0.00    +0.155 HD
BRANCH  14  21
ATOM     18  C   UNL     1      -9.407  -4.609  -1.397  0.00  0.00    +0.044 C 
ATOM     19  C   UNL     1      -9.123  -3.285  -0.736  0.00  0.00    -0.046 A 
ATOM     20  C   UNL     1      -7.824  -2.824  -0.646  0.00  0.00    +0.029 A 
ATOM     21  C   UNL     1      -7.563  -1.604  -0.036  0.00  0.00    +0.064 A 
ATOM     22  C   UNL     1      -8.609  -0.854   0.485  0.00  0.00    +0.148 A 
ATOM     23  C   UNL     1      -9.906  -1.318   0.387  0.00  0.00    +0.038 A 
ATOM     24  C   UNL     1     -10.162  -2.534  -0.221  0.00  0.00    -0.045 A 
ATOM     25  C   UNL     1     -11.578  -3.039  -0.322  0.00  0.00    +0.044 C 
BRANCH  22  26
ATOM     26  N   UNL     1      -8.335   0.445   1.141  0.00  0.00    +0.058 N 
ATOM     27  O   UNL     1      -9.239   1.059   1.678  0.00  0.00    -0.126 OA
ATOM     28  O   UNL     1      -7.204   0.898   1.145  0.00  0.00    -0.126 OA
ENDBRANCH  22  26
ENDBRANCH  14  21
ENDBRANCH  13  15
ENDBRANCH  12  13
ENDBRANCH   1  12
BRANCH  11  29
ATOM     29  C   UNL     1      -0.028  -4.227  -0.021  0.00  0.00    +0.127 C 
BRANCH  29  30
ATOM     30  C   UNL     1      -0.028  -4.728   1.425  0.00  0.00    +0.022 C 
BRANCH  30  31
ATOM     31  C   UNL     1      -0.095  -6.256   1.435  0.00  0.00    +0.002 C 
BRANCH  31  32
ATOM     32  C   UNL     1      -0.095  -6.757   2.881  0.00  0.00    +0.011 C 
BRANCH  32  33
ATOM     33  C   UNL     1      -0.162  -8.285   2.892  0.00  0.00    +0.125 C 
BRANCH  33  34
ATOM     34  C   UNL     1      -0.162  -8.778   4.316  0.00  0.00    +0.356 C 
ATOM     35  O   UNL     1      -0.114  -7.988   5.229  0.00  0.00    -0.246 OA
ATOM     36  O   UNL     1      -0.216 -10.095   4.570  0.00  0.00    -0.246 OA
ENDBRANCH  33  34
ENDBRANCH  32  33
ENDBRANCH  31  32
ENDBRANCH  30  31
ENDBRANCH  29  30
ENDBRANCH  11  29
TORSDOF 11
