REMARK  Name = ZINC09271281
REMARK  18 active torsions:
REMARK  status: ('A' for Active; 'I' for Inactive)
REMARK    1  A    between atoms: C_1  and  C_2
REMARK    2  A    between atoms: C_2  and  C_3
REMARK    3  A    between atoms: C_6  and  C_9
REMARK    4  A    between atoms: C_12  and  C_13
REMARK    5  A    between atoms: C_12  and  O_25
REMARK    6  A    between atoms: C_16  and  O_20
REMARK    7  A    between atoms: C_17  and  C_19
REMARK    8  A    between atoms: O_20  and  C_21
REMARK    9  A    between atoms: C_21  and  C_22
REMARK   10  A    between atoms: C_22  and  C_23
REMARK   11  A    between atoms: C_22  and  C_24
REMARK   12  A    between atoms: N_30  and  C_31
REMARK   13  A    between atoms: C_31  and  C_32
REMARK   14  A    between atoms: C_32  and  N_76
REMARK   15  A    between atoms: C_33  and  C_34
REMARK   16  A    between atoms: C_33  and  N_76
REMARK   17  A    between atoms: C_35  and  C_36
REMARK   18  A    between atoms: C_35  and  N_76
REMARK                            x       y       z     vdW  Elec       q    Type
REMARK                         _______ _______ _______ _____ _____    ______ ____
ROOT
ATOM      1  C   UNL     1      -5.759   1.877   3.907  0.00  0.00    +0.144 C 
ATOM      2  C   UNL     1      -6.324   1.724   5.301  0.00  0.00    +0.071 C 
ATOM      3  C   UNL     1      -7.474   2.305   5.799  0.00  0.00    +0.133 C 
ATOM      4  C   UNL     1      -5.446   0.871   5.986  0.00  0.00    +0.249 C 
ATOM      5  O   UNL     1      -5.561   0.507   7.143  0.00  0.00    -0.282 OA
ATOM      6  C   UNL     1      -4.352   0.485   5.054  0.00  0.00    +0.288 C 
ATOM      7  O   UNL     1      -3.428  -0.251   5.333  0.00  0.00    -0.266 OA
ATOM      8  N   UNL     1      -4.535   1.073   3.860  0.00  0.00    -0.285 N 
ENDROOT
BRANCH   3   9
ATOM      9  C   UNL     1      -7.947   1.960   7.148  0.00  0.00    +0.017 A 
ATOM     10  C   UNL     1      -8.052   0.618   7.534  0.00  0.00    +0.015 A 
ATOM     11  C   UNL     1      -8.491   0.301   8.799  0.00  0.00    +0.046 A 
ATOM     12  C   UNL     1      -8.841   1.310   9.690  0.00  0.00    +0.123 A 
ATOM     13  C   UNL     1      -8.744   2.644   9.309  0.00  0.00    -0.008 A 
ATOM     14  C   UNL     1      -8.301   2.972   8.048  0.00  0.00    +0.018 A 
ATOM     15  C   UNL     1      -9.124   3.733  10.280  0.00  0.00    +0.047 C 
BRANCH  12  16
ATOM     16  O   UNL     1      -9.278   0.992  10.934  0.00  0.00    -0.491 OA
BRANCH  16  17
ATOM     17  C   UNL     1      -9.354  -0.397  11.260  0.00  0.00    +0.232 C 
BRANCH  17  18
ATOM     18  C   UNL     1      -9.865  -0.558  12.693  0.00  0.00    +0.020 C 
ATOM     19  C   UNL     1     -10.064  -2.044  13.000  0.00  0.00    +0.010 C 
ATOM     20  C   UNL     1      -8.842   0.031  13.668  0.00  0.00    +0.010 C 
ENDBRANCH  17  18
ENDBRANCH  16  17
ENDBRANCH  12  16
ENDBRANCH   3   9
BRANCH   1  24
ATOM     21  C   UNL     1      -4.845   5.979   3.143  0.00  0.00    -0.048 A 
ATOM     22  C   UNL     1      -5.985   5.413   2.605  0.00  0.00    +0.004 A 
ATOM     23  C   UNL     1      -6.281   4.086   2.852  0.00  0.00    +0.006 A 
ATOM     24  C   UNL     1      -5.437   3.324   3.638  0.00  0.00    -0.022 A 
ATOM     25  C   UNL     1      -4.299   3.891   4.181  0.00  0.00    +0.006 A 
ATOM     26  C   UNL     1      -4.000   5.218   3.930  0.00  0.00    +0.004 A 
BRANCH  21  28
ATOM     27  C   UNL     1      -5.157   8.302   3.955  0.00  0.00    +0.009 C 
ATOM     28  C   UNL     1      -4.522   7.426   2.873  0.00  0.00    +0.032 C 
ENDBRANCH  21  28
ENDBRANCH   1  24
BRANCH   3  29
ATOM     29  O   UNL     1      -8.163   3.190   5.047  0.00  0.00    -0.506 OA
ATOM     30  H   UNL     1      -8.962   3.510   5.557  0.00  0.00    +0.292 HD
ENDBRANCH   3  29
BRANCH   8  31
ATOM     31  C   UNL     1      -3.656   0.927   2.696  0.00  0.00    +0.090 C 
BRANCH  31  32
ATOM     32  C   UNL     1      -2.584   2.018   2.728  0.00  0.00    -0.060 C 
BRANCH  32  33
ATOM     33  N   UNL     1      -1.694   1.845   1.560  0.00  0.00    +0.380 N 
ATOM     34  H   UNL     1      -1.364   0.873   1.534  0.00  0.00    -0.082 HD
BRANCH  33  35
ATOM     35  C   UNL     1      -0.527   2.745   1.677  0.00  0.00    -0.082 C 
ATOM     36  C   UNL     1       0.459   2.141   2.679  0.00  0.00    -0.017 C 
ENDBRANCH  33  35
BRANCH  33  37
ATOM     37  C   UNL     1      -2.433   2.136   0.314  0.00  0.00    -0.082 C 
ATOM     38  C   UNL     1      -1.675   1.516  -0.861  0.00  0.00    -0.017 C 
ENDBRANCH  33  37
ENDBRANCH  32  33
ENDBRANCH  31  32
ENDBRANCH   8  31
TORSDOF 12
