REMARK  Name = ZINC01875372
REMARK  14 active torsions:
REMARK  status: ('A' for Active; 'I' for Inactive)
REMARK    1  A    between atoms: C_1  and  C_2
REMARK    2  A    between atoms: C_4  and  O_46
REMARK    3  A    between atoms: C_14  and  C_15
REMARK    4  A    between atoms: C_14  and  O_35
REMARK    5  A    between atoms: C_15  and  C_17
REMARK    6  A    between atoms: C_17  and  O_18
REMARK    7  A    between atoms: O_18  and  C_19
REMARK    8  A    between atoms: C_19  and  C_21
REMARK    9  A    between atoms: C_21  and  C_22
REMARK   10  A    between atoms: C_22  and  C_23
REMARK   11  A    between atoms: N_25  and  C_26
REMARK   12  A    between atoms: C_26  and  C_27
REMARK   13  A    between atoms: C_27  and  C_28
REMARK   14  A    between atoms: C_44  and  C_45
REMARK                            x       y       z     vdW  Elec       q    Type
REMARK                         _______ _______ _______ _____ _____    ______ ____
ROOT
ATOM      1  C   UNL     1       0.143   1.403  -0.047  0.00  0.00    +0.015 C 
ATOM      2  C   UNL     1       0.048  -0.123   0.005  0.00  0.00    +0.009 C 
ATOM      3  C   UNL     1       0.507  -0.761  -1.307  0.00  0.00    +0.041 C 
ATOM      4  C   UNL     1       2.025  -0.690  -1.453  0.00  0.00    +0.120 C 
ATOM      5  C   UNL     1       2.656  -1.469  -0.297  0.00  0.00    +0.035 C 
ATOM      6  C   UNL     1       2.304  -0.754   1.008  0.00  0.00    -0.000 C 
ATOM      7  C   UNL     1       0.823  -0.700   1.203  0.00  0.00    +0.002 C 
ATOM      8  C   UNL     1       0.220  -2.106   1.376  0.00  0.00    +0.008 C 
ATOM      9  C   UNL     1      -1.289  -1.883   1.120  0.00  0.00    +0.043 C 
ATOM     10  C   UNL     1      -1.405  -0.602   0.273  0.00  0.00    +0.133 C 
ATOM     11  C   UNL     1       2.850   0.676   0.985  0.00  0.00    +0.008 C 
ATOM     12  C   UNL     1       4.379   0.647   0.893  0.00  0.00    +0.032 C 
ATOM     13  C   UNL     1       4.761  -0.167  -0.329  0.00  0.00    -0.056 C 
ATOM     14  C   UNL     1       5.594   0.356  -1.217  0.00  0.00    +0.051 C 
ATOM     15  C   UNL     1       5.969  -0.397  -2.424  0.00  0.00    +0.179 C 
ATOM     16  O   UNL     1       6.765   0.063  -3.222  0.00  0.00    -0.288 OA
ATOM     17  C   UNL     1       5.360  -1.719  -2.645  0.00  0.00    +0.047 C 
ATOM     18  C   UNL     1       4.535  -2.225  -1.741  0.00  0.00    -0.012 C 
ATOM     19  C   UNL     1       4.171  -1.535  -0.467  0.00  0.00    +0.013 C 
ATOM     20  C   UNL     1       4.725  -2.394   0.672  0.00  0.00    +0.020 C 
ENDROOT
BRANCH  10  21
ATOM     21  C   UNL     1      -2.099  -0.904  -1.031  0.00  0.00    +0.202 C 
ATOM     22  O   UNL     1      -2.118  -2.034  -1.457  0.00  0.00    -0.291 OA
BRANCH  21  23
ATOM     23  C   UNL     1      -2.768   0.204  -1.803  0.00  0.00    +0.309 C 
BRANCH  23  24
ATOM     24  O   UNL     1      -3.350  -0.330  -2.994  0.00  0.00    -0.457 OA
BRANCH  24  25
ATOM     25  C   UNL     1      -3.989   0.533  -3.800  0.00  0.00    +0.308 C 
ATOM     26  O   UNL     1      -4.053   1.702  -3.503  0.00  0.00    -0.251 OA
BRANCH  25  27
ATOM     27  C   UNL     1      -4.628   0.043  -5.074  0.00  0.00    +0.130 C 
BRANCH  27  28
ATOM     28  C   UNL     1      -5.284   1.218  -5.800  0.00  0.00    +0.107 C 
BRANCH  28  29
ATOM     29  C   UNL     1      -5.923   0.728  -7.074  0.00  0.00    +0.214 C 
ATOM     30  O   UNL     1      -5.859  -0.446  -7.372  0.00  0.00    -0.276 OA
ATOM     31  N   UNL     1      -6.565   1.594  -7.883  0.00  0.00    -0.315 N 
ATOM     32  H   UNL     1      -6.616   2.533  -7.645  0.00  0.00    +0.149 HD
BRANCH  31  33
ATOM     33  C   UNL     1      -7.186   1.118  -9.121  0.00  0.00    +0.109 C 
BRANCH  33  34
ATOM     34  C   UNL     1      -7.842   2.293  -9.848  0.00  0.00    +0.054 C 
BRANCH  34  35
ATOM     35  C   UNL     1      -8.481   1.803 -11.122  0.00  0.00    -0.046 A 
ATOM     36  C   UNL     1      -7.750   1.778 -12.295  0.00  0.00    +0.006 A 
ATOM     37  C   UNL     1      -8.335   1.328 -13.464  0.00  0.00    +0.038 A 
ATOM     38  C   UNL     1      -9.652   0.902 -13.459  0.00  0.00    +0.123 A 
ATOM     39  C   UNL     1     -10.383   0.928 -12.283  0.00  0.00    +0.038 A 
ATOM     40  C   UNL     1      -9.795   1.373 -11.115  0.00  0.00    +0.006 A 
ATOM     41  F   UNL     1     -10.225   0.463 -14.601  0.00  0.00    -0.205 F 
ENDBRANCH  34  35
ENDBRANCH  33  34
ENDBRANCH  31  33
ENDBRANCH  28  29
ENDBRANCH  27  28
ENDBRANCH  25  27
ENDBRANCH  24  25
ENDBRANCH  23  24
ENDBRANCH  21  23
ENDBRANCH  10  21
BRANCH  10  42
ATOM     42  O   UNL     1      -2.127   0.400   0.993  0.00  0.00    -0.380 OA
ATOM     43  H   UNL     1      -3.043   0.159   1.190  0.00  0.00    +0.211 HD
ENDBRANCH  10  42
BRANCH   4  44
ATOM     44  O   UNL     1       2.450   0.674  -1.405  0.00  0.00    -0.391 OA
ATOM     45  H   UNL     1       2.072   1.229  -2.100  0.00  0.00    +0.210 HD
ENDBRANCH   4  44
TORSDOF 12
