REMARK  Name = ZINC38546638
REMARK  5 active torsions:
REMARK  status: ('A' for Active; 'I' for Inactive)
REMARK    1  A    between atoms: C_5  and  C_7
REMARK    2  A    between atoms: C_7  and  C_9
REMARK    3  A    between atoms: C_7  and  N_26
REMARK    4  A    between atoms: C_13  and  N_14
REMARK    5  A    between atoms: C_15  and  C_17
REMARK                            x       y       z     vdW  Elec       q    Type
REMARK                         _______ _______ _______ _____ _____    ______ ____
ROOT
ATOM      1  C   UNL     1       1.263  -2.644   0.053  0.00  0.00    +0.015 C 
ENDROOT
BRANCH   1   2
ATOM      2  N   UNL     1       2.522  -3.245   0.513  0.00  0.00    +0.390 N 
ATOM      3  C   UNL     1       2.573  -4.651   0.094  0.00  0.00    -0.058 C 
ATOM      4  C   UNL     1       3.933  -5.247   0.472  0.00  0.00    +0.088 C 
ATOM      5  N   UNL     1       4.151  -5.034   1.911  0.00  0.00    -0.320 N 
ATOM      6  C   UNL     1       3.960  -3.678   2.448  0.00  0.00    +0.088 C 
ATOM      7  C   UNL     1       2.599  -3.156   1.977  0.00  0.00    -0.058 C 
ATOM      8  C   UNL     1       4.527  -6.085   2.740  0.00  0.00    +0.099 A 
ATOM      9  C   UNL     1       4.539  -7.385   2.244  0.00  0.00    +0.042 A 
ATOM     10  C   UNL     1       4.915  -8.420   3.079  0.00  0.00    +0.005 A 
ATOM     11  C   UNL     1       5.269  -8.120   4.388  0.00  0.00    +0.018 A 
ATOM     12  C   UNL     1       5.236  -6.808   4.814  0.00  0.00    +0.084 A 
ATOM     13  N   UNL     1       4.877  -5.839   3.993  0.00  0.00    -0.350 N 
ATOM     14  H   UNL     1       4.866  -4.924   4.317  0.00  0.00    +0.166 HD
ATOM     15  H   UNL     1       3.300  -2.747   0.106  0.00  0.00    -0.080 HD
ENDBRANCH   1   2
BRANCH   1  16
ATOM     16  C   UNL     1       1.110  -2.870  -1.429  0.00  0.00    -0.023 A 
ATOM     17  C   UNL     1      -0.083  -3.385  -1.938  0.00  0.00    -0.033 A 
ATOM     18  C   UNL     1      -0.144  -3.561  -3.286  0.00  0.00    -0.005 A 
ATOM     19  S   UNL     1       1.443  -3.017  -3.859  0.00  0.00    -0.078 S 
ATOM     20  C   UNL     1       2.132  -2.568  -2.273  0.00  0.00    +0.074 A 
ATOM     21  C   UNL     1      -1.290  -4.093  -4.084  0.00  0.00    +0.043 C 
ATOM     22  C   UNL     1      -2.280  -4.763  -3.119  0.00  0.00    +0.005 C 
ATOM     23  C   UNL     1      -2.528  -3.822  -1.937  0.00  0.00    +0.005 C 
ATOM     24  C   UNL     1      -1.278  -3.743  -1.060  0.00  0.00    +0.036 C 
BRANCH  20  25
ATOM     25  N   UNL     1       3.393  -2.045  -1.978  0.00  0.00    -0.273 N 
ATOM     26  C   UNL     1       4.321  -1.934  -2.949  0.00  0.00    +0.284 C 
ATOM     27  O   UNL     1       4.061  -2.290  -4.083  0.00  0.00    -0.266 OA
ATOM     28  H   UNL     1       3.600  -1.761  -1.074  0.00  0.00    +0.156 HD
BRANCH  26  29
ATOM     29  C   UNL     1       5.645  -1.385  -2.638  0.00  0.00    +0.189 A 
ATOM     30  C   UNL     1       6.670  -1.214  -3.523  0.00  0.00    +0.054 A 
ATOM     31  C   UNL     1       7.740  -0.663  -2.800  0.00  0.00    +0.042 A 
ATOM     32  C   UNL     1       7.325  -0.523  -1.522  0.00  0.00    +0.196 A 
ATOM     33  O   UNL     1       6.061  -0.955  -1.429  0.00  0.00    -0.458 OA
ENDBRANCH  26  29
ENDBRANCH  20  25
ENDBRANCH   1  16
BRANCH   1  38
ATOM     34  C   UNL     1       0.113   0.879   0.745  0.00  0.00    +0.003 A 
ATOM     35  C   UNL     1       1.345   1.508   0.845  0.00  0.00    +0.020 A 
ATOM     36  C   UNL     1       2.497   0.761   0.684  0.00  0.00    +0.111 A 
ATOM     37  N   UNL     1       2.434  -0.533   0.438  0.00  0.00    -0.261 NA
ATOM     38  C   UNL     1       1.280  -1.163   0.336  0.00  0.00    +0.032 A 
ATOM     39  C   UNL     1       0.086  -0.483   0.486  0.00  0.00    +0.022 A 
ENDBRANCH   1  38
TORSDOF 5
