REMARK  Name = ZINC38597822
REMARK  11 active torsions:
REMARK  status: ('A' for Active; 'I' for Inactive)
REMARK    1  A    between atoms: C_1  and  C_2
REMARK    2  A    between atoms: C_2  and  C_3
REMARK    3  A    between atoms: C_3  and  O_4
REMARK    4  A    between atoms: O_4  and  C_5
REMARK    5  A    between atoms: C_8  and  S_11
REMARK    6  A    between atoms: S_11  and  N_14
REMARK    7  A    between atoms: N_14  and  C_15
REMARK    8  A    between atoms: C_15  and  C_16
REMARK    9  A    between atoms: C_16  and  C_18
REMARK   10  A    between atoms: C_16  and  N_23
REMARK   11  A    between atoms: N_26  and  C_29
REMARK                            x       y       z     vdW  Elec       q    Type
REMARK                         _______ _______ _______ _____ _____    ______ ____
ROOT
ATOM      1  C   UNL     1       6.787  -5.831  -4.505  0.00  0.00    +0.015 C 
ENDROOT
BRANCH   1   2
ATOM      2  N   UNL     1       7.486  -4.540  -4.445  0.00  0.00    +0.389 N 
ATOM      3  C   UNL     1       6.908  -3.627  -5.439  0.00  0.00    -0.059 C 
ATOM      4  C   UNL     1       7.557  -2.245  -5.301  0.00  0.00    +0.086 C 
ATOM      5  N   UNL     1       9.016  -2.404  -5.397  0.00  0.00    -0.333 N 
ATOM      6  C   UNL     1       9.661  -3.418  -4.549  0.00  0.00    +0.086 C 
ATOM      7  C   UNL     1       8.913  -4.744  -4.724  0.00  0.00    -0.059 C 
ATOM      8  H   UNL     1       7.377  -4.142  -3.524  0.00  0.00    -0.081 HD
BRANCH   5   9
ATOM      9  C   UNL     1       9.769  -1.613  -6.271  0.00  0.00    +0.030 A 
ATOM     10  C   UNL     1       9.131  -0.749  -7.151  0.00  0.00    +0.026 A 
ATOM     11  C   UNL     1       9.877   0.032  -8.012  0.00  0.00    +0.040 A 
ATOM     12  C   UNL     1      11.259  -0.046  -7.998  0.00  0.00    +0.124 A 
ATOM     13  C   UNL     1      11.897  -0.906  -7.121  0.00  0.00    +0.040 A 
ATOM     14  C   UNL     1      11.156  -1.686  -6.255  0.00  0.00    +0.026 A 
ATOM     15  F   UNL     1      11.986   0.719  -8.842  0.00  0.00    -0.205 F 
ENDBRANCH   5   9
ENDBRANCH   1   2
BRANCH   1  16
ATOM     16  C   UNL     1       7.315  -6.738  -3.424  0.00  0.00    +0.093 A 
ATOM     17  C   UNL     1       7.558  -8.055  -3.551  0.00  0.00    +0.043 A 
ATOM     18  C   UNL     1       8.041  -8.505  -2.300  0.00  0.00    +0.041 A 
ATOM     19  C   UNL     1       8.064  -7.436  -1.484  0.00  0.00    +0.195 A 
ATOM     20  O   UNL     1       7.629  -6.368  -2.171  0.00  0.00    -0.469 OA
ENDBRANCH   1  16
BRANCH   1  21
ATOM     21  C   UNL     1       5.288  -5.609  -4.297  0.00  0.00    +0.098 C 
BRANCH  21  22
ATOM     22  N   UNL     1       5.071  -4.869  -3.051  0.00  0.00    -0.191 NA
ATOM     23  H   UNL     1       5.780  -4.812  -2.392  0.00  0.00    +0.148 HD
BRANCH  22  24
ATOM     24  S   UNL     1       3.616  -4.131  -2.769  0.00  0.00    +0.058 S 
ATOM     25  O   UNL     1       3.304  -3.387  -3.939  0.00  0.00    -0.153 OA
ATOM     26  O   UNL     1       3.708  -3.529  -1.485  0.00  0.00    -0.153 OA
BRANCH  24  30
ATOM     27  C   UNL     1       0.497  -7.399  -2.444  0.00  0.00    +0.121 A 
ATOM     28  C   UNL     1       1.171  -6.966  -1.311  0.00  0.00    +0.047 A 
ATOM     29  C   UNL     1       2.122  -5.969  -1.413  0.00  0.00    +0.032 A 
ATOM     30  C   UNL     1       2.403  -5.403  -2.643  0.00  0.00    +0.105 A 
ATOM     31  C   UNL     1       1.733  -5.832  -3.773  0.00  0.00    +0.032 A 
ATOM     32  C   UNL     1       0.785  -6.833  -3.678  0.00  0.00    +0.047 A 
BRANCH  27  33
ATOM     33  O   UNL     1      -0.438  -8.380  -2.347  0.00  0.00    -0.492 OA
BRANCH  33  34
ATOM     34  C   UNL     1      -0.683  -8.916  -1.045  0.00  0.00    +0.229 C 
BRANCH  34  36
ATOM     35  C   UNL     1      -2.021 -10.574   0.260  0.00  0.00    +0.007 C 
ATOM     36  C   UNL     1      -1.759 -10.000  -1.134  0.00  0.00    +0.038 C 
ENDBRANCH  34  36
ENDBRANCH  33  34
ENDBRANCH  27  33
ENDBRANCH  24  30
ENDBRANCH  22  24
ENDBRANCH  21  22
ENDBRANCH   1  21
TORSDOF 10
