REMARK  Name = ZINC32753384
REMARK  9 active torsions:
REMARK  status: ('A' for Active; 'I' for Inactive)
REMARK    1  A    between atoms: C_1  and  C_2
REMARK    2  A    between atoms: C_2  and  C_3
REMARK    3  A    between atoms: C_3  and  N_4
REMARK    4  A    between atoms: N_4  and  C_5
REMARK    5  A    between atoms: N_4  and  C_18
REMARK    6  A    between atoms: C_5  and  C_6
REMARK    7  A    between atoms: N_8  and  C_9
REMARK    8  A    between atoms: C_18  and  C_19
REMARK    9  A    between atoms: N_21  and  C_22
REMARK                            x       y       z     vdW  Elec       q    Type
REMARK                         _______ _______ _______ _____ _____    ______ ____
ROOT
ATOM      1  N   UNL     1       3.624   1.834   0.205  0.00  0.00    +0.391 N 
ATOM      2  H   UNL     1       3.740   2.630  -0.545  0.00  0.00    -0.080 HD
ENDROOT
BRANCH   1   3
ATOM      3  C   UNL     1       3.298   2.468   1.490  0.00  0.00    -0.078 C 
BRANCH   3   5
ATOM      4  C   UNL     1       2.633   2.047   3.861  0.00  0.00    +0.002 C 
ATOM      5  C   UNL     1       3.022   1.387   2.537  0.00  0.00    -0.022 C 
ENDBRANCH   3   5
ENDBRANCH   1   3
BRANCH   1   6
ATOM      6  C   UNL     1       4.895   1.102   0.287  0.00  0.00    +0.020 C 
BRANCH   6   7
ATOM      7  C   UNL     1       6.037   2.084   0.347  0.00  0.00    +0.201 C 
ATOM      8  O   UNL     1       5.823   3.272   0.222  0.00  0.00    -0.278 OA
ATOM      9  N   UNL     1       7.296   1.643   0.539  0.00  0.00    -0.285 N 
ATOM     10  H   UNL     1       7.502   0.563   0.568  0.00  0.00    +0.155 HD
BRANCH   9  11
ATOM     11  C   UNL     1       8.343   2.560   0.702  0.00  0.00    +0.072 A 
ATOM     12  C   UNL     1       8.258   3.821   0.126  0.00  0.00    +0.029 A 
ATOM     13  C   UNL     1       9.288   4.726   0.292  0.00  0.00    +0.043 A 
ATOM     14  C   UNL     1      10.411   4.376   1.022  0.00  0.00    +0.161 A 
ATOM     15  C   UNL     1      10.502   3.116   1.593  0.00  0.00    +0.195 A 
ATOM     16  C   UNL     1       9.470   2.207   1.435  0.00  0.00    +0.182 A 
ATOM     17  F   UNL     1       9.558   0.979   1.991  0.00  0.00    -0.200 F 
ATOM     18  F   UNL     1      11.599   2.775   2.305  0.00  0.00    -0.199 F 
ATOM     19  F   UNL     1      11.419   5.262   1.177  0.00  0.00    -0.202 F 
ENDBRANCH   9  11
ENDBRANCH   6   7
ENDBRANCH   1   6
BRANCH   1  20
ATOM     20  C   UNL     1       2.536   0.952  -0.238  0.00  0.00    +0.019 C 
BRANCH  20  21
ATOM     21  C   UNL     1       1.314   1.777  -0.546  0.00  0.00    +0.197 C 
ATOM     22  O   UNL     1       1.345   2.982  -0.410  0.00  0.00    -0.278 OA
ATOM     23  N   UNL     1       0.185   1.177  -0.972  0.00  0.00    -0.310 N 
ATOM     24  H   UNL     1       0.155   0.083  -1.091  0.00  0.00    +0.149 HD
BRANCH  23  25
ATOM     25  C   UNL     1      -1.002   1.980  -1.278  0.00  0.00    +0.110 C 
ATOM     26  C   UNL     1      -2.255   1.112  -1.133  0.00  0.00    +0.068 C 
ATOM     27  C   UNL     1      -3.441   1.876  -1.736  0.00  0.00    +0.231 C 
ATOM     28  O   UNL     1      -3.212   2.031  -3.137  0.00  0.00    -0.492 OA
ATOM     29  C   UNL     1      -2.001   2.503  -3.534  0.00  0.00    +0.125 A 
ATOM     30  C   UNL     1      -0.905   2.501  -2.689  0.00  0.00    +0.014 A 
ATOM     31  C   UNL     1       0.311   2.988  -3.137  0.00  0.00    +0.009 A 
ATOM     32  C   UNL     1       0.435   3.477  -4.423  0.00  0.00    +0.001 A 
ATOM     33  C   UNL     1      -0.658   3.482  -5.269  0.00  0.00    +0.004 A 
ATOM     34  C   UNL     1      -1.873   2.997  -4.828  0.00  0.00    +0.046 A 
ENDBRANCH  23  25
ENDBRANCH  20  21
ENDBRANCH   1  20
TORSDOF 8
