REMARK  Name = ZINC41124547
REMARK  2 active torsions:
REMARK  status: ('A' for Active; 'I' for Inactive)
REMARK    1  A    between atoms: C_4  and  C_7
REMARK    2  A    between atoms: N_11  and  O_12
REMARK                            x       y       z     vdW  Elec       q    Type
REMARK                         _______ _______ _______ _____ _____    ______ ____
ROOT
ATOM      1  C   UNL     1       3.711  -0.707  -0.038  0.00  0.00    +0.210 C 
ATOM      2  C   UNL     1       4.050  -1.185   1.382  0.00  0.00    +0.109 C 
ATOM      3  C   UNL     1       5.363  -1.943   1.298  0.00  0.00    +0.096 C 
ATOM      4  N   UNL     1       6.276  -1.829   2.208  0.00  0.00    -0.091 NA
ATOM      5  C   UNL     1       5.543  -2.821   0.119  0.00  0.00    +0.061 A 
ATOM      6  C   UNL     1       6.590  -3.739   0.070  0.00  0.00    +0.054 A 
ATOM      7  C   UNL     1       6.740  -4.545  -1.043  0.00  0.00    +0.022 A 
ATOM      8  C   UNL     1       5.854  -4.439  -2.101  0.00  0.00    +0.025 A 
ATOM      9  C   UNL     1       4.811  -3.533  -2.059  0.00  0.00    +0.083 A 
ATOM     10  C   UNL     1       4.643  -2.716  -0.949  0.00  0.00    +0.150 A 
ATOM     11  O   UNL     1       3.614  -1.835  -0.906  0.00  0.00    -0.482 OA
ATOM     12 CL   UNL     1       3.711  -3.415  -3.397  0.00  0.00    -0.080 Cl
ATOM     13 CL   UNL     1       7.702  -3.869   1.397  0.00  0.00    -0.083 Cl
ENDROOT
BRANCH   1  17
ATOM     14  C   UNL     1      -0.017   1.378   0.010  0.00  0.00    +0.000 A 
ATOM     15  C   UNL     1       1.171   2.086   0.002  0.00  0.00    +0.000 A 
ATOM     16  C   UNL     1       2.377   1.411  -0.013  0.00  0.00    +0.007 A 
ATOM     17  C   UNL     1       2.396   0.029  -0.020  0.00  0.00    -0.007 A 
ATOM     18  C   UNL     1       1.208  -0.679  -0.012  0.00  0.00    +0.007 A 
ATOM     19  C   UNL     1       0.002  -0.004   0.002  0.00  0.00    +0.000 A 
ENDBRANCH   1  17
BRANCH   4  20
ATOM     20  O   UNL     1       6.064  -0.978   3.320  0.00  0.00    -0.409 OA
ATOM     21  H   UNL     1       6.801  -0.958   3.945  0.00  0.00    +0.328 HD
ENDBRANCH   4  20
TORSDOF 2
