REMARK  Name = ZINC08870295
REMARK  8 active torsions:
REMARK  status: ('A' for Active; 'I' for Inactive)
REMARK    1  A    between atoms: C_1  and  C_2
REMARK    2  A    between atoms: C_7  and  N_8
REMARK    3  A    between atoms: N_8  and  S_9
REMARK    4  A    between atoms: S_9  and  C_12
REMARK    5  A    between atoms: C_24  and  C_27
REMARK    6  A    between atoms: C_27  and  C_28
REMARK    7  A    between atoms: C_27  and  C_29
REMARK    8  A    between atoms: C_27  and  C_30
REMARK                            x       y       z     vdW  Elec       q    Type
REMARK                         _______ _______ _______ _____ _____    ______ ____
ROOT
ATOM      1  C   UNL     1      -2.203   8.091   4.582  0.00  0.00    +0.046 C 
ATOM      2  C   UNL     1      -1.761   6.943   3.712  0.00  0.00    -0.025 A 
ATOM      3  C   UNL     1      -1.407   7.197   2.398  0.00  0.00    +0.052 A 
ATOM      4  C   UNL     1      -1.004   6.112   1.626  0.00  0.00    +0.136 A 
ATOM      5  C   UNL     1      -0.963   4.808   2.178  0.00  0.00    +0.025 A 
ATOM      6  C   UNL     1      -1.323   4.565   3.505  0.00  0.00    +0.036 A 
ATOM      7  C   UNL     1      -1.722   5.664   4.256  0.00  0.00    +0.052 A 
ATOM      8  C   UNL     1      -0.505   3.948   1.103  0.00  0.00    +0.002 A 
ATOM      9  C   UNL     1      -0.313   4.745   0.034  0.00  0.00    +0.109 A 
ATOM     10  O   UNL     1      -0.607   6.020   0.352  0.00  0.00    -0.459 OA
ATOM     11  C   UNL     1       0.163   4.241  -1.309  0.00  0.00    +0.075 C 
ATOM     12  C   UNL     1      -0.032   2.722  -1.359  0.00  0.00    +0.012 C 
ATOM     13  C   UNL     1       0.577   2.088  -0.105  0.00  0.00    -0.001 C 
ATOM     14  C   UNL     1      -0.274   2.460   1.115  0.00  0.00    +0.043 C 
ENDROOT
BRANCH  13  15
ATOM     15  C   UNL     1       0.606   0.567  -0.264  0.00  0.00    -0.035 C 
ATOM     16  C   UNL     1      -0.820   0.048  -0.457  0.00  0.00    +0.011 C 
ATOM     17  C   UNL     1       1.453   0.197  -1.483  0.00  0.00    +0.011 C 
ATOM     18  C   UNL     1       1.213  -0.065   0.990  0.00  0.00    +0.011 C 
ENDBRANCH  13  15
BRANCH   7  19
ATOM     19  N   UNL     1      -2.094   5.479   5.592  0.00  0.00    -0.216 N 
ATOM     20  H   UNL     1      -2.809   6.012   5.974  0.00  0.00    +0.174 HD
BRANCH  19  21
ATOM     21  S   UNL     1      -1.314   4.351   6.520  0.00  0.00    +0.072 S 
ATOM     22  O   UNL     1      -1.817   4.495   7.841  0.00  0.00    -0.150 OA
ATOM     23  O   UNL     1      -1.381   3.123   5.809  0.00  0.00    -0.150 OA
BRANCH  21  24
ATOM     24  C   UNL     1       0.386   4.809   6.576  0.00  0.00    +0.109 A 
ATOM     25  C   UNL     1       1.264   4.324   5.624  0.00  0.00    +0.030 A 
ATOM     26  C   UNL     1       2.597   4.687   5.665  0.00  0.00    +0.017 A 
ATOM     27  C   UNL     1       3.055   5.526   6.664  0.00  0.00    +0.018 A 
ATOM     28  C   UNL     1       2.178   6.006   7.620  0.00  0.00    +0.017 A 
ATOM     29  C   UNL     1       0.844   5.648   7.575  0.00  0.00    +0.030 A 
ATOM     30 BR   UNL     1       4.881   6.016   6.725  0.00  0.00    -0.050 Br
ENDBRANCH  21  24
ENDBRANCH  19  21
ENDBRANCH   7  19
TORSDOF 4
