REMARK  Name = ZINC67165027
REMARK  11 active torsions:
REMARK  status: ('A' for Active; 'I' for Inactive)
REMARK    1  A    between atoms: C_1  and  C_2
REMARK    2  A    between atoms: N_8  and  C_9
REMARK    3  A    between atoms: C_9  and  C_10
REMARK    4  A    between atoms: C_10  and  C_11
REMARK    5  A    between atoms: C_11  and  C_12
REMARK    6  A    between atoms: C_12  and  N_13
REMARK    7  A    between atoms: C_14  and  C_16
REMARK    8  A    between atoms: C_16  and  C_17
REMARK    9  A    between atoms: C_17  and  C_18
REMARK   10  A    between atoms: C_18  and  C_19
REMARK   11  A    between atoms: C_19  and  C_20
REMARK                            x       y       z     vdW  Elec       q    Type
REMARK                         _______ _______ _______ _____ _____    ______ ____
ROOT
ATOM      1  N   UNL     1       0.376   0.344   7.323  0.00  0.00    -0.315 N 
ATOM      2  C   UNL     1       0.917   0.114   8.536  0.00  0.00    +0.213 C 
ATOM      3  O   UNL     1       1.935  -0.538   8.632  0.00  0.00    -0.276 OA
ATOM      4  H   UNL     1      -0.439   0.866   7.246  0.00  0.00    +0.149 HD
ENDROOT
BRANCH   1   5
ATOM      5  C   UNL     1       1.017  -0.194   6.121  0.00  0.00    +0.104 C 
BRANCH   5   6
ATOM      6  C   UNL     1       0.207   0.209   4.887  0.00  0.00    +0.017 C 
BRANCH   6   7
ATOM      7  C   UNL     1       0.877  -0.353   3.631  0.00  0.00    -0.017 C 
BRANCH   7   8
ATOM      8  C   UNL     1       0.067   0.050   2.397  0.00  0.00    -0.078 C 
BRANCH   8  15
ATOM      9  C   UNL     1      -0.019   1.526   0.010  0.00  0.00    -0.013 C 
ATOM     10  C   UNL     1       0.002  -0.004   0.002  0.00  0.00    -0.072 C 
ATOM     11  C   UNL     1       0.717  -0.497  -1.258  0.00  0.00    -0.016 C 
ATOM     12  C   UNL     1       0.735  -2.028  -1.262  0.00  0.00    -0.003 C 
ATOM     13  C   UNL     1       1.410  -2.524   0.020  0.00  0.00    -0.019 C 
ATOM     14  C   UNL     1       0.669  -1.956   1.232  0.00  0.00    -0.078 C 
ATOM     15  N   UNL     1       0.711  -0.490   1.192  0.00  0.00    +0.381 N 
ATOM     16  H   UNL     1       1.671  -0.182   1.159  0.00  0.00    -0.081 HD
ENDBRANCH   8  15
ENDBRANCH   7   8
ENDBRANCH   6   7
ENDBRANCH   5   6
ENDBRANCH   1   5
BRANCH   2  17
ATOM     17  C   UNL     1       0.257   0.668   9.773  0.00  0.00    +0.096 C 
BRANCH  17  18
ATOM     18  C   UNL     1       1.067   0.265  11.007  0.00  0.00    +0.009 C 
BRANCH  18  19
ATOM     19  C   UNL     1       0.396   0.827  12.262  0.00  0.00    +0.002 C 
BRANCH  19  20
ATOM     20  C   UNL     1       1.206   0.424  13.496  0.00  0.00    +0.016 C 
BRANCH  20  21
ATOM     21  C   UNL     1       0.536   0.986  14.752  0.00  0.00    +0.069 C 
ATOM     22  C   UNL     1       1.322   0.639  15.990  0.00  0.00    +0.108 C 
ATOM     23  C   UNL     1       0.345   0.609  17.206  0.00  0.00    +0.105 C 
ATOM     24  C   UNL     1      -0.705  -0.443  16.856  0.00  0.00    +0.093 C 
ATOM     25  S   UNL     1      -1.062   0.116  15.104  0.00  0.00    -0.154 S 
ATOM     26  N   UNL     1       1.302   0.396  18.268  0.00  0.00    -0.294 N 
ATOM     27  C   UNL     1       2.439   1.041  17.870  0.00  0.00    +0.300 C 
ATOM     28  O   UNL     1       3.369   1.288  18.613  0.00  0.00    -0.253 OA
ATOM     29  N   UNL     1       2.405   1.389  16.555  0.00  0.00    -0.294 N 
ATOM     30  H   UNL     1       1.166  -0.101  19.091  0.00  0.00    +0.151 HD
ATOM     31  H   UNL     1       2.995   2.009  16.098  0.00  0.00    +0.151 HD
ENDBRANCH  20  21
ENDBRANCH  19  20
ENDBRANCH  18  19
ENDBRANCH  17  18
ENDBRANCH   2  17
TORSDOF 10
