REMARK  Name = ZINC00887096
REMARK  7 active torsions:
REMARK  status: ('A' for Active; 'I' for Inactive)
REMARK    1  A    between atoms: C_1  and  C_2
REMARK    2  A    between atoms: C_14  and  S_15
REMARK    3  A    between atoms: S_15  and  C_16
REMARK    4  A    between atoms: C_16  and  C_17
REMARK    5  A    between atoms: N_19  and  C_20
REMARK    6  A    between atoms: C_23  and  S_26
REMARK    7  A    between atoms: S_26  and  N_29
REMARK                            x       y       z     vdW  Elec       q    Type
REMARK                         _______ _______ _______ _____ _____    ______ ____
ROOT
ATOM      1  C   UNL     1       0.199   5.726   0.034  0.00  0.00    +0.227 C 
ATOM      2  O   UNL     1       1.306   6.221   0.034  0.00  0.00    -0.275 OA
ATOM      3  N   UNL     1      -0.892   6.517   0.047  0.00  0.00    -0.285 N 
ATOM      4  H   UNL     1      -1.776   6.124  -0.021  0.00  0.00    +0.155 HD
ENDROOT
BRANCH   3   5
ATOM      5  C   UNL     1      -0.750   7.904   0.159  0.00  0.00    +0.034 A 
ATOM      6  C   UNL     1      -1.689   8.646   0.864  0.00  0.00    +0.025 A 
ATOM      7  C   UNL     1      -1.542  10.014   0.979  0.00  0.00    +0.030 A 
ATOM      8  C   UNL     1      -0.468  10.648   0.381  0.00  0.00    +0.106 A 
ATOM      9  C   UNL     1       0.466   9.913  -0.327  0.00  0.00    +0.030 A 
ATOM     10  C   UNL     1       0.328   8.544  -0.439  0.00  0.00    +0.025 A 
BRANCH   8  11
ATOM     11  S   UNL     1      -0.288  12.395   0.522  0.00  0.00    +0.061 S 
ATOM     12  O   UNL     1      -0.994  12.783   1.693  0.00  0.00    -0.153 OA
ATOM     13  O   UNL     1       1.092  12.678   0.337  0.00  0.00    -0.153 OA
BRANCH  11  14
ATOM     14  N   UNL     1      -1.087  13.075  -0.759  0.00  0.00    -0.177 NA
ATOM     15  C   UNL     1      -0.357  13.311  -1.984  0.00  0.00    +0.109 C 
ATOM     16  C   UNL     1       0.292  14.711  -1.948  0.00  0.00    +0.017 C 
ATOM     17  C   UNL     1      -0.737  15.754  -2.072  0.00  0.00    +0.001 C 
ATOM     18  C   UNL     1      -1.751  15.776  -0.933  0.00  0.00    +0.001 C 
ATOM     19  C   UNL     1      -2.852  14.786  -1.224  0.00  0.00    +0.017 C 
ATOM     20  C   UNL     1      -2.513  13.420  -0.601  0.00  0.00    +0.109 C 
ENDBRANCH  11  14
ENDBRANCH   8  11
ENDBRANCH   3   5
BRANCH   1  21
ATOM     21  C   UNL     1       0.044   4.227   0.018  0.00  0.00    +0.173 C 
BRANCH  21  22
ATOM     22  S   UNL     1       1.679   3.451   0.003  0.00  0.00    -0.076 S 
BRANCH  22  36
ATOM     23  C   UNL     1       0.905  -2.940  -0.058  0.00  0.00    +0.047 C 
ATOM     24  C   UNL     1       1.809  -1.734  -0.052  0.00  0.00    -0.005 A 
ATOM     25  C   UNL     1       3.151  -1.901  -0.061  0.00  0.00    +0.017 A 
ATOM     26  C   UNL     1       4.019  -0.719  -0.055  0.00  0.00    +0.003 A 
ATOM     27  C   UNL     1       5.411  -0.851  -0.067  0.00  0.00    +0.059 A 
ATOM     28  C   UNL     1       6.206   0.277  -0.061  0.00  0.00    +0.167 A 
ATOM     29  C   UNL     1       5.624   1.548  -0.042  0.00  0.00    +0.168 A 
ATOM     30  C   UNL     1       4.248   1.686  -0.030  0.00  0.00    +0.076 A 
ATOM     31  C   UNL     1       3.435   0.560  -0.037  0.00  0.00    +0.061 A 
ATOM     32  N   UNL     1       2.055   0.681  -0.029  0.00  0.00    -0.270 N 
ATOM     33  C   UNL     1       1.250  -0.435  -0.037  0.00  0.00    +0.165 A 
ATOM     34  N   UNL     1       0.001  -0.004  -0.027  0.00  0.00    -0.128 NA
ATOM     35  N   UNL     1      -0.016   1.282  -0.013  0.00  0.00    -0.122 NA
ATOM     36  C   UNL     1       1.211   1.753  -0.013  0.00  0.00    +0.197 A 
ATOM     37  O   UNL     1       6.621   2.481  -0.038  0.00  0.00    -0.453 OA
ATOM     38  C   UNL     1       7.803   1.783  -0.471  0.00  0.00    +0.466 C 
ATOM     39  O   UNL     1       7.564   0.421  -0.071  0.00  0.00    -0.453 OA
ENDBRANCH  22  36
ENDBRANCH  21  22
ENDBRANCH   1  21
TORSDOF 6
