REMARK  Name = ZINC38597751
REMARK  15 active torsions:
REMARK  status: ('A' for Active; 'I' for Inactive)
REMARK    1  A    between atoms: C_1  and  C_2
REMARK    2  A    between atoms: C_2  and  O_3
REMARK    3  A    between atoms: O_3  and  C_4
REMARK    4  A    between atoms: C_6  and  C_16
REMARK    5  A    between atoms: C_8  and  O_13
REMARK    6  A    between atoms: C_9  and  O_10
REMARK    7  A    between atoms: O_10  and  C_11
REMARK    8  A    between atoms: C_11  and  C_12
REMARK    9  A    between atoms: O_13  and  C_14
REMARK   10  A    between atoms: C_14  and  C_15
REMARK   11  A    between atoms: N_18  and  C_19
REMARK   12  A    between atoms: C_19  and  C_20
REMARK   13  A    between atoms: C_20  and  C_22
REMARK   14  A    between atoms: C_20  and  N_27
REMARK   15  A    between atoms: N_30  and  C_33
REMARK                            x       y       z     vdW  Elec       q    Type
REMARK                         _______ _______ _______ _____ _____    ______ ____
ROOT
ATOM      1  C   UNL     1       1.770  -7.081   0.265  0.00  0.00    +0.097 C 
ENDROOT
BRANCH   1   4
ATOM      2  C   UNL     1       0.777  -4.972   0.974  0.00  0.00    +0.244 C 
ATOM      3  O   UNL     1       1.891  -4.574   1.252  0.00  0.00    -0.270 OA
ATOM      4  N   UNL     1       0.609  -6.212   0.474  0.00  0.00    -0.312 N 
ATOM      5  H   UNL     1      -0.280  -6.530   0.252  0.00  0.00    +0.149 HD
BRANCH   2   8
ATOM      6  C   UNL     1      -1.318  -1.993   1.898  0.00  0.00    +0.166 A 
ATOM      7  C   UNL     1      -0.221  -2.811   1.703  0.00  0.00    +0.062 A 
ATOM      8  C   UNL     1      -0.393  -4.097   1.184  0.00  0.00    +0.044 A 
ATOM      9  C   UNL     1      -1.675  -4.553   0.865  0.00  0.00    +0.062 A 
ATOM     10  C   UNL     1      -2.768  -3.731   1.062  0.00  0.00    +0.166 A 
ATOM     11  C   UNL     1      -2.595  -2.452   1.584  0.00  0.00    +0.204 A 
BRANCH   6  12
ATOM     12  O   UNL     1      -1.151  -0.742   2.404  0.00  0.00    -0.488 OA
BRANCH  12  14
ATOM     13  C   UNL     1       0.174   1.090   3.258  0.00  0.00    +0.048 C 
ATOM     14  C   UNL     1       0.186  -0.336   2.704  0.00  0.00    +0.226 C 
ENDBRANCH  12  14
ENDBRANCH   6  12
BRANCH  11  15
ATOM     15  O   UNL     1      -3.672  -1.648   1.782  0.00  0.00    -0.485 OA
BRANCH  15  16
ATOM     16  C   UNL     1      -4.061  -0.805   0.695  0.00  0.00    +0.226 C 
ATOM     17  C   UNL     1      -5.283   0.020   1.102  0.00  0.00    +0.048 C 
ENDBRANCH  15  16
ENDBRANCH  11  15
BRANCH  10  18
ATOM     18  O   UNL     1      -4.016  -4.174   0.750  0.00  0.00    -0.488 OA
BRANCH  18  19
ATOM     19  C   UNL     1      -4.122  -5.498   0.224  0.00  0.00    +0.226 C 
ATOM     20  C   UNL     1      -5.590  -5.817  -0.064  0.00  0.00    +0.048 C 
ENDBRANCH  18  19
ENDBRANCH  10  18
ENDBRANCH   2   8
ENDBRANCH   1   4
BRANCH   1  21
ATOM     21  C   UNL     1       1.298  -8.466  -0.180  0.00  0.00    +0.017 C 
BRANCH  21  22
ATOM     22  N   UNL     1       0.373  -9.014   0.822  0.00  0.00    +0.389 N 
ATOM     23  C   UNL     1       1.030  -9.027   2.135  0.00  0.00    -0.059 C 
ATOM     24  C   UNL     1       0.031  -9.490   3.201  0.00  0.00    +0.086 C 
ATOM     25  N   UNL     1      -0.525 -10.787   2.786  0.00  0.00    -0.333 N 
ATOM     26  C   UNL     1      -1.059 -10.908   1.421  0.00  0.00    +0.086 C 
ATOM     27  C   UNL     1      -0.008 -10.379   0.440  0.00  0.00    -0.059 C 
ATOM     28  H   UNL     1      -0.452  -8.435   0.868  0.00  0.00    -0.081 HD
BRANCH  25  29
ATOM     29  C   UNL     1      -0.546 -11.874   3.666  0.00  0.00    +0.030 A 
ATOM     30  C   UNL     1      -0.151 -11.708   4.986  0.00  0.00    +0.026 A 
ATOM     31  C   UNL     1      -0.173 -12.784   5.853  0.00  0.00    +0.040 A 
ATOM     32  C   UNL     1      -0.589 -14.026   5.406  0.00  0.00    +0.124 A 
ATOM     33  C   UNL     1      -0.984 -14.194   4.090  0.00  0.00    +0.040 A 
ATOM     34  C   UNL     1      -0.968 -13.121   3.221  0.00  0.00    +0.026 A 
ATOM     35  F   UNL     1      -0.609 -15.076   6.255  0.00  0.00    -0.205 F 
ENDBRANCH  25  29
ENDBRANCH  21  22
BRANCH  21  36
ATOM     36  C   UNL     1       2.486  -9.382  -0.320  0.00  0.00    +0.093 A 
ATOM     37  C   UNL     1       2.990  -9.845  -1.478  0.00  0.00    +0.043 A 
ATOM     38  C   UNL     1       4.094 -10.664  -1.145  0.00  0.00    +0.041 A 
ATOM     39  C   UNL     1       4.199 -10.652   0.196  0.00  0.00    +0.195 A 
ATOM     40  O   UNL     1       3.226  -9.869   0.690  0.00  0.00    -0.469 OA
ENDBRANCH  21  36
ENDBRANCH   1  21
TORSDOF 12
