REMARK  Name = ZINC49339791
REMARK  6 active torsions:
REMARK  status: ('A' for Active; 'I' for Inactive)
REMARK    1  A    between atoms: C_5  and  C_6
REMARK    2  A    between atoms: C_6  and  N_7
REMARK    3  A    between atoms: N_10  and  C_11
REMARK    4  A    between atoms: C_11  and  C_12
REMARK    5  A    between atoms: N_14  and  C_15
REMARK    6  A    between atoms: C_15  and  C_16
REMARK                            x       y       z     vdW  Elec       q    Type
REMARK                         _______ _______ _______ _____ _____    ______ ____
ROOT
ATOM      1  N   UNL     1      -1.545  -1.274  -1.370  0.00  0.00    -0.295 N 
ATOM      2  C   UNL     1      -2.565  -2.121  -1.611  0.00  0.00    +0.300 C 
ATOM      3  O   UNL     1      -3.163  -2.632  -0.683  0.00  0.00    -0.253 OA
ATOM      4  N   UNL     1      -2.923  -2.402  -2.880  0.00  0.00    -0.291 N 
ATOM      5  H   UNL     1      -1.068  -0.867  -2.110  0.00  0.00    +0.151 HD
ATOM      6  H   UNL     1      -2.447  -1.994  -3.619  0.00  0.00    +0.151 HD
ENDROOT
BRANCH   1   7
ATOM      7  C   UNL     1      -1.156  -0.969   0.009  0.00  0.00    +0.148 C 
BRANCH   7  12
ATOM      8  C   UNL     1      -0.016   1.351   0.009  0.00  0.00    +0.014 A 
ATOM      9  C   UNL     1       1.183   2.038   0.002  0.00  0.00    +0.023 A 
ATOM     10  C   UNL     1       2.343   1.335  -0.013  0.00  0.00    +0.055 A 
ATOM     11  S   UNL     1       1.753  -0.350  -0.017  0.00  0.00    -0.085 S 
ATOM     12  C   UNL     1       0.002  -0.004   0.002  0.00  0.00    +0.008 A 
ATOM     13 BR   UNL     1       4.123   1.974  -0.027  0.00  0.00    -0.043 Br
ENDBRANCH   7  12
ENDBRANCH   1   7
BRANCH   4  14
ATOM     14  C   UNL     1      -4.033  -3.322  -3.141  0.00  0.00    +0.201 C 
BRANCH  14  15
ATOM     15  C   UNL     1      -4.228  -3.464  -4.628  0.00  0.00    +0.231 C 
ATOM     16  O   UNL     1      -3.511  -2.856  -5.395  0.00  0.00    -0.274 OA
ATOM     17  N   UNL     1      -5.199  -4.267  -5.107  0.00  0.00    -0.305 N 
ATOM     18  H   UNL     1      -5.772  -4.753  -4.494  0.00  0.00    +0.149 HD
BRANCH  17  19
ATOM     19  C   UNL     1      -5.389  -4.405  -6.553  0.00  0.00    +0.217 C 
BRANCH  19  20
ATOM     20  C   UNL     1      -6.547  -5.366  -6.826  0.00  0.00    +0.405 C 
ATOM     21  F   UNL     1      -7.717  -4.862  -6.248  0.00  0.00    -0.169 F 
ATOM     22  F   UNL     1      -6.728  -5.498  -8.207  0.00  0.00    -0.169 F 
ATOM     23  F   UNL     1      -6.255  -6.617  -6.273  0.00  0.00    -0.169 F 
ENDBRANCH  19  20
ENDBRANCH  17  19
ENDBRANCH  14  15
ENDBRANCH   4  14
TORSDOF 6
