REMARK  Name = ZINC33458954
REMARK  15 active torsions:
REMARK  status: ('A' for Active; 'I' for Inactive)
REMARK    1  A    between atoms: C_1  and  C_2
REMARK    2  A    between atoms: C_2  and  C_3
REMARK    3  A    between atoms: C_3  and  N_4
REMARK    4  A    between atoms: C_5  and  C_37
REMARK    5  A    between atoms: C_6  and  C_30
REMARK    6  A    between atoms: C_7  and  C_12
REMARK    7  A    between atoms: C_15  and  N_18
REMARK    8  A    between atoms: N_21  and  C_22
REMARK    9  A    between atoms: C_27  and  O_28
REMARK   10  A    between atoms: O_28  and  C_29
REMARK   11  A    between atoms: C_30  and  O_32
REMARK   12  A    between atoms: O_32  and  C_33
REMARK   13  A    between atoms: C_33  and  C_34
REMARK   14  A    between atoms: C_34  and  O_35
REMARK   15  A    between atoms: O_35  and  C_36
REMARK                            x       y       z     vdW  Elec       q    Type
REMARK                         _______ _______ _______ _____ _____    ______ ____
ROOT
ATOM      1  C   UNL     1      -4.371  -0.757   1.357  0.00  0.00    -0.022 A 
ATOM      2  C   UNL     1      -4.111   0.598   1.263  0.00  0.00    +0.007 A 
ATOM      3  C   UNL     1      -2.812   1.060   1.344  0.00  0.00    +0.024 A 
ATOM      4  C   UNL     1      -1.767   0.163   1.522  0.00  0.00    +0.035 A 
ATOM      5  C   UNL     1      -2.031  -1.197   1.612  0.00  0.00    +0.024 A 
ATOM      6  C   UNL     1      -3.333  -1.653   1.534  0.00  0.00    +0.007 A 
ENDROOT
BRANCH   1  10
ATOM      7  N   UNL     1      -6.575  -3.804   0.524  0.00  0.00    -0.259 N 
ATOM      8  C   UNL     1      -6.452  -2.868  -0.464  0.00  0.00    +0.024 C 
ATOM      9  C   UNL     1      -6.072  -1.603  -0.181  0.00  0.00    +0.078 C 
ATOM     10  C   UNL     1      -5.789  -1.258   1.267  0.00  0.00    +0.143 C 
ATOM     11  N   UNL     1      -5.953  -2.339   2.254  0.00  0.00    -0.288 N 
ATOM     12  C   UNL     1      -6.338  -3.554   1.817  0.00  0.00    +0.307 C 
ATOM     13  O   UNL     1      -6.476  -4.452   2.625  0.00  0.00    -0.252 OA
ATOM     14  C   UNL     1      -6.743  -3.254  -1.891  0.00  0.00    +0.061 C 
ATOM     15  H   UNL     1      -5.761  -2.143   3.320  0.00  0.00    +0.151 HD
BRANCH   9  16
ATOM     16  C   UNL     1      -5.943  -0.633  -1.203  0.00  0.00    +0.339 C 
ATOM     17  O   UNL     1      -6.175  -0.933  -2.359  0.00  0.00    -0.245 OA
BRANCH  16  18
ATOM     18  O   UNL     1      -5.563   0.624  -0.895  0.00  0.00    -0.459 OA
BRANCH  18  19
ATOM     19  C   UNL     1      -5.454   1.552  -1.976  0.00  0.00    +0.260 C 
BRANCH  19  20
ATOM     20  C   UNL     1      -5.015   2.915  -1.437  0.00  0.00    +0.200 C 
BRANCH  20  21
ATOM     21  O   UNL     1      -3.698   2.811  -0.893  0.00  0.00    -0.380 OA
ATOM     22  C   UNL     1      -3.190   4.035  -0.359  0.00  0.00    +0.194 C 
ENDBRANCH  20  21
ENDBRANCH  19  20
ENDBRANCH  18  19
ENDBRANCH  16  18
ENDBRANCH   9  16
BRANCH   7  23
ATOM     23  C   UNL     1      -6.991  -5.157   0.146  0.00  0.00    +0.114 C 
BRANCH  23  25
ATOM     24  C   UNL     1      -6.206  -7.366  -0.718  0.00  0.00    +0.005 C 
ATOM     25  C   UNL     1      -5.772  -5.953  -0.324  0.00  0.00    +0.016 C 
ENDBRANCH  23  25
ENDBRANCH   7  23
ENDBRANCH   1  10
BRANCH   4  26
ATOM     26  N   UNL     1      -0.450   0.628   1.605  0.00  0.00    -0.269 N 
ATOM     27  C   UNL     1       0.430   0.019   2.424  0.00  0.00    +0.308 C 
ATOM     28  O   UNL     1       0.102  -0.981   3.033  0.00  0.00    -0.252 OA
ATOM     29  N   UNL     1       1.676   0.514   2.563  0.00  0.00    -0.266 N 
ATOM     30  H   UNL     1      -0.132   1.492   1.001  0.00  0.00    +0.156 HD
ATOM     31  H   UNL     1       2.003   1.361   1.943  0.00  0.00    +0.156 HD
BRANCH  29  32
ATOM     32  C   UNL     1       2.553  -0.050   3.499  0.00  0.00    +0.077 A 
ATOM     33  C   UNL     1       2.054  -0.772   4.574  0.00  0.00    +0.027 A 
ATOM     34  C   UNL     1       2.922  -1.330   5.493  0.00  0.00    +0.002 A 
ATOM     35  C   UNL     1       4.287  -1.163   5.351  0.00  0.00    +0.004 A 
ATOM     36  C   UNL     1       4.792  -0.441   4.285  0.00  0.00    +0.047 A 
ATOM     37  C   UNL     1       3.929   0.118   3.357  0.00  0.00    +0.141 A 
BRANCH  37  38
ATOM     38  O   UNL     1       4.423   0.829   2.308  0.00  0.00    -0.493 OA
ATOM     39  C   UNL     1       5.844   0.961   2.226  0.00  0.00    +0.277 C 
ENDBRANCH  37  38
ENDBRANCH  29  32
ENDBRANCH   4  26
TORSDOF 11
