REMARK  Name = ZINC02107471
REMARK  10 active torsions:
REMARK  status: ('A' for Active; 'I' for Inactive)
REMARK    1  A    between atoms: C_1  and  O_2
REMARK    2  A    between atoms: O_2  and  C_3
REMARK    3  A    between atoms: C_5  and  C_13
REMARK    4  A    between atoms: C_7  and  O_11
REMARK    5  A    between atoms: C_8  and  O_9
REMARK    6  A    between atoms: O_9  and  C_10
REMARK    7  A    between atoms: O_11  and  C_12
REMARK    8  A    between atoms: N_32  and  C_35
REMARK    9  A    between atoms: C_35  and  C_36
REMARK   10  A    between atoms: C_36  and  C_37
REMARK                            x       y       z     vdW  Elec       q    Type
REMARK                         _______ _______ _______ _____ _____    ______ ____
ROOT
ATOM      1  C   UNL     1       2.413  -0.183   0.723  0.00  0.00    +0.154 C 
ATOM      2  C   UNL     1       1.045  -0.643   0.273  0.00  0.00    +0.046 A 
ATOM      3  C   UNL     1       0.030   0.202  -0.010  0.00  0.00    -0.015 A 
ATOM      4  C   UNL     1      -1.100  -0.612  -0.409  0.00  0.00    +0.003 A 
ATOM      5  C   UNL     1      -2.402  -0.294  -0.810  0.00  0.00    +0.010 A 
ATOM      6  C   UNL     1      -3.228  -1.346  -1.121  0.00  0.00    +0.001 A 
ATOM      7  C   UNL     1      -2.805  -2.663  -1.045  0.00  0.00    +0.002 A 
ATOM      8  C   UNL     1      -1.523  -3.005  -0.652  0.00  0.00    +0.026 A 
ATOM      9  C   UNL     1      -0.661  -1.958  -0.331  0.00  0.00    +0.047 A 
ATOM     10  N   UNL     1       0.640  -1.938   0.084  0.00  0.00    -0.356 N 
ATOM     11  H   UNL     1       1.193  -2.722   0.225  0.00  0.00    +0.166 HD
ATOM     12  C   UNL     1       0.111   1.704   0.090  0.00  0.00    +0.069 C 
ATOM     13  C   UNL     1       1.588   2.120   0.125  0.00  0.00    +0.167 C 
ATOM     14  N   UNL     1       2.309   1.253   1.056  0.00  0.00    -0.276 N 
ATOM     15  C   UNL     1       2.869   1.699   2.183  0.00  0.00    +0.234 C 
ATOM     16  O   UNL     1       3.383   0.884   2.920  0.00  0.00    -0.274 OA
ATOM     17  C   UNL     1       2.904   3.133   2.599  0.00  0.00    +0.203 C 
ATOM     18  N   UNL     1       2.283   4.003   1.613  0.00  0.00    -0.291 N 
ATOM     19  C   UNL     1       1.695   3.562   0.503  0.00  0.00    +0.237 C 
ATOM     20  O   UNL     1       1.215   4.383  -0.250  0.00  0.00    -0.274 OA
ENDROOT
BRANCH   1  23
ATOM     21  C   UNL     1       4.857   0.536  -2.069  0.00  0.00    +0.165 A 
ATOM     22  C   UNL     1       3.939   0.714  -1.045  0.00  0.00    +0.055 A 
ATOM     23  C   UNL     1       3.411  -0.382  -0.389  0.00  0.00    -0.014 A 
ATOM     24  C   UNL     1       3.801  -1.659  -0.745  0.00  0.00    +0.055 A 
ATOM     25  C   UNL     1       4.716  -1.847  -1.770  0.00  0.00    +0.165 A 
ATOM     26  C   UNL     1       5.248  -0.747  -2.433  0.00  0.00    +0.204 A 
BRANCH  21  28
ATOM     27  C   UNL     1       4.928   2.903  -2.287  0.00  0.00    +0.277 C 
ATOM     28  O   UNL     1       5.375   1.615  -2.715  0.00  0.00    -0.491 OA
ENDBRANCH  21  28
BRANCH  26  29
ATOM     29  O   UNL     1       6.149  -0.927  -3.438  0.00  0.00    -0.488 OA
ATOM     30  C   UNL     1       7.530  -0.963  -3.071  0.00  0.00    +0.277 C 
ENDBRANCH  26  29
BRANCH  25  31
ATOM     31  O   UNL     1       5.094  -3.104  -2.124  0.00  0.00    -0.491 OA
ATOM     32  C   UNL     1       4.506  -4.186  -1.399  0.00  0.00    +0.277 C 
ENDBRANCH  25  31
ENDBRANCH   1  23
BRANCH  18  33
ATOM     33  C   UNL     1       2.306   5.447   1.856  0.00  0.00    +0.112 C 
BRANCH  33  34
ATOM     34  C   UNL     1       3.569   6.049   1.236  0.00  0.00    +0.049 C 
BRANCH  34  35
ATOM     35  C   UNL     1       3.592   7.535   1.485  0.00  0.00    -0.072 C 
ATOM     36  C   UNL     1       4.250   7.967   2.513  0.00  0.00    -0.028 C 
ATOM     37  C   UNL     1       4.356   9.415   2.895  0.00  0.00    +0.027 C 
ATOM     38  C   UNL     1       3.964  10.302   1.711  0.00  0.00    +0.004 C 
ATOM     39  C   UNL     1       2.628   9.800   1.149  0.00  0.00    +0.005 C 
ATOM     40  C   UNL     1       2.857   8.421   0.523  0.00  0.00    +0.030 C 
ENDBRANCH  34  35
ENDBRANCH  33  34
ENDBRANCH  18  33
TORSDOF 7
