REMARK  Name = ZINC20837855
REMARK  7 active torsions:
REMARK  status: ('A' for Active; 'I' for Inactive)
REMARK    1  A    between atoms: N_6  and  N_7
REMARK    2  A    between atoms: C_10  and  S_13
REMARK    3  A    between atoms: S_13  and  C_14
REMARK    4  A    between atoms: C_14  and  C_15
REMARK    5  A    between atoms: C_21  and  S_23
REMARK    6  A    between atoms: S_23  and  C_24
REMARK    7  A    between atoms: C_24  and  C_25
REMARK                            x       y       z     vdW  Elec       q    Type
REMARK                         _______ _______ _______ _____ _____    ______ ____
ROOT
ATOM      1  S   UNL     1      -1.124  -5.284  -0.568  0.00  0.00    -0.075 S 
ENDROOT
BRANCH   1   5
ATOM      2  N   UNL     1      -1.299 -10.460  -0.017  0.00  0.00    -0.205 N 
ATOM      3  C   UNL     1      -0.803  -9.181  -0.231  0.00  0.00    +0.232 A 
ATOM      4  N   UNL     1      -1.533  -8.025  -0.222  0.00  0.00    -0.186 NA
ATOM      5  C   UNL     1      -0.681  -6.987  -0.472  0.00  0.00    +0.211 A 
ATOM      6  N   UNL     1       0.523  -7.480  -0.635  0.00  0.00    -0.144 NA
ATOM      7  N   UNL     1       0.446  -8.870  -0.477  0.00  0.00    -0.245 N 
ATOM      8  H   UNL     1      -2.370 -10.609   0.181  0.00  0.00    +0.177 HD
ATOM      9  H   UNL     1       1.210  -9.660  -0.525  0.00  0.00    +0.192 HD
BRANCH   2  15
ATOM     10  C   UNL     1      -2.753 -15.444   0.170  0.00  0.00    +0.000 C 
ATOM     11  C   UNL     1      -1.399 -15.964   0.378  0.00  0.00    +0.000 C 
ATOM     12  C   UNL     1      -0.489 -14.968   1.110  0.00  0.00    +0.006 C 
ATOM     13  C   UNL     1       0.037 -13.945   0.139  0.00  0.00    +0.052 C 
ATOM     14  C   UNL     1      -0.905 -12.749   0.039  0.00  0.00    +0.037 C 
ATOM     15  N   UNL     1      -0.434 -11.562  -0.055  0.00  0.00    -0.189 NA
ATOM     16  C   UNL     1      -2.412 -12.980   0.059  0.00  0.00    +0.052 C 
ATOM     17  C   UNL     1      -2.779 -14.207  -0.739  0.00  0.00    +0.006 C 
ENDBRANCH   2  15
ENDBRANCH   1   5
BRANCH   1  18
ATOM     18  C   UNL     1       0.443  -4.442  -0.921  0.00  0.00    +0.173 C 
BRANCH  18  19
ATOM     19  C   UNL     1       0.203  -2.958  -1.030  0.00  0.00    +0.229 C 
ATOM     20  O   UNL     1      -0.916  -2.512  -0.883  0.00  0.00    -0.275 OA
ATOM     21  N   UNL     1       1.231  -2.126  -1.290  0.00  0.00    -0.263 N 
ATOM     22  C   UNL     1       1.009  -0.755  -1.390  0.00  0.00    +0.189 A 
ATOM     23  N   UNL     1      -0.113  -0.064  -1.267  0.00  0.00    -0.125 NA
ATOM     24  N   UNL     1      -0.141   1.191  -1.388  0.00  0.00    -0.133 NA
ATOM     25  C   UNL     1       0.951   1.895  -1.646  0.00  0.00    +0.160 A 
ATOM     26  S   UNL     1       2.160   0.576  -1.721  0.00  0.00    -0.024 S 
ATOM     27  H   UNL     1       2.245  -2.530  -1.423  0.00  0.00    +0.157 HD
BRANCH  25  28
ATOM     28  S   UNL     1       1.156   3.633  -1.857  0.00  0.00    -0.088 S 
BRANCH  28  29
ATOM     29  C   UNL     1      -0.516   4.301  -1.637  0.00  0.00    +0.171 C 
BRANCH  29  30
ATOM     30  C   UNL     1      -0.483   5.800  -1.794  0.00  0.00    +0.221 C 
ATOM     31  O   UNL     1       0.566   6.361  -2.031  0.00  0.00    -0.275 OA
ATOM     32  N   UNL     1      -1.618   6.516  -1.672  0.00  0.00    -0.329 N 
ATOM     33  H   UNL     1      -1.593   7.609  -1.786  0.00  0.00    +0.145 HD
ATOM     34  H   UNL     1      -2.569   6.006  -1.457  0.00  0.00    +0.145 HD
ENDBRANCH  29  30
ENDBRANCH  28  29
ENDBRANCH  25  28
ENDBRANCH  18  19
ENDBRANCH   1  18
TORSDOF 7
