REMARK  Name = ZINC64927265
REMARK  10 active torsions:
REMARK  status: ('A' for Active; 'I' for Inactive)
REMARK    1  A    between atoms: C_1  and  C_2
REMARK    2  A    between atoms: C_2  and  N_3
REMARK    3  A    between atoms: C_7  and  S_8
REMARK    4  A    between atoms: S_8  and  C_9
REMARK    5  A    between atoms: C_9  and  C_10
REMARK    6  A    between atoms: C_13  and  C_15
REMARK    7  A    between atoms: C_15  and  C_16
REMARK    8  A    between atoms: C_16  and  C_17
REMARK    9  A    between atoms: C_17  and  C_18
REMARK   10  A    between atoms: C_17  and  C_19
REMARK                            x       y       z     vdW  Elec       q    Type
REMARK                         _______ _______ _______ _____ _____    ______ ____
ROOT
ATOM      1  N   UNL     1      -1.385  -0.479   0.016  0.00  0.00    -0.291 N 
ATOM      2  C   UNL     1      -2.084  -0.880   1.119  0.00  0.00    +0.220 A 
ATOM      3  N   UNL     1      -3.257  -1.308   0.722  0.00  0.00    -0.112 NA
ATOM      4  N   UNL     1      -3.316  -1.180  -0.672  0.00  0.00    -0.121 NA
ATOM      5  C   UNL     1      -2.178  -0.673  -1.080  0.00  0.00    +0.193 A 
ATOM      6  N   UNL     1      -1.630  -0.842   2.431  0.00  0.00    -0.295 N 
ATOM      7  C   UNL     1      -1.917   0.313   3.298  0.00  0.00    +0.136 C 
ATOM      8  C   UNL     1      -2.500  -0.206   4.617  0.00  0.00    +0.179 C 
ATOM      9  O   UNL     1      -1.631  -1.205   5.156  0.00  0.00    -0.377 OA
ATOM     10  C   UNL     1      -1.486  -2.362   4.330  0.00  0.00    +0.179 C 
ATOM     11  C   UNL     1      -0.855  -1.956   2.998  0.00  0.00    +0.136 C 
ENDROOT
BRANCH   1  13
ATOM     12  C   UNL     1      -0.090   1.594   0.092  0.00  0.00    +0.027 C 
ATOM     13  C   UNL     1      -0.026   0.068   0.009  0.00  0.00    +0.124 C 
ENDBRANCH   1  13
BRANCH   5  14
ATOM     14  S   UNL     1      -1.746  -0.308  -2.749  0.00  0.00    -0.080 S 
BRANCH  14  15
ATOM     15  C   UNL     1      -3.214  -0.790  -3.698  0.00  0.00    +0.133 C 
BRANCH  15  16
ATOM     16  C   UNL     1      -2.975  -0.527  -5.163  0.00  0.00    +0.059 A 
ATOM     17  C   UNL     1      -3.286   0.667  -5.729  0.00  0.00    +0.071 A 
ATOM     18  S   UNL     1      -2.787   0.370  -7.418  0.00  0.00    -0.080 S 
ATOM     19  C   UNL     1      -2.247  -1.212  -7.224  0.00  0.00    +0.079 A 
ATOM     20  N   UNL     1      -2.449  -1.443  -5.951  0.00  0.00    -0.248 NA
BRANCH  19  21
ATOM     21  C   UNL     1      -1.665  -2.136  -8.262  0.00  0.00    +0.063 C 
BRANCH  21  22
ATOM     22  C   UNL     1      -2.791  -2.938  -8.919  0.00  0.00    +0.010 C 
BRANCH  22  23
ATOM     23  C   UNL     1      -2.201  -3.877  -9.973  0.00  0.00    -0.017 C 
ATOM     24  C   UNL     1      -1.310  -4.916  -9.290  0.00  0.00    +0.007 C 
ATOM     25  C   UNL     1      -3.334  -4.587 -10.716  0.00  0.00    +0.007 C 
ENDBRANCH  22  23
ENDBRANCH  21  22
ENDBRANCH  19  21
ENDBRANCH  15  16
ENDBRANCH  14  15
ENDBRANCH   5  14
TORSDOF 7
