REMARK  Name = ZINC35056651
REMARK  9 active torsions:
REMARK  status: ('A' for Active; 'I' for Inactive)
REMARK    1  A    between atoms: C_1  and  C_2
REMARK    2  A    between atoms: N_4  and  C_5
REMARK    3  A    between atoms: C_7  and  O_44
REMARK    4  A    between atoms: C_15  and  C_18
REMARK    5  A    between atoms: C_25  and  O_27
REMARK    6  A    between atoms: O_27  and  C_28
REMARK    7  A    between atoms: C_31  and  C_34
REMARK    8  A    between atoms: C_35  and  C_36
REMARK    9  A    between atoms: C_36  and  C_38
REMARK                            x       y       z     vdW  Elec       q    Type
REMARK                         _______ _______ _______ _____ _____    ______ ____
ROOT
ATOM      1  C   UNL     1      -1.136  -2.159   0.001  0.00  0.00    +0.173 C 
ATOM      2  C   UNL     1      -2.445  -2.686  -0.595  0.00  0.00    +0.172 C 
ATOM      3  C   UNL     1      -2.451  -4.213  -0.527  0.00  0.00    +0.183 C 
ATOM      4  C   UNL     1      -2.242  -4.665   0.922  0.00  0.00    +0.179 C 
ATOM      5  C   UNL     1      -2.132  -6.195   0.946  0.00  0.00    +0.197 C 
ATOM      6  O   UNL     1      -1.095  -6.597   0.045  0.00  0.00    -0.345 OA
ATOM      7  C   UNL     1      -1.298  -6.164  -1.302  0.00  0.00    +0.282 C 
ATOM      8  O   UNL     1      -1.395  -4.737  -1.336  0.00  0.00    -0.339 OA
ATOM      9  O   UNL     1      -1.038  -4.089   1.433  0.00  0.00    -0.332 OA
ATOM     10  C   UNL     1      -0.994  -2.677   1.435  0.00  0.00    +0.331 C 
ENDROOT
BRANCH   7  11
ATOM     11  C   UNL     1      -0.137  -6.608  -2.153  0.00  0.00    +0.008 A 
ATOM     12  C   UNL     1       0.640  -5.670  -2.807  0.00  0.00    +0.008 A 
ATOM     13  C   UNL     1       1.705  -6.078  -3.588  0.00  0.00    +0.000 A 
ATOM     14  C   UNL     1       1.994  -7.423  -3.714  0.00  0.00    +0.000 A 
ATOM     15  C   UNL     1       1.218  -8.362  -3.059  0.00  0.00    +0.000 A 
ATOM     16  C   UNL     1       0.156  -7.954  -2.275  0.00  0.00    +0.008 A 
ENDBRANCH   7  11
BRANCH   1  20
ATOM     17  C   UNL     1      -0.018   1.503   0.010  0.00  0.00    +0.109 C 
ATOM     18  C   UNL     1       0.002  -0.004   0.002  0.00  0.00    +0.210 C 
ATOM     19  O   UNL     1       1.060  -0.596  -0.011  0.00  0.00    -0.276 OA
ATOM     20  N   UNL     1      -1.156  -0.694   0.009  0.00  0.00    -0.304 N 
ATOM     21  H   UNL     1      -2.002  -0.220   0.020  0.00  0.00    +0.149 HD
ENDBRANCH   1  20
BRANCH   2  22
ATOM     22  O   UNL     1      -2.551  -2.267  -1.957  0.00  0.00    -0.387 OA
ATOM     23  H   UNL     1      -2.551  -1.307  -2.075  0.00  0.00    +0.210 HD
ENDBRANCH   2  22
BRANCH  10  24
ATOM     24  O   UNL     1      -2.074  -2.182   2.230  0.00  0.00    -0.462 OA
BRANCH  24  25
ATOM     25  C   UNL     1      -1.990  -2.373   3.571  0.00  0.00    +0.124 A 
ATOM     26  C   UNL     1      -0.884  -3.021   4.111  0.00  0.00    +0.046 A 
ATOM     27  C   UNL     1      -0.793  -3.218   5.470  0.00  0.00    +0.011 A 
ATOM     28  C   UNL     1      -1.818  -2.764   6.310  0.00  0.00    -0.025 A 
ATOM     29  C   UNL     1      -2.929  -2.111   5.761  0.00  0.00    +0.011 A 
ATOM     30  C   UNL     1      -3.007  -1.916   4.401  0.00  0.00    +0.046 A 
BRANCH  28  31
ATOM     31  C   UNL     1      -1.727  -2.971   7.761  0.00  0.00    +0.012 C 
ATOM     32  C   UNL     1      -2.717  -2.532   8.570  0.00  0.00    +0.052 C 
BRANCH  32  33
ATOM     33  C   UNL     1      -2.630  -2.732   9.971  0.00  0.00    +0.186 C 
ATOM     34  O   UNL     1      -1.663  -3.300  10.445  0.00  0.00    -0.287 OA
BRANCH  33  35
ATOM     35  C   UNL     1      -3.713  -2.251  10.856  0.00  0.00    +0.022 A 
ATOM     36  C   UNL     1      -4.826  -1.605  10.315  0.00  0.00    +0.012 A 
ATOM     37  C   UNL     1      -5.833  -1.159  11.146  0.00  0.00    +0.001 A 
ATOM     38  C   UNL     1      -5.742  -1.352  12.513  0.00  0.00    +0.000 A 
ATOM     39  C   UNL     1      -4.641  -1.991  13.056  0.00  0.00    +0.001 A 
ATOM     40  C   UNL     1      -3.630  -2.447  12.236  0.00  0.00    +0.012 A 
ENDBRANCH  33  35
ENDBRANCH  32  33
ENDBRANCH  28  31
ENDBRANCH  24  25
ENDBRANCH  10  24
TORSDOF 8
