REMARK  Name = ZINC13418865
REMARK  6 active torsions:
REMARK  status: ('A' for Active; 'I' for Inactive)
REMARK    1  A    between atoms: C_4  and  C_7
REMARK    2  A    between atoms: C_7  and  C_9
REMARK    3  A    between atoms: C_7  and  O_21
REMARK    4  A    between atoms: C_9  and  C_11
REMARK    5  A    between atoms: O_21  and  C_22
REMARK    6  A    between atoms: C_26  and  C_28
REMARK                            x       y       z     vdW  Elec       q    Type
REMARK                         _______ _______ _______ _____ _____    ______ ____
ROOT
ATOM      1  C   UNL     1       3.932  -0.771  -0.010  0.00  0.00    +0.274 C 
ENDROOT
BRANCH   1   5
ATOM      2  C   UNL     1       0.644   1.949   0.190  0.00  0.00    +0.000 A 
ATOM      3  C   UNL     1       1.939   2.431   0.171  0.00  0.00    +0.000 A 
ATOM      4  C   UNL     1       3.003   1.551   0.106  0.00  0.00    +0.008 A 
ATOM      5  C   UNL     1       2.772   0.189   0.061  0.00  0.00    +0.000 A 
ATOM      6  C   UNL     1       1.476  -0.293   0.081  0.00  0.00    +0.008 A 
ATOM      7  C   UNL     1       0.412   0.587   0.144  0.00  0.00    +0.000 A 
ENDBRANCH   1   5
BRANCH   1   8
ATOM      8  C   UNL     1       4.203  -1.334   1.361  0.00  0.00    +0.210 C 
ATOM      9  O   UNL     1       3.874  -2.472   1.626  0.00  0.00    -0.288 OA
BRANCH   8  10
ATOM     10  C   UNL     1       4.842  -0.534   2.341  0.00  0.00    +0.047 A 
ATOM     11  C   UNL     1       5.268   0.769   2.198  0.00  0.00    +0.095 A 
ATOM     12  N   UNL     1       5.829   1.191   3.347  0.00  0.00    -0.360 N 
ATOM     13  H   UNL     1       6.202   2.075   3.487  0.00  0.00    +0.165 HD
ATOM     14  C   UNL     1       5.800   0.192   4.300  0.00  0.00    +0.047 A 
ATOM     15  C   UNL     1       5.180  -0.928   3.723  0.00  0.00    +0.010 A 
ATOM     16  C   UNL     1       5.009  -2.092   4.466  0.00  0.00    +0.011 A 
ATOM     17  C   UNL     1       5.449  -2.139   5.772  0.00  0.00    +0.001 A 
ATOM     18  C   UNL     1       6.059  -1.033   6.345  0.00  0.00    +0.002 A 
ATOM     19  C   UNL     1       6.241   0.123   5.617  0.00  0.00    +0.026 A 
ENDBRANCH   8  10
ENDBRANCH   1   8
BRANCH   1  20
ATOM     20  O   UNL     1       3.614  -1.836  -0.908  0.00  0.00    -0.476 OA
BRANCH  20  21
ATOM     21  C   UNL     1       3.841  -1.617  -2.230  0.00  0.00    +0.123 A 
ATOM     22  C   UNL     1       4.257  -0.365  -2.665  0.00  0.00    +0.046 A 
ATOM     23  C   UNL     1       4.489  -0.136  -4.008  0.00  0.00    +0.004 A 
ATOM     24  C   UNL     1       4.308  -1.149  -4.928  0.00  0.00    +0.015 A 
ATOM     25  C   UNL     1       3.890  -2.412  -4.500  0.00  0.00    +0.067 A 
ATOM     26  C   UNL     1       3.662  -2.643  -3.142  0.00  0.00    +0.060 A 
BRANCH  25  27
ATOM     27  C   UNL     1       3.695  -3.498  -5.480  0.00  0.00    +0.387 C 
ATOM     28  O   UNL     1       3.900  -3.294  -6.668  0.00  0.00    -0.241 OA
ATOM     29  O   UNL     1       3.329  -4.602  -5.103  0.00  0.00    -0.241 OA
ENDBRANCH  25  27
ENDBRANCH  20  21
ENDBRANCH   1  20
TORSDOF 6
