REMARK  Name = ZINC66503432
REMARK  11 active torsions:
REMARK  status: ('A' for Active; 'I' for Inactive)
REMARK    1  A    between atoms: C_1  and  C_2
REMARK    2  A    between atoms: C_2  and  C_3
REMARK    3  A    between atoms: C_3  and  C_4
REMARK    4  A    between atoms: C_4  and  C_5
REMARK    5  A    between atoms: C_7  and  C_10
REMARK    6  A    between atoms: C_10  and  S_11
REMARK    7  A    between atoms: S_11  and  C_14
REMARK    8  A    between atoms: C_14  and  C_16
REMARK    9  A    between atoms: C_14  and  C_17
REMARK   10  A    between atoms: C_20  and  O_23
REMARK   11  A    between atoms: O_23  and  C_24
REMARK                            x       y       z     vdW  Elec       q    Type
REMARK                         _______ _______ _______ _____ _____    ______ ____
ROOT
ATOM      1  S   UNL     1       4.976  -5.230  -3.610  0.00  0.00    -0.019 S 
ATOM      2  O   UNL     1       4.728  -5.421  -2.224  0.00  0.00    -0.173 OA
ATOM      3  O   UNL     1       4.295  -6.046  -4.553  0.00  0.00    -0.173 OA
ENDROOT
BRANCH   1   4
ATOM      4  C   UNL     1       6.760  -5.385  -3.900  0.00  0.00    +0.158 C 
ATOM      5  C   UNL     1       7.087  -4.933  -5.324  0.00  0.00    +0.037 C 
BRANCH   4   6
ATOM      6  C   UNL     1       7.175  -6.823  -3.721  0.00  0.00    -0.024 A 
ATOM      7  C   UNL     1       6.624  -7.805  -4.524  0.00  0.00    +0.009 A 
ATOM      8  C   UNL     1       7.002  -9.124  -4.362  0.00  0.00    +0.046 A 
ATOM      9  C   UNL     1       7.936  -9.463  -3.394  0.00  0.00    +0.127 A 
ATOM     10  C   UNL     1       8.488  -8.475  -2.590  0.00  0.00    +0.046 A 
ATOM     11  C   UNL     1       8.110  -7.157  -2.760  0.00  0.00    +0.009 A 
BRANCH   9  12
ATOM     12  O   UNL     1       8.309 -10.759  -3.232  0.00  0.00    -0.434 OA
BRANCH  12  13
ATOM     13  C   UNL     1       9.275 -11.035  -2.216  0.00  0.00    +0.541 C 
ATOM     14  F   UNL     1      10.455 -10.335  -2.493  0.00  0.00    -0.166 F 
ATOM     15  F   UNL     1       8.774 -10.630  -0.974  0.00  0.00    -0.166 F 
ENDBRANCH  12  13
ENDBRANCH   9  12
ENDBRANCH   4   6
ENDBRANCH   1   4
BRANCH   1  16
ATOM     16  C   UNL     1       4.654  -3.492  -4.016  0.00  0.00    +0.222 C 
BRANCH  16  19
ATOM     17  C   UNL     1       1.444  -2.513  -2.505  0.00  0.00    +0.079 A 
ATOM     18  N   UNL     1       2.718  -2.771  -2.668  0.00  0.00    -0.247 NA
ATOM     19  C   UNL     1       3.189  -3.194  -3.824  0.00  0.00    +0.070 A 
ATOM     20  C   UNL     1       2.295  -3.348  -4.834  0.00  0.00    +0.071 A 
ATOM     21  S   UNL     1       0.785  -2.863  -4.014  0.00  0.00    -0.080 S 
BRANCH  17  22
ATOM     22  C   UNL     1       0.739  -2.027  -1.265  0.00  0.00    +0.063 C 
BRANCH  22  23
ATOM     23  C   UNL     1       0.718  -0.497  -1.257  0.00  0.00    +0.006 C 
BRANCH  23  25
ATOM     24  C   UNL     1      -0.019   1.526   0.010  0.00  0.00    +0.004 C 
ATOM     25  C   UNL     1       0.002  -0.004   0.002  0.00  0.00    -0.003 C 
ENDBRANCH  23  25
ENDBRANCH  22  23
ENDBRANCH  17  22
ENDBRANCH  16  19
ENDBRANCH   1  16
TORSDOF 9
