REMARK  Name = ZINC47043365
REMARK  8 active torsions:
REMARK  status: ('A' for Active; 'I' for Inactive)
REMARK    1  A    between atoms: C_1  and  C_2
REMARK    2  A    between atoms: C_2  and  C_3
REMARK    3  A    between atoms: C_2  and  C_4
REMARK    4  A    between atoms: C_4  and  C_6
REMARK    5  A    between atoms: C_4  and  C_21
REMARK    6  A    between atoms: C_6  and  N_7
REMARK    7  A    between atoms: N_10  and  N_11
REMARK    8  A    between atoms: N_14  and  C_15
REMARK                            x       y       z     vdW  Elec       q    Type
REMARK                         _______ _______ _______ _____ _____    ______ ____
ROOT
ATOM      1  N   UNL     1      -0.654  -2.776   1.212  0.00  0.00    -0.298 N 
ATOM      2  C   UNL     1      -0.504  -4.106   1.373  0.00  0.00    +0.316 C 
ATOM      3  O   UNL     1      -0.843  -4.868   0.488  0.00  0.00    -0.251 OA
ATOM      4  N   UNL     1       0.021  -4.591   2.516  0.00  0.00    -0.217 N 
ATOM      5  H   UNL     1      -0.384  -2.169   1.919  0.00  0.00    +0.150 HD
ATOM      6  H   UNL     1       0.130  -5.548   2.632  0.00  0.00    +0.174 HD
ENDROOT
BRANCH   4   7
ATOM      7  N   UNL     1       0.412  -3.714   3.536  0.00  0.00    -0.217 N 
ATOM      8  C   UNL     1       0.937  -4.199   4.678  0.00  0.00    +0.320 C 
ATOM      9  O   UNL     1       1.276  -3.437   5.563  0.00  0.00    -0.251 OA
ATOM     10  N   UNL     1       1.087  -5.529   4.839  0.00  0.00    -0.268 N 
ATOM     11  H   UNL     1       0.303  -2.757   3.420  0.00  0.00    +0.174 HD
ATOM     12  H   UNL     1       0.896  -6.131   4.103  0.00  0.00    +0.156 HD
BRANCH  10  13
ATOM     13  C   UNL     1       1.520  -6.040   6.068  0.00  0.00    +0.035 A 
ATOM     14  C   UNL     1       2.338  -7.162   6.105  0.00  0.00    +0.023 A 
ATOM     15  C   UNL     1       2.763  -7.664   7.320  0.00  0.00    +0.002 A 
ATOM     16  C   UNL     1       2.374  -7.052   8.497  0.00  0.00    +0.000 A 
ATOM     17  C   UNL     1       1.560  -5.935   8.463  0.00  0.00    +0.002 A 
ATOM     18  C   UNL     1       1.137  -5.424   7.252  0.00  0.00    +0.023 A 
ENDBRANCH  10  13
ENDBRANCH   4   7
BRANCH   1  19
ATOM     19  C   UNL     1      -1.226  -2.249  -0.029  0.00  0.00    +0.114 C 
BRANCH  19  20
ATOM     20  C   UNL     1      -1.401  -0.734   0.094  0.00  0.00    +0.039 C 
BRANCH  20  21
ATOM     21  C   UNL     1      -2.346  -0.428   1.227  0.00  0.00    -0.043 A 
ATOM     22  C   UNL     1      -3.638  -0.918   1.201  0.00  0.00    +0.004 A 
ATOM     23  C   UNL     1      -4.505  -0.638   2.241  0.00  0.00    +0.000 A 
ATOM     24  C   UNL     1      -4.079   0.132   3.307  0.00  0.00    +0.000 A 
ATOM     25  C   UNL     1      -2.786   0.621   3.334  0.00  0.00    +0.000 A 
ATOM     26  C   UNL     1      -1.919   0.337   2.296  0.00  0.00    +0.004 A 
ENDBRANCH  20  21
BRANCH  20  28
ATOM     27  C   UNL     1      -2.044   1.347  -1.131  0.00  0.00    +0.008 C 
ATOM     28  C   UNL     1      -1.975  -0.180  -1.212  0.00  0.00    -0.008 C 
ATOM     29  C   UNL     1      -1.075  -0.589  -2.379  0.00  0.00    +0.008 C 
ENDBRANCH  20  28
ENDBRANCH  19  20
ENDBRANCH   1  19
TORSDOF 6
