REMARK  Name = ZINC36064978
REMARK  12 active torsions:
REMARK  status: ('A' for Active; 'I' for Inactive)
REMARK    1  A    between atoms: C_1  and  C_2
REMARK    2  A    between atoms: C_3  and  C_32
REMARK    3  A    between atoms: C_4  and  C_23
REMARK    4  A    between atoms: C_7  and  C_12
REMARK    5  A    between atoms: C_13  and  N_15
REMARK    6  A    between atoms: N_15  and  C_16
REMARK    7  A    between atoms: C_16  and  C_17
REMARK    8  A    between atoms: C_26  and  N_29
REMARK    9  A    between atoms: C_32  and  O_34
REMARK   10  A    between atoms: O_34  and  C_35
REMARK   11  A    between atoms: C_35  and  C_36
REMARK   12  A    between atoms: C_35  and  C_37
REMARK                            x       y       z     vdW  Elec       q    Type
REMARK                         _______ _______ _______ _____ _____    ______ ____
ROOT
ATOM      1  C   UNL     1       0.341   1.175   0.869  0.00  0.00    +0.066 C 
ATOM      2  C   UNL     1       0.264  -0.283   0.494  0.00  0.00    +0.053 C 
ATOM      3  C   UNL     1      -0.964  -0.914   0.440  0.00  0.00    +0.082 C 
ATOM      4  C   UNL     1      -0.988  -2.377   0.058  0.00  0.00    +0.150 C 
ATOM      5  N   UNL     1       0.320  -3.024  -0.230  0.00  0.00    -0.267 N 
ATOM      6  C   UNL     1       0.536  -4.338  -0.594  0.00  0.00    +0.048 C 
ATOM      7  C   UNL     1       1.811  -4.727  -0.812  0.00  0.00    +0.072 C 
ATOM      8  S   UNL     1       2.714  -3.223  -0.499  0.00  0.00    -0.060 S 
ATOM      9  C   UNL     1       1.422  -2.222  -0.119  0.00  0.00    +0.166 C 
ATOM     10  N   UNL     1       1.373  -0.948   0.214  0.00  0.00    -0.230 NA
ENDROOT
BRANCH   4  11
ATOM     11  C   UNL     1      -1.643  -3.139   1.181  0.00  0.00    -0.022 A 
ATOM     12  C   UNL     1      -0.959  -3.354   2.363  0.00  0.00    +0.008 A 
ATOM     13  C   UNL     1      -1.560  -4.052   3.393  0.00  0.00    +0.033 A 
ATOM     14  C   UNL     1      -2.846  -4.535   3.242  0.00  0.00    +0.126 A 
ATOM     15  C   UNL     1      -3.532  -4.319   2.061  0.00  0.00    +0.033 A 
ATOM     16  C   UNL     1      -2.932  -3.617   1.032  0.00  0.00    +0.008 A 
BRANCH  14  17
ATOM     17  N   UNL     1      -3.490  -5.284   4.345  0.00  0.00    +0.056 N 
ATOM     18  O   UNL     1      -2.890  -5.473   5.378  0.00  0.00    -0.126 OA
ATOM     19  O   UNL     1      -4.615  -5.706   4.213  0.00  0.00    -0.126 OA
ENDBRANCH  14  17
ENDBRANCH   4  11
BRANCH   6  20
ATOM     20  C   UNL     1      -0.583  -5.280  -0.739  0.00  0.00    +0.091 C 
ATOM     21  C   UNL     1      -0.339  -6.585  -0.968  0.00  0.00    +0.239 C 
ATOM     22  O   UNL     1       0.934  -7.051  -0.941  0.00  0.00    -0.271 OA
BRANCH  21  23
ATOM     23  N   UNL     1      -1.387  -7.450  -1.231  0.00  0.00    -0.308 N 
ATOM     24  H   UNL     1      -2.303  -7.133  -1.177  0.00  0.00    +0.149 HD
BRANCH  23  25
ATOM     25  C   UNL     1      -1.115  -8.844  -1.590  0.00  0.00    +0.141 C 
BRANCH  25  26
ATOM     26  C   UNL     1      -2.408  -9.534  -1.942  0.00  0.00    -0.012 A 
ATOM     27  C   UNL     1      -3.152 -10.172  -0.962  0.00  0.00    +0.008 A 
ATOM     28  C   UNL     1      -4.335 -10.794  -1.332  0.00  0.00    +0.020 A 
ATOM     29  C   UNL     1      -4.730 -10.757  -2.656  0.00  0.00    +0.111 A 
ATOM     30  N   UNL     1      -3.996 -10.140  -3.562  0.00  0.00    -0.263 NA
ATOM     31  C   UNL     1      -2.869  -9.534  -3.245  0.00  0.00    +0.115 A 
ENDBRANCH  25  26
ENDBRANCH  23  25
ENDBRANCH  21  23
ENDBRANCH   6  20
BRANCH   3  32
ATOM     32  C   UNL     1      -2.146  -0.222   0.728  0.00  0.00    +0.339 C 
ATOM     33  O   UNL     1      -2.103   0.957   1.034  0.00  0.00    -0.245 OA
BRANCH  32  34
ATOM     34  O   UNL     1      -3.335  -0.862   0.668  0.00  0.00    -0.459 OA
BRANCH  34  35
ATOM     35  C   UNL     1      -4.501  -0.094   0.975  0.00  0.00    +0.171 C 
ATOM     36  C   UNL     1      -5.043   0.545  -0.305  0.00  0.00    +0.052 C 
ATOM     37  C   UNL     1      -5.568  -1.008   1.581  0.00  0.00    +0.052 C 
ENDBRANCH  34  35
ENDBRANCH  32  34
ENDBRANCH   3  32
TORSDOF 9
