REMARK  Name = ZINC07536016
REMARK  2 active torsions:
REMARK  status: ('A' for Active; 'I' for Inactive)
REMARK    1  A    between atoms: C_6  and  S_9
REMARK    2  A    between atoms: S_9  and  C_10
REMARK                            x       y       z     vdW  Elec       q    Type
REMARK                         _______ _______ _______ _____ _____    ______ ____
ROOT
ATOM      1  S   UNL     1      -1.250   5.494   0.106  0.00  0.00    -0.086 S 
ENDROOT
BRANCH   1   2
ATOM      2  C   UNL     1      -2.278   6.011  -1.229  0.00  0.00    +0.161 A 
ATOM      3  N   UNL     1      -3.021   5.284  -2.042  0.00  0.00    -0.133 NA
ATOM      4  N   UNL     1      -3.758   5.899  -3.028  0.00  0.00    -0.125 NA
ATOM      5  C   UNL     1      -3.711   7.209  -3.163  0.00  0.00    +0.180 A 
ATOM      6  S   UNL     1      -2.585   7.657  -1.850  0.00  0.00    -0.025 S 
ATOM      7  N   UNL     1      -4.362   8.024  -4.081  0.00  0.00    -0.336 N 
ATOM      8  H   UNL     1      -4.227   8.985  -4.058  0.00  0.00    +0.144 HD
ATOM      9  H   UNL     1      -4.951   7.633  -4.745  0.00  0.00    +0.144 HD
ENDBRANCH   1   2
BRANCH   1  15
ATOM     10  C   UNL     1      -0.729   1.579   1.266  0.00  0.00    +0.002 C 
ATOM     11  C   UNL     1      -0.013   1.086   0.008  0.00  0.00    +0.008 C 
ATOM     12  C   UNL     1      -0.754   1.594  -1.233  0.00  0.00    +0.075 C 
ATOM     13  C   UNL     1      -0.879   3.098  -1.136  0.00  0.00    +0.147 C 
ATOM     14  O   UNL     1      -0.537   3.808  -2.052  0.00  0.00    -0.296 OA
ATOM     15  C   UNL     1      -1.444   3.691   0.136  0.00  0.00    +0.119 C 
ATOM     16  C   UNL     1      -0.677   3.107   1.327  0.00  0.00    +0.022 C 
ENDBRANCH   1  15
TORSDOF 2
