REMARK  Name = ZINC36052207
REMARK  10 active torsions:
REMARK  status: ('A' for Active; 'I' for Inactive)
REMARK    1  A    between atoms: C_1  and  C_2
REMARK    2  A    between atoms: C_5  and  S_8
REMARK    3  A    between atoms: S_8  and  N_11
REMARK    4  A    between atoms: N_11  and  C_12
REMARK    5  A    between atoms: N_11  and  C_15
REMARK    6  A    between atoms: C_12  and  C_13
REMARK    7  A    between atoms: C_15  and  C_16
REMARK    8  A    between atoms: C_21  and  C_32
REMARK    9  A    between atoms: N_23  and  C_24
REMARK   10  A    between atoms: C_27  and  C_31
REMARK                            x       y       z     vdW  Elec       q    Type
REMARK                         _______ _______ _______ _____ _____    ______ ____
ROOT
ATOM      1  C   UNL     1       3.089  -3.942  -1.678  0.00  0.00    +0.235 C 
ATOM      2  O   UNL     1       3.042  -2.974  -0.950  0.00  0.00    -0.274 OA
ATOM      3  N   UNL     1       3.805  -3.894  -2.819  0.00  0.00    -0.254 N 
ATOM      4  C   UNL     1       4.490  -2.735  -3.160  0.00  0.00    +0.207 A 
ATOM      5  N   UNL     1       4.520  -1.631  -2.456  0.00  0.00    -0.214 NA
ATOM      6  C   UNL     1       5.282  -0.716  -3.094  0.00  0.00    +0.091 A 
ATOM      7  C   UNL     1       5.742  -1.279  -4.240  0.00  0.00    +0.122 A 
ATOM      8  N   UNL     1       5.246  -2.559  -4.281  0.00  0.00    -0.287 N 
ATOM      9  H   UNL     1       3.843  -4.668  -3.401  0.00  0.00    +0.158 HD
ENDROOT
BRANCH   8  10
ATOM     10  C   UNL     1       5.473  -3.507  -5.288  0.00  0.00    +0.052 A 
ATOM     11  C   UNL     1       5.881  -4.792  -4.955  0.00  0.00    +0.026 A 
ATOM     12  C   UNL     1       6.104  -5.725  -5.949  0.00  0.00    +0.008 A 
ATOM     13  C   UNL     1       5.921  -5.382  -7.276  0.00  0.00    -0.015 A 
ATOM     14  C   UNL     1       5.514  -4.101  -7.612  0.00  0.00    +0.128 A 
ATOM     15  C   UNL     1       5.284  -3.165  -6.620  0.00  0.00    +0.064 A 
ATOM     16  F   UNL     1       5.336  -3.768  -8.909  0.00  0.00    -0.205 F 
ATOM     17  C   UNL     1       6.166  -6.402  -8.357  0.00  0.00    +0.047 C 
ENDBRANCH   8  10
BRANCH   6  18
ATOM     18  C   UNL     1       5.567   0.661  -2.624  0.00  0.00    +0.002 A 
ATOM     19  C   UNL     1       6.369   1.509  -3.386  0.00  0.00    +0.010 A 
ATOM     20  C   UNL     1       6.631   2.790  -2.944  0.00  0.00    +0.001 A 
ATOM     21  C   UNL     1       6.099   3.233  -1.746  0.00  0.00    +0.000 A 
ATOM     22  C   UNL     1       5.302   2.396  -0.985  0.00  0.00    +0.001 A 
ATOM     23  C   UNL     1       5.029   1.115  -1.421  0.00  0.00    +0.010 A 
ENDBRANCH   6  18
BRANCH   1  24
ATOM     24  C   UNL     1       2.346  -5.200  -1.308  0.00  0.00    +0.205 C 
BRANCH  24  25
ATOM     25  N   UNL     1       1.651  -4.999  -0.034  0.00  0.00    -0.164 NA
BRANCH  25  26
ATOM     26  S   UNL     1       0.063  -4.530  -0.023  0.00  0.00    +0.062 S 
ATOM     27  O   UNL     1      -0.476  -4.950   1.223  0.00  0.00    -0.153 OA
ATOM     28  O   UNL     1      -0.490  -4.937  -1.267  0.00  0.00    -0.153 OA
BRANCH  26  33
ATOM     29  C   UNL     1      -0.018   1.503   0.010  0.00  0.00    +0.044 C 
ATOM     30  C   UNL     1       0.002  -0.004   0.002  0.00  0.00    -0.050 A 
ATOM     31  C   UNL     1       0.006  -0.689  -1.199  0.00  0.00    +0.005 A 
ATOM     32  C   UNL     1       0.025  -2.071  -1.206  0.00  0.00    +0.029 A 
ATOM     33  C   UNL     1       0.040  -2.768  -0.013  0.00  0.00    +0.106 A 
ATOM     34  C   UNL     1       0.037  -2.084   1.188  0.00  0.00    +0.029 A 
ATOM     35  C   UNL     1       0.023  -0.702   1.195  0.00  0.00    +0.005 A 
ENDBRANCH  26  33
ENDBRANCH  25  26
BRANCH  25  36
ATOM     36  C   UNL     1       2.360  -5.214   1.229  0.00  0.00    +0.136 C 
BRANCH  36  37
ATOM     37  C   UNL     1       2.305  -6.675   1.595  0.00  0.00    -0.018 C 
ATOM     38  C   UNL     1       3.413  -7.335   1.825  0.00  0.00    +0.005 C 
ENDBRANCH  36  37
ENDBRANCH  25  36
ENDBRANCH  24  25
ENDBRANCH   1  24
TORSDOF 8
