REMARK  Name = ZINC21230859
REMARK  12 active torsions:
REMARK  status: ('A' for Active; 'I' for Inactive)
REMARK    1  A    between atoms: C_1  and  C_2
REMARK    2  A    between atoms: C_2  and  C_3
REMARK    3  A    between atoms: C_3  and  O_4
REMARK    4  A    between atoms: O_4  and  C_5
REMARK    5  A    between atoms: C_6  and  C_13
REMARK    6  A    between atoms: C_10  and  O_11
REMARK    7  A    between atoms: O_11  and  C_12
REMARK    8  A    between atoms: C_18  and  C_23
REMARK    9  A    between atoms: C_25  and  O_31
REMARK   10  A    between atoms: C_28  and  O_29
REMARK   11  A    between atoms: O_29  and  C_30
REMARK   12  A    between atoms: O_31  and  C_32
REMARK                            x       y       z     vdW  Elec       q    Type
REMARK                         _______ _______ _______ _____ _____    ______ ____
ROOT
ATOM      1  C   UNL     1       3.216   3.694   1.309  0.00  0.00    +0.140 C 
ATOM      2  C   UNL     1       3.735   2.288   1.491  0.00  0.00    +0.037 C 
ATOM      3  C   UNL     1       3.323   1.201   0.814  0.00  0.00    +0.017 C 
ATOM      4  C   UNL     1       3.939  -0.159   1.089  0.00  0.00    +0.060 C 
ATOM      5  C   UNL     1       4.354  -0.259   2.555  0.00  0.00    +0.036 C 
ATOM      6  C   UNL     1       5.370   0.856   2.830  0.00  0.00    +0.088 C 
ATOM      7  C   UNL     1       4.741   2.171   2.479  0.00  0.00    +0.163 C 
ATOM      8  O   UNL     1       5.109   3.171   3.062  0.00  0.00    -0.292 OA
ATOM      9  N   UNL     1       2.365   1.212  -0.147  0.00  0.00    -0.316 N 
ATOM     10  C   UNL     1       1.139   1.858  -0.042  0.00  0.00    +0.052 A 
ATOM     11  C   UNL     1      -0.062   1.170  -0.053  0.00  0.00    +0.025 A 
ATOM     12  C   UNL     1      -1.251   1.880  -0.042  0.00  0.00    +0.002 A 
ATOM     13  C   UNL     1      -1.238   3.263  -0.009  0.00  0.00    +0.002 A 
ATOM     14  C   UNL     1      -0.038   3.952   0.021  0.00  0.00    +0.025 A 
ATOM     15  C   UNL     1       1.152   3.243   0.021  0.00  0.00    +0.049 A 
ATOM     16  N   UNL     1       2.385   3.885   0.140  0.00  0.00    -0.331 N 
ATOM     17  H   UNL     1       2.532   0.682  -1.097  0.00  0.00    +0.152 HD
ATOM     18  H   UNL     1       2.723   4.545  -0.673  0.00  0.00    +0.147 HD
ENDROOT
BRANCH   1  20
ATOM     19  C   UNL     1       2.239   5.396   2.866  0.00  0.00    +0.167 A 
ATOM     20  C   UNL     1       2.414   4.064   2.530  0.00  0.00    +0.023 A 
ATOM     21  C   UNL     1       1.857   3.073   3.317  0.00  0.00    +0.009 A 
ATOM     22  C   UNL     1       1.120   3.409   4.438  0.00  0.00    +0.004 A 
ATOM     23  C   UNL     1       0.936   4.737   4.775  0.00  0.00    +0.049 A 
ATOM     24  C   UNL     1       1.492   5.735   3.991  0.00  0.00    +0.162 A 
BRANCH  24  25
ATOM     25  O   UNL     1       1.313   7.042   4.322  0.00  0.00    -0.491 OA
ATOM     26  C   UNL     1       0.540   7.314   5.493  0.00  0.00    +0.277 C 
ENDBRANCH  24  25
BRANCH  19  27
ATOM     27  O   UNL     1       2.791   6.372   2.096  0.00  0.00    -0.488 OA
BRANCH  27  28
ATOM     28  C   UNL     1       1.996   6.877   1.021  0.00  0.00    +0.229 C 
BRANCH  28  30
ATOM     29  C   UNL     1       1.928   8.499  -0.878  0.00  0.00    +0.007 C 
ATOM     30  C   UNL     1       2.779   7.959   0.273  0.00  0.00    +0.038 C 
ENDBRANCH  28  30
ENDBRANCH  27  28
ENDBRANCH  19  27
ENDBRANCH   1  20
BRANCH   5  31
ATOM     31  C   UNL     1       4.985  -1.602   2.818  0.00  0.00    +0.002 A 
ATOM     32  C   UNL     1       6.120  -1.979   2.125  0.00  0.00    +0.053 A 
ATOM     33  C   UNL     1       6.704  -3.212   2.369  0.00  0.00    +0.121 A 
ATOM     34  C   UNL     1       6.143  -4.073   3.302  0.00  0.00    +0.049 A 
ATOM     35  C   UNL     1       5.006  -3.698   3.991  0.00  0.00    +0.049 A 
ATOM     36  C   UNL     1       4.425  -2.462   3.750  0.00  0.00    +0.124 A 
BRANCH  36  37
ATOM     37  O   UNL     1       3.306  -2.093   4.429  0.00  0.00    -0.495 OA
ATOM     38  C   UNL     1       2.783  -3.028   5.375  0.00  0.00    +0.277 C 
ENDBRANCH  36  37
BRANCH  33  39
ATOM     39  O   UNL     1       7.823  -3.581   1.691  0.00  0.00    -0.495 OA
ATOM     40  C   UNL     1       8.368  -4.868   1.989  0.00  0.00    +0.277 C 
ENDBRANCH  33  39
ENDBRANCH   5  31
TORSDOF 8
