REMARK  Name = ZINC06114665
REMARK  5 active torsions:
REMARK  status: ('A' for Active; 'I' for Inactive)
REMARK    1  A    between atoms: C_1  and  C_2
REMARK    2  A    between atoms: C_3  and  O_24
REMARK    3  A    between atoms: C_12  and  C_13
REMARK    4  A    between atoms: C_13  and  S_14
REMARK    5  A    between atoms: S_14  and  C_15
REMARK                            x       y       z     vdW  Elec       q    Type
REMARK                         _______ _______ _______ _____ _____    ______ ____
ROOT
ATOM      1  C   UNL     1      -0.051   5.371   0.032  0.00  0.00    +0.051 C 
ATOM      2  C   UNL     1      -0.051   3.864   0.023  0.00  0.00    +0.034 A 
ATOM      3  C   UNL     1       1.148   3.170   0.008  0.00  0.00    +0.123 A 
ATOM      4  C   UNL     1       1.159   1.776   0.001  0.00  0.00    +0.046 A 
ATOM      5  C   UNL     1      -0.013   1.076   0.008  0.00  0.00    +0.015 A 
ATOM      6  C   UNL     1      -1.232   1.761   0.018  0.00  0.00    +0.022 A 
ATOM      7  C   UNL     1      -1.250   3.169   0.032  0.00  0.00    +0.146 A 
ATOM      8  O   UNL     1      -2.429   3.826   0.046  0.00  0.00    -0.422 OA
ATOM      9  C   UNL     1      -3.599   3.167   0.035  0.00  0.00    +0.338 A 
ATOM     10  O   UNL     1      -4.638   3.803   0.044  0.00  0.00    -0.245 OA
ATOM     11  C   UNL     1      -3.655   1.758   0.028  0.00  0.00    +0.097 A 
ATOM     12  C   UNL     1      -2.505   1.036   0.019  0.00  0.00    -0.020 A 
ENDROOT
BRANCH   3  13
ATOM     13  O   UNL     1       2.321   3.852  -0.000  0.00  0.00    -0.506 OA
ATOM     14  H   UNL     1       2.653   4.054  -0.886  0.00  0.00    +0.292 HD
ENDBRANCH   3  13
BRANCH  12  15
ATOM     15  C   UNL     1      -2.537  -0.471   0.010  0.00  0.00    +0.113 C 
BRANCH  15  16
ATOM     16  S   UNL     1      -2.542  -1.085   1.717  0.00  0.00    -0.081 S 
BRANCH  16  17
ATOM     17  C   UNL     1      -2.580  -2.838   1.539  0.00  0.00    +0.196 A 
ATOM     18  N   UNL     1      -2.599  -3.505   0.407  0.00  0.00    -0.122 NA
ATOM     19  N   UNL     1      -2.625  -4.771   0.636  0.00  0.00    -0.129 NA
ATOM     20  C   UNL     1      -2.624  -4.988   1.938  0.00  0.00    +0.162 A 
ATOM     21  N   UNL     1      -2.589  -3.753   2.550  0.00  0.00    -0.278 N 
ATOM     22  C   UNL     1      -2.587  -3.656   3.914  0.00  0.00    +0.095 A 
ATOM     23  C   UNL     1      -2.607  -4.766   4.678  0.00  0.00    +0.018 A 
ATOM     24  C   UNL     1      -2.637  -6.041   4.082  0.00  0.00    +0.005 A 
ATOM     25  C   UNL     1      -2.646  -6.155   2.728  0.00  0.00    +0.049 A 
ENDBRANCH  16  17
ENDBRANCH  15  16
ENDBRANCH  12  15
TORSDOF 4
