REMARK  Name = ZINC64890612
REMARK  10 active torsions:
REMARK  status: ('A' for Active; 'I' for Inactive)
REMARK    1  A    between atoms: C_1  and  C_2
REMARK    2  A    between atoms: C_2  and  N_3
REMARK    3  A    between atoms: C_7  and  C_16
REMARK    4  A    between atoms: C_18  and  C_22
REMARK    5  A    between atoms: C_22  and  C_24
REMARK    6  A    between atoms: C_22  and  N_27
REMARK    7  A    between atoms: C_24  and  C_25
REMARK    8  A    between atoms: C_24  and  C_26
REMARK    9  A    between atoms: N_27  and  S_28
REMARK   10  A    between atoms: S_28  and  C_31
REMARK                            x       y       z     vdW  Elec       q    Type
REMARK                         _______ _______ _______ _____ _____    ______ ____
ROOT
ATOM      1  C   UNL     1       6.672  -1.776   1.008  0.00  0.00    +0.134 C 
ATOM      2  N   UNL     1       7.383  -2.094  -0.031  0.00  0.00    -0.341 N 
ATOM      3  C   UNL     1       8.772  -2.301   0.395  0.00  0.00    +0.262 C 
ATOM      4  O   UNL     1       8.778  -2.063   1.810  0.00  0.00    -0.246 OA
ATOM      5  N   UNL     1       7.440  -1.732   2.145  0.00  0.00    -0.247 N 
ATOM      6  H   UNL     1       7.119  -1.513   3.034  0.00  0.00    +0.196 HD
ATOM      7  H   UNL     1       7.050  -2.181  -0.938  0.00  0.00    +0.164 HD
ENDROOT
BRANCH   1  12
ATOM      8  N   UNL     1       1.135  -0.678   0.835  0.00  0.00    -0.303 N 
ATOM      9  C   UNL     1       2.497  -0.952   0.889  0.00  0.00    +0.068 A 
ATOM     10  C   UNL     1       3.296  -0.683  -0.220  0.00  0.00    +0.028 A 
ATOM     11  C   UNL     1       4.645  -0.949  -0.182  0.00  0.00    +0.013 A 
ATOM     12  C   UNL     1       5.221  -1.490   0.970  0.00  0.00    +0.019 A 
ATOM     13  C   UNL     1       4.428  -1.762   2.082  0.00  0.00    +0.039 A 
ATOM     14  C   UNL     1       3.067  -1.493   2.044  0.00  0.00    +0.067 A 
ATOM     15  N   UNL     1       2.281  -1.768   3.161  0.00  0.00    -0.316 N 
ATOM     16  H   UNL     1       2.686  -2.143   3.958  0.00  0.00    +0.169 HD
ATOM     17  C   UNL     1       0.957  -1.511   3.135  0.00  0.00    +0.314 A 
ATOM     18  O   UNL     1       0.267  -1.748   4.106  0.00  0.00    -0.262 OA
ATOM     19  C   UNL     1       0.351  -0.929   1.903  0.00  0.00    +0.316 A 
ATOM     20  O   UNL     1      -0.838  -0.686   1.860  0.00  0.00    -0.262 OA
BRANCH   8  22
ATOM     21  C   UNL     1       0.603   1.417  -0.309  0.00  0.00    +0.027 C 
ATOM     22  C   UNL     1       0.552  -0.111  -0.383  0.00  0.00    +0.122 C 
ENDBRANCH   8  22
ENDBRANCH   1  12
BRANCH   3  23
ATOM     23  C   UNL     1       9.209  -3.737   0.095  0.00  0.00    +0.131 C 
BRANCH  23  24
ATOM     24  C   UNL     1      10.630  -3.957   0.617  0.00  0.00    +0.006 C 
ATOM     25  C   UNL     1      11.024  -5.422   0.423  0.00  0.00    +0.009 C 
ATOM     26  C   UNL     1      11.601  -3.061  -0.154  0.00  0.00    +0.009 C 
ENDBRANCH  23  24
BRANCH  23  27
ATOM     27  N   UNL     1       8.296  -4.673   0.756  0.00  0.00    -0.182 NA
ATOM     28  H   UNL     1       8.260  -4.714   1.724  0.00  0.00    +0.148 HD
BRANCH  27  29
ATOM     29  S   UNL     1       7.325  -5.662  -0.151  0.00  0.00    +0.059 S 
ATOM     30  O   UNL     1       6.615  -6.484   0.764  0.00  0.00    -0.153 OA
ATOM     31  O   UNL     1       6.668  -4.829  -1.096  0.00  0.00    -0.153 OA
BRANCH  29  32
ATOM     32  C   UNL     1       8.383  -6.729  -1.071  0.00  0.00    +0.105 A 
ATOM     33  C   UNL     1       8.789  -6.372  -2.343  0.00  0.00    +0.028 A 
ATOM     34  C   UNL     1       9.619  -7.210  -3.064  0.00  0.00    +0.002 A 
ATOM     35  C   UNL     1      10.043  -8.405  -2.513  0.00  0.00    +0.000 A 
ATOM     36  C   UNL     1       9.637  -8.762  -1.241  0.00  0.00    +0.002 A 
ATOM     37  C   UNL     1       8.811  -7.922  -0.518  0.00  0.00    +0.028 A 
ENDBRANCH  29  32
ENDBRANCH  27  29
ENDBRANCH  23  27
ENDBRANCH   3  23
TORSDOF 7
