REMARK  Name = ZINC30977490
REMARK  13 active torsions:
REMARK  status: ('A' for Active; 'I' for Inactive)
REMARK    1  A    between atoms: C_1  and  C_2
REMARK    2  A    between atoms: C_5  and  C_36
REMARK    3  A    between atoms: C_6  and  C_8
REMARK    4  A    between atoms: C_8  and  C_10
REMARK    5  A    between atoms: C_8  and  N_11
REMARK    6  A    between atoms: C_12  and  C_14
REMARK    7  A    between atoms: N_17  and  C_20
REMARK    8  A    between atoms: C_20  and  C_21
REMARK    9  A    between atoms: C_23  and  C_26
REMARK   10  A    between atoms: C_29  and  C_32
REMARK   11  A    between atoms: C_32  and  C_33
REMARK   12  A    between atoms: C_32  and  C_34
REMARK   13  A    between atoms: C_32  and  C_35
REMARK                            x       y       z     vdW  Elec       q    Type
REMARK                         _______ _______ _______ _____ _____    ______ ____
ROOT
ATOM      1  C   UNL     1      -0.018   1.503   0.010  0.00  0.00    +0.071 C 
ATOM      2  C   UNL     1      -0.752   2.011  -1.234  0.00  0.00    -0.006 C 
ATOM      3  C   UNL     1      -0.716   3.541  -1.251  0.00  0.00    -0.077 C 
ATOM      4  N   UNL     1       0.679   4.000  -1.262  0.00  0.00    +0.386 N 
ATOM      5  C   UNL     1       1.390   3.563  -0.054  0.00  0.00    -0.077 C 
ATOM      6  C   UNL     1       1.418   2.034  -0.001  0.00  0.00    -0.006 C 
ATOM      7  H   UNL     1       1.176   3.540  -2.128  0.00  0.00    -0.081 HD
ENDROOT
BRANCH   1   9
ATOM      8  N   UNL     1      -1.156  -0.694   0.009  0.00  0.00    -0.309 N 
ATOM      9  C   UNL     1       0.002  -0.004   0.002  0.00  0.00    +0.216 C 
ATOM     10  O   UNL     1       1.060  -0.596  -0.011  0.00  0.00    -0.276 OA
ATOM     11  H   UNL     1      -2.116  -0.157   0.021  0.00  0.00    +0.149 HD
BRANCH   8  12
ATOM     12  C   UNL     1      -1.136  -2.159   0.001  0.00  0.00    +0.100 C 
ATOM     13  C   UNL     1      -1.017  -2.659  -1.440  0.00  0.00    +0.033 C 
BRANCH  12  19
ATOM     14  C   UNL     1      -5.970  -1.536   1.139  0.00  0.00    +0.044 C 
ATOM     15  C   UNL     1      -4.723  -2.384   1.155  0.00  0.00    -0.050 A 
ATOM     16  C   UNL     1      -4.750  -3.642   1.729  0.00  0.00    +0.003 A 
ATOM     17  C   UNL     1      -3.607  -4.419   1.744  0.00  0.00    +0.004 A 
ATOM     18  C   UNL     1      -2.439  -3.941   1.181  0.00  0.00    -0.046 A 
ATOM     19  C   UNL     1      -2.411  -2.682   0.611  0.00  0.00    -0.024 A 
ATOM     20  C   UNL     1      -3.554  -1.904   0.596  0.00  0.00    +0.009 A 
ATOM     21  C   UNL     1      -1.194  -4.790   1.192  0.00  0.00    +0.044 C 
ENDBRANCH  12  19
ENDBRANCH   8  12
ENDBRANCH   1   9
BRANCH   4  22
ATOM     22  C   UNL     1       0.752   5.458  -1.418  0.00  0.00    +0.022 C 
BRANCH  22  23
ATOM     23  C   UNL     1       0.232   5.845  -2.778  0.00  0.00    +0.211 A 
ATOM     24  N   UNL     1      -1.008   6.136  -3.083  0.00  0.00    -0.193 NA
ATOM     25  C   UNL     1      -1.001   6.419  -4.405  0.00  0.00    +0.202 A 
ATOM     26  N   UNL     1       0.232   6.285  -4.822  0.00  0.00    -0.056 NA
ATOM     27  O   UNL     1       0.950   5.961  -3.900  0.00  0.00    -0.340 OA
BRANCH  25  28
ATOM     28  C   UNL     1      -2.172   6.809  -5.230  0.00  0.00    +0.022 A 
ATOM     29  C   UNL     1      -3.434   6.907  -4.649  0.00  0.00    +0.012 A 
ATOM     30  C   UNL     1      -4.519   7.275  -5.419  0.00  0.00    +0.005 A 
ATOM     31  C   UNL     1      -4.356   7.535  -6.768  0.00  0.00    -0.042 A 
ATOM     32  C   UNL     1      -3.106   7.434  -7.351  0.00  0.00    +0.005 A 
ATOM     33  C   UNL     1      -2.013   7.072  -6.589  0.00  0.00    +0.012 A 
BRANCH  31  34
ATOM     34  C   UNL     1      -5.545   7.930  -7.605  0.00  0.00    -0.013 C 
ATOM     35  C   UNL     1      -5.740   6.909  -8.727  0.00  0.00    +0.015 C 
ATOM     36  C   UNL     1      -6.797   7.968  -6.726  0.00  0.00    +0.015 C 
ATOM     37  C   UNL     1      -5.305   9.315  -8.211  0.00  0.00    +0.015 C 
ENDBRANCH  31  34
ENDBRANCH  25  28
ENDBRANCH  22  23
ENDBRANCH   4  22
TORSDOF 7
