REMARK  Name = ZINC63270263
REMARK  5 active torsions:
REMARK  status: ('A' for Active; 'I' for Inactive)
REMARK    1  A    between atoms: C_8  and  C_13
REMARK    2  A    between atoms: C_17  and  C_19
REMARK    3  A    between atoms: N_21  and  C_22
REMARK    4  A    between atoms: C_22  and  C_23
REMARK    5  A    between atoms: C_23  and  C_24
REMARK                            x       y       z     vdW  Elec       q    Type
REMARK                         _______ _______ _______ _____ _____    ______ ____
ROOT
ATOM      1  C   UNL     1       2.631  -2.625   1.929  0.00  0.00    -0.033 A 
ATOM      2  C   UNL     1       2.661  -1.372   2.515  0.00  0.00    +0.004 A 
ATOM      3  C   UNL     1       2.759  -1.246   3.889  0.00  0.00    +0.001 A 
ATOM      4  C   UNL     1       2.828  -2.372   4.684  0.00  0.00    +0.013 A 
ATOM      5  C   UNL     1       2.798  -3.639   4.099  0.00  0.00    +0.037 A 
ATOM      6  C   UNL     1       2.693  -3.758   2.713  0.00  0.00    +0.017 A 
ENDROOT
BRANCH   1  14
ATOM      7  C   UNL     1      -0.077   1.339   0.017  0.00  0.00    +0.000 A 
ATOM      8  C   UNL     1       1.100   2.065   0.009  0.00  0.00    +0.004 A 
ATOM      9  C   UNL     1       2.313   1.407  -0.004  0.00  0.00    +0.046 A 
ATOM     10  C   UNL     1       2.355   0.016  -0.012  0.00  0.00    +0.135 A 
ATOM     11  C   UNL     1       1.177  -0.708  -0.011  0.00  0.00    -0.004 A 
ATOM     12  C   UNL     1      -0.038  -0.041   0.008  0.00  0.00    +0.007 A 
ATOM     13  C   UNL     1       1.169  -2.215  -0.041  0.00  0.00    +0.058 C 
ATOM     14  C   UNL     1       2.523  -2.752   0.431  0.00  0.00    +0.132 C 
ATOM     15  C   UNL     1       3.602  -1.922  -0.236  0.00  0.00    +0.320 C 
ATOM     16  O   UNL     1       4.449  -2.428  -0.933  0.00  0.00    -0.250 OA
ATOM     17  O   UNL     1       3.572  -0.593  -0.014  0.00  0.00    -0.425 OA
ENDBRANCH   1  14
BRANCH   5  18
ATOM     18  C   UNL     1       2.872  -4.849   4.946  0.00  0.00    +0.244 C 
ATOM     19  O   UNL     1       2.845  -5.951   4.434  0.00  0.00    -0.270 OA
ATOM     20  N   UNL     1       2.968  -4.730   6.285  0.00  0.00    -0.311 N 
ATOM     21  H   UNL     1       2.989  -3.850   6.693  0.00  0.00    +0.149 HD
BRANCH  20  22
ATOM     22  C   UNL     1       3.041  -5.929   7.123  0.00  0.00    +0.109 C 
BRANCH  22  23
ATOM     23  C   UNL     1       3.144  -5.518   8.593  0.00  0.00    +0.052 C 
BRANCH  23  24
ATOM     24  C   UNL     1       3.219  -6.751   9.456  0.00  0.00    -0.040 C 
ATOM     25  C   UNL     1       4.339  -7.349   9.924  0.00  0.00    -0.001 A 
ATOM     26  C   UNL     1       5.766  -7.042   9.776  0.00  0.00    +0.010 A 
ATOM     27  C   UNL     1       6.675  -7.843  10.376  0.00  0.00    +0.001 A 
ATOM     28  C   UNL     1       6.289  -8.957  11.134  0.00  0.00    +0.002 A 
ATOM     29  C   UNL     1       4.997  -9.304  11.316  0.00  0.00    +0.026 A 
ATOM     30  C   UNL     1       3.957  -8.531  10.730  0.00  0.00    +0.043 A 
ATOM     31  N   UNL     1       2.653  -8.659  10.758  0.00  0.00    -0.380 N 
ATOM     32  C   UNL     1       2.058  -7.568   9.978  0.00  0.00    +0.144 C 
ATOM     33  H   UNL     1       2.162  -9.356  11.221  0.00  0.00    +0.160 HD
ENDBRANCH  23  24
ENDBRANCH  22  23
ENDBRANCH  20  22
ENDBRANCH   5  18
TORSDOF 5
