REMARK  Name = ZINC19074972
REMARK  9 active torsions:
REMARK  status: ('A' for Active; 'I' for Inactive)
REMARK    1  A    between atoms: C_5  and  N_7
REMARK    2  A    between atoms: N_15  and  C_16
REMARK    3  A    between atoms: C_16  and  C_17
REMARK    4  A    between atoms: C_17  and  C_18
REMARK    5  A    between atoms: C_18  and  C_19
REMARK    6  A    between atoms: C_19  and  C_20
REMARK    7  A    between atoms: C_20  and  C_21
REMARK    8  A    between atoms: C_21  and  N_22
REMARK    9  A    between atoms: N_28  and  C_31
REMARK                            x       y       z     vdW  Elec       q    Type
REMARK                         _______ _______ _______ _____ _____    ______ ____
ROOT
ATOM      1  C   UNL     1      -4.738  -6.550  -2.758  0.00  0.00    +0.002 C 
ENDROOT
BRANCH   1   2
ATOM      2  C   UNL     1      -3.666  -5.458  -2.729  0.00  0.00    +0.019 C 
BRANCH   2   3
ATOM      3  C   UNL     1      -3.304  -5.137  -1.278  0.00  0.00    +0.106 C 
BRANCH   3  12
ATOM      4  N   UNL     1       1.506  -1.269   0.041  0.00  0.00    -0.325 N 
ATOM      5  C   UNL     1       1.044  -1.984   1.238  0.00  0.00    +0.124 C 
ATOM      6  C   UNL     1      -0.487  -2.041   1.236  0.00  0.00    +0.128 C 
ATOM      7  N   UNL     1      -0.932  -2.617  -0.042  0.00  0.00    -0.283 N 
ATOM      8  C   UNL     1      -0.402  -2.040  -1.287  0.00  0.00    +0.128 C 
ATOM      9  C   UNL     1       1.126  -1.983  -1.186  0.00  0.00    +0.124 C 
ATOM     10  C   UNL     1      -1.801  -3.646  -0.071  0.00  0.00    +0.302 C 
ATOM     11  O   UNL     1      -2.156  -4.173   0.966  0.00  0.00    -0.253 OA
ATOM     12  N   UNL     1      -2.277  -4.092  -1.251  0.00  0.00    -0.299 N 
ATOM     13  H   UNL     1      -1.941  -3.722  -2.081  0.00  0.00    +0.150 HD
BRANCH   4  18
ATOM     14  C   UNL     1       5.124  -1.916   0.118  0.00  0.00    +0.002 A 
ATOM     15  C   UNL     1       5.620  -0.627   0.179  0.00  0.00    +0.003 A 
ATOM     16  C   UNL     1       4.754   0.451   0.195  0.00  0.00    +0.040 A 
ATOM     17  C   UNL     1       3.388   0.242   0.149  0.00  0.00    +0.144 A 
ATOM     18  C   UNL     1       2.887  -1.054   0.087  0.00  0.00    +0.065 A 
ATOM     19  C   UNL     1       3.760  -2.132   0.077  0.00  0.00    +0.026 A 
ATOM     20  F   UNL     1       2.542   1.295   0.166  0.00  0.00    -0.204 F 
ENDBRANCH   4  18
ENDBRANCH   3  12
ENDBRANCH   2   3
ENDBRANCH   1   2
BRANCH   1  21
ATOM     21  C   UNL     1      -5.101  -6.871  -4.209  0.00  0.00    +0.002 C 
BRANCH  21  22
ATOM     22  C   UNL     1      -6.173  -7.962  -4.237  0.00  0.00    +0.019 C 
BRANCH  22  23
ATOM     23  C   UNL     1      -6.535  -8.283  -5.689  0.00  0.00    +0.106 C 
BRANCH  23  24
ATOM     24  N   UNL     1      -7.562  -9.328  -5.716  0.00  0.00    -0.299 N 
ATOM     25  C   UNL     1      -8.038  -9.774  -6.895  0.00  0.00    +0.302 C 
ATOM     26  O   UNL     1      -7.553  -9.376  -7.937  0.00  0.00    -0.253 OA
ATOM     27  N   UNL     1      -9.052 -10.662  -6.920  0.00  0.00    -0.283 N 
ATOM     28  C   UNL     1      -9.667 -11.071  -8.192  0.00  0.00    +0.128 C 
ATOM     29  C   UNL     1      -9.692 -12.607  -8.244  0.00  0.00    +0.124 C 
ATOM     30  N   UNL     1     -10.357 -13.121  -7.040  0.00  0.00    -0.325 N 
ATOM     31  C   UNL     1      -9.610 -12.768  -5.825  0.00  0.00    +0.124 C 
ATOM     32  C   UNL     1      -9.577 -11.243  -5.675  0.00  0.00    +0.128 C 
ATOM     33  H   UNL     1      -7.899  -9.699  -4.885  0.00  0.00    +0.150 HD
BRANCH  30  34
ATOM     34  C   UNL     1     -10.550 -14.504  -7.125  0.00  0.00    +0.065 A 
ATOM     35  C   UNL     1     -11.239 -15.174  -6.124  0.00  0.00    +0.026 A 
ATOM     36  C   UNL     1     -11.432 -16.539  -6.214  0.00  0.00    +0.002 A 
ATOM     37  C   UNL     1     -10.931 -17.240  -7.295  0.00  0.00    +0.003 A 
ATOM     38  C   UNL     1     -10.239 -16.578  -8.292  0.00  0.00    +0.040 A 
ATOM     39  C   UNL     1     -10.046 -15.212  -8.211  0.00  0.00    +0.144 A 
ATOM     40  F   UNL     1      -9.370 -14.565  -9.186  0.00  0.00    -0.204 F 
ENDBRANCH  30  34
ENDBRANCH  23  24
ENDBRANCH  22  23
ENDBRANCH  21  22
ENDBRANCH   1  21
TORSDOF 9
