REMARK  Name = ZINC60058984
REMARK  9 active torsions:
REMARK  status: ('A' for Active; 'I' for Inactive)
REMARK    1  A    between atoms: C_1  and  C_2
REMARK    2  A    between atoms: C_2  and  C_3
REMARK    3  A    between atoms: C_2  and  C_4
REMARK    4  A    between atoms: C_4  and  C_6
REMARK    5  A    between atoms: C_4  and  N_14
REMARK    6  A    between atoms: C_9  and  O_12
REMARK    7  A    between atoms: O_12  and  C_13
REMARK    8  A    between atoms: C_15  and  C_17
REMARK    9  A    between atoms: C_17  and  N_18
REMARK                            x       y       z     vdW  Elec       q    Type
REMARK                         _______ _______ _______ _____ _____    ______ ____
ROOT
ATOM      1  N   UNL     1      -2.105  -0.148  -1.230  0.00  0.00    -0.307 N 
ATOM      2  C   UNL     1      -1.970  -0.910  -2.334  0.00  0.00    +0.233 C 
ATOM      3  O   UNL     1      -1.291  -1.915  -2.297  0.00  0.00    -0.274 OA
ATOM      4  H   UNL     1      -2.648   0.655  -1.260  0.00  0.00    +0.149 HD
ENDROOT
BRANCH   1   5
ATOM      5  C   UNL     1      -1.433  -0.534   0.013  0.00  0.00    +0.106 C 
BRANCH   5   6
ATOM      6  C   UNL     1      -2.175   0.051   1.187  0.00  0.00    -0.027 A 
ATOM      7  C   UNL     1      -2.690   1.332   1.110  0.00  0.00    +0.009 A 
ATOM      8  C   UNL     1      -3.371   1.870   2.185  0.00  0.00    +0.046 A 
ATOM      9  C   UNL     1      -3.538   1.124   3.343  0.00  0.00    +0.120 A 
ATOM     10  C   UNL     1      -3.020  -0.161   3.417  0.00  0.00    +0.046 A 
ATOM     11  C   UNL     1      -2.345  -0.697   2.338  0.00  0.00    +0.009 A 
BRANCH   9  12
ATOM     12  O   UNL     1      -4.206   1.651   4.402  0.00  0.00    -0.495 OA
ATOM     13  C   UNL     1      -4.340   0.826   5.561  0.00  0.00    +0.277 C 
ENDBRANCH   9  12
ENDBRANCH   5   6
BRANCH   5  15
ATOM     14  C   UNL     1      -0.019   1.526   0.010  0.00  0.00    +0.009 C 
ATOM     15  C   UNL     1       0.002  -0.004   0.002  0.00  0.00    +0.008 C 
ATOM     16  C   UNL     1       0.742  -0.511   1.242  0.00  0.00    +0.009 C 
ENDBRANCH   5  15
ENDBRANCH   1   5
BRANCH   2  17
ATOM     17  C   UNL     1      -2.661  -0.514  -3.613  0.00  0.00    +0.228 C 
BRANCH  17  18
ATOM     18  N   UNL     1      -2.359  -1.497  -4.656  0.00  0.00    -0.184 N 
ATOM     19  C   UNL     1      -1.216  -1.418  -5.413  0.00  0.00    +0.207 C 
ATOM     20  N   UNL     1      -0.627  -2.437  -5.930  0.00  0.00    -0.237 NA
ATOM     21  C   UNL     1      -0.999  -3.744  -5.830  0.00  0.00    +0.092 A 
ATOM     22  C   UNL     1      -0.104  -4.765  -6.162  0.00  0.00    +0.030 A 
ATOM     23  C   UNL     1      -0.494  -6.083  -6.055  0.00  0.00    +0.002 A 
ATOM     24  C   UNL     1      -1.767  -6.409  -5.621  0.00  0.00    +0.002 A 
ATOM     25  C   UNL     1      -2.664  -5.405  -5.290  0.00  0.00    +0.031 A 
ATOM     26  C   UNL     1      -2.282  -4.093  -5.394  0.00  0.00    +0.134 A 
ATOM     27  S   UNL     1      -3.384  -2.776  -4.981  0.00  0.00    +0.078 S 
ATOM     28  O   UNL     1      -4.019  -3.127  -3.760  0.00  0.00    -0.150 OA
ATOM     29  O   UNL     1      -4.103  -2.449  -6.162  0.00  0.00    -0.150 OA
ENDBRANCH  17  18
ENDBRANCH   2  17
TORSDOF 6
