REMARK  Name = ZINC21223000
REMARK  11 active torsions:
REMARK  status: ('A' for Active; 'I' for Inactive)
REMARK    1  A    between atoms: C_1  and  N_2
REMARK    2  A    between atoms: N_2  and  C_3
REMARK    3  A    between atoms: N_2  and  C_4
REMARK    4  A    between atoms: C_7  and  C_10
REMARK    5  A    between atoms: C_15  and  C_25
REMARK    6  A    between atoms: C_28  and  O_35
REMARK    7  A    between atoms: C_29  and  O_33
REMARK    8  A    between atoms: C_30  and  O_31
REMARK    9  A    between atoms: O_31  and  C_32
REMARK   10  A    between atoms: O_33  and  C_34
REMARK   11  A    between atoms: O_35  and  C_36
REMARK                            x       y       z     vdW  Elec       q    Type
REMARK                         _______ _______ _______ _____ _____    ______ ____
ROOT
ATOM      1  C   UNL     1      -0.538   1.098   2.360  0.00  0.00    +0.032 C 
ATOM      2  C   UNL     1      -1.983   0.620   2.183  0.00  0.00    +0.059 C 
ATOM      3  C   UNL     1      -2.555   1.165   0.885  0.00  0.00    +0.017 C 
ATOM      4  C   UNL     1      -1.761   1.359  -0.182  0.00  0.00    +0.037 C 
ATOM      5  C   UNL     1      -2.198   1.887  -1.527  0.00  0.00    +0.140 C 
ATOM      6  N   UNL     1      -3.633   1.947  -1.712  0.00  0.00    -0.331 N 
ATOM      7  C   UNL     1      -4.423   2.795  -0.938  0.00  0.00    +0.049 A 
ATOM      8  C   UNL     1      -5.066   3.890  -1.492  0.00  0.00    +0.025 A 
ATOM      9  C   UNL     1      -5.747   4.768  -0.666  0.00  0.00    +0.002 A 
ATOM     10  C   UNL     1      -5.787   4.556   0.700  0.00  0.00    +0.002 A 
ATOM     11  C   UNL     1      -5.163   3.451   1.254  0.00  0.00    +0.025 A 
ATOM     12  C   UNL     1      -4.497   2.562   0.427  0.00  0.00    +0.052 A 
ATOM     13  N   UNL     1      -3.890   1.409   0.910  0.00  0.00    -0.316 N 
ATOM     14  C   UNL     1      -0.377   1.076  -0.100  0.00  0.00    +0.163 C 
ATOM     15  O   UNL     1       0.313   1.237  -1.087  0.00  0.00    -0.292 OA
ATOM     16  C   UNL     1       0.268   0.584   1.161  0.00  0.00    +0.088 C 
ATOM     17  H   UNL     1      -4.115   1.317  -2.474  0.00  0.00    +0.147 HD
ATOM     18  H   UNL     1      -4.578   0.663   1.335  0.00  0.00    +0.152 HD
ENDROOT
BRANCH   1  22
ATOM     19  C   UNL     1       1.092  -0.473   5.984  0.00  0.00    +0.029 A 
ATOM     20  C   UNL     1       1.041   0.900   5.782  0.00  0.00    +0.023 A 
ATOM     21  C   UNL     1       0.513   1.404   4.609  0.00  0.00    +0.006 A 
ATOM     22  C   UNL     1       0.037   0.544   3.638  0.00  0.00    -0.043 A 
ATOM     23  C   UNL     1       0.081  -0.823   3.838  0.00  0.00    +0.006 A 
ATOM     24  C   UNL     1       0.612  -1.335   5.006  0.00  0.00    +0.023 A 
BRANCH  19  26
ATOM     25  C   UNL     1       2.015  -0.080   8.251  0.00  0.00    +0.129 C 
ATOM     26  N   UNL     1       1.626  -0.987   7.168  0.00  0.00    -0.336 N 
ATOM     27  C   UNL     1       1.796  -2.433   7.329  0.00  0.00    +0.129 C 
ENDBRANCH  19  26
ENDBRANCH   1  22
BRANCH   5  28
ATOM     28  C   UNL     1      -1.637   3.275  -1.701  0.00  0.00    +0.023 A 
ATOM     29  C   UNL     1      -1.175   3.975  -0.602  0.00  0.00    +0.013 A 
ATOM     30  C   UNL     1      -0.654   5.246  -0.757  0.00  0.00    +0.050 A 
ATOM     31  C   UNL     1      -0.603   5.828  -2.014  0.00  0.00    +0.165 A 
ATOM     32  C   UNL     1      -1.071   5.130  -3.121  0.00  0.00    +0.204 A 
ATOM     33  C   UNL     1      -1.589   3.850  -2.962  0.00  0.00    +0.170 A 
BRANCH  33  34
ATOM     34  O   UNL     1      -2.049   3.162  -4.041  0.00  0.00    -0.491 OA
ATOM     35  C   UNL     1      -1.131   2.278  -4.686  0.00  0.00    +0.277 C 
ENDBRANCH  33  34
BRANCH  32  36
ATOM     36  O   UNL     1      -1.023   5.697  -4.357  0.00  0.00    -0.488 OA
ATOM     37  C   UNL     1      -2.200   6.370  -4.808  0.00  0.00    +0.277 C 
ENDBRANCH  32  36
BRANCH  31  38
ATOM     38  O   UNL     1      -0.095   7.081  -2.165  0.00  0.00    -0.491 OA
ATOM     39  C   UNL     1       0.368   7.739  -0.984  0.00  0.00    +0.277 C 
ENDBRANCH  31  38
ENDBRANCH   5  28
TORSDOF 6
