REMARK  Name = ZINC19526694
REMARK  6 active torsions:
REMARK  status: ('A' for Active; 'I' for Inactive)
REMARK    1  A    between atoms: C_1  and  C_2
REMARK    2  A    between atoms: C_2  and  N_3
REMARK    3  A    between atoms: N_15  and  C_16
REMARK    4  A    between atoms: C_17  and  C_19
REMARK    5  A    between atoms: C_24  and  O_27
REMARK    6  A    between atoms: O_27  and  C_28
REMARK                            x       y       z     vdW  Elec       q    Type
REMARK                         _______ _______ _______ _____ _____    ______ ____
ROOT
ATOM      1  N   UNL     1      -0.077   0.042   0.183  0.00  0.00    -0.250 N 
ATOM      2  C   UNL     1      -1.230  -0.661  -0.142  0.00  0.00    +0.168 A 
ATOM      3  N   UNL     1      -1.428  -1.966  -0.148  0.00  0.00    -0.224 NA
ATOM      4  C   UNL     1      -2.595  -2.493  -0.485  0.00  0.00    +0.087 A 
ATOM      5  C   UNL     1      -3.592  -1.602  -0.832  0.00  0.00    +0.019 A 
ATOM      6  S   UNL     1      -2.774  -0.044  -0.652  0.00  0.00    -0.056 S 
ATOM      7  C   UNL     1      -4.982  -1.943  -1.229  0.00  0.00    +0.051 C 
ATOM      8  C   UNL     1      -5.049  -3.322  -1.895  0.00  0.00    +0.061 C 
ATOM      9  C   UNL     1      -4.141  -4.298  -1.197  0.00  0.00    +0.048 A 
ATOM     10  C   UNL     1      -2.980  -3.936  -0.553  0.00  0.00    +0.042 A 
ATOM     11  C   UNL     1      -2.370  -5.082  -0.062  0.00  0.00    +0.144 A 
ATOM     12  N   UNL     1      -3.131  -6.104  -0.377  0.00  0.00    -0.179 NA
ATOM     13  N   UNL     1      -4.249  -5.631  -1.083  0.00  0.00    -0.271 N 
ATOM     14  C   UNL     1      -5.345  -6.451  -1.604  0.00  0.00    +0.172 C 
ATOM     15  C   UNL     1       1.067  -0.622   0.441  0.00  0.00    +0.224 C 
ATOM     16  O   UNL     1       2.094  -0.008   0.640  0.00  0.00    -0.275 OA
ENDROOT
BRANCH  15  17
ATOM     17  C   UNL     1       1.071  -2.129   0.481  0.00  0.00    +0.078 C 
ATOM     18  C   UNL     1       0.975  -2.677  -0.944  0.00  0.00    +0.013 C 
ATOM     19  C   UNL     1       2.172  -2.186  -1.761  0.00  0.00    +0.003 C 
ATOM     20  C   UNL     1       3.468  -2.675  -1.113  0.00  0.00    +0.031 C 
ATOM     21  C   UNL     1       3.564  -2.127   0.312  0.00  0.00    +0.119 C 
ATOM     22  C   UNL     1       2.368  -2.618   1.130  0.00  0.00    +0.044 C 
BRANCH  21  23
ATOM     23  O   UNL     1       4.775  -2.584   0.918  0.00  0.00    -0.380 OA
ATOM     24  C   UNL     1       5.890  -1.714   0.716  0.00  0.00    +0.194 C 
ENDBRANCH  21  23
ENDBRANCH  15  17
BRANCH   1  26
ATOM     25  C   UNL     1      -0.584   1.947   1.631  0.00  0.00    +0.025 C 
ATOM     26  C   UNL     1      -0.104   1.505   0.247  0.00  0.00    +0.112 C 
ENDBRANCH   1  26
TORSDOF 3
