REMARK  Name = ZINC02361511
REMARK  2 active torsions:
REMARK  status: ('A' for Active; 'I' for Inactive)
REMARK    1  A    between atoms: C_4  and  C_7
REMARK    2  A    between atoms: C_15  and  C_16
REMARK                            x       y       z     vdW  Elec       q    Type
REMARK                         _______ _______ _______ _____ _____    ______ ____
ROOT
ATOM      1  C   UNL     1       3.896   8.756  -0.419  0.00  0.00    +0.172 A 
ATOM      2  N   UNL     1       3.012   9.719  -0.352  0.00  0.00    -0.128 NA
ATOM      3  N   UNL     1       1.825   9.227  -0.286  0.00  0.00    -0.121 NA
ATOM      4  C   UNL     1       1.887   7.928  -0.309  0.00  0.00    +0.204 A 
ATOM      5  N   UNL     1       3.201   7.543  -0.395  0.00  0.00    -0.235 N 
ATOM      6  C   UNL     1       3.491   6.237  -0.433  0.00  0.00    +0.273 A 
ATOM      7  O   UNL     1       4.642   5.850  -0.508  0.00  0.00    -0.266 OA
ATOM      8  C   UNL     1       2.369   5.285  -0.379  0.00  0.00    +0.081 A 
ATOM      9  C   UNL     1       2.387   3.928  -0.401  0.00  0.00    +0.029 C 
ATOM     10  S   UNL     1       0.977   6.402  -0.284  0.00  0.00    -0.044 S 
ENDROOT
BRANCH   9  11
ATOM     11  C   UNL     1       1.157   3.172  -0.130  0.00  0.00    -0.010 A 
ATOM     12  C   UNL     1       0.077   3.792   0.511  0.00  0.00    +0.009 A 
ATOM     13  C   UNL     1      -1.073   3.076   0.761  0.00  0.00    +0.001 A 
ATOM     14  C   UNL     1      -1.166   1.749   0.377  0.00  0.00    +0.001 A 
ATOM     15  C   UNL     1      -0.102   1.127  -0.252  0.00  0.00    +0.016 A 
ATOM     16  C   UNL     1       1.057   1.829  -0.511  0.00  0.00    +0.025 A 
ATOM     17 BR   UNL     1       2.508   0.978  -1.377  0.00  0.00    -0.050 Br
ENDBRANCH   9  11
BRANCH   1  21
ATOM     18  C   UNL     1       8.109   9.230  -0.669  0.00  0.00    +0.000 A 
ATOM     19  C   UNL     1       7.274  10.194  -1.206  0.00  0.00    +0.001 A 
ATOM     20  C   UNL     1       5.905  10.047  -1.128  0.00  0.00    +0.011 A 
ATOM     21  C   UNL     1       5.362   8.921  -0.506  0.00  0.00    +0.020 A 
ATOM     22  C   UNL     1       6.210   7.954   0.038  0.00  0.00    +0.011 A 
ATOM     23  C   UNL     1       7.577   8.112  -0.051  0.00  0.00    +0.001 A 
ENDBRANCH   1  21
TORSDOF 2
