REMARK  Name = ZINC35032459
REMARK  13 active torsions:
REMARK  status: ('A' for Active; 'I' for Inactive)
REMARK    1  A    between atoms: C_1  and  C_2
REMARK    2  A    between atoms: C_2  and  C_3
REMARK    3  A    between atoms: C_3  and  N_4
REMARK    4  A    between atoms: C_14  and  C_15
REMARK    5  A    between atoms: C_15  and  C_17
REMARK    6  A    between atoms: C_15  and  N_18
REMARK    7  A    between atoms: N_18  and  C_19
REMARK    8  A    between atoms: C_19  and  C_20
REMARK    9  A    between atoms: C_20  and  N_21
REMARK   10  A    between atoms: N_21  and  C_22
REMARK   11  A    between atoms: N_21  and  C_23
REMARK   12  A    between atoms: N_26  and  C_27
REMARK   13  A    between atoms: C_32  and  C_33
REMARK                            x       y       z     vdW  Elec       q    Type
REMARK                         _______ _______ _______ _____ _____    ______ ____
ROOT
ATOM      1  N   UNL     1      -1.179  -3.075   3.604  0.00  0.00    -0.277 N 
ATOM      2  C   UNL     1      -2.154  -3.030   4.533  0.00  0.00    +0.307 C 
ATOM      3  O   UNL     1      -3.171  -2.399   4.318  0.00  0.00    -0.252 OA
ATOM      4  N   UNL     1      -2.002  -3.683   5.702  0.00  0.00    -0.269 N 
ATOM      5  H   UNL     1      -1.163  -4.129   5.903  0.00  0.00    +0.156 HD
ENDROOT
BRANCH   4   6
ATOM      6  C   UNL     1      -3.052  -3.720   6.625  0.00  0.00    +0.038 A 
ATOM      7  C   UNL     1      -3.961  -2.672   6.688  0.00  0.00    +0.023 A 
ATOM      8  C   UNL     1      -4.997  -2.711   7.600  0.00  0.00    +0.002 A 
ATOM      9  C   UNL     1      -5.130  -3.793   8.451  0.00  0.00    +0.000 A 
ATOM     10  C   UNL     1      -4.227  -4.839   8.392  0.00  0.00    +0.005 A 
ATOM     11  C   UNL     1      -3.192  -4.808   7.477  0.00  0.00    -0.029 A 
ATOM     12  C   UNL     1      -2.212  -5.951   7.409  0.00  0.00    +0.045 C 
ENDBRANCH   4   6
BRANCH   1  13
ATOM     13  C   UNL     1      -1.345  -2.364   2.334  0.00  0.00    +0.141 C 
ATOM     14  C   UNL     1      -0.229  -1.329   2.179  0.00  0.00    +0.036 C 
BRANCH  13  25
ATOM     15  N   UNL     1      -2.397  -3.550   0.451  0.00  0.00    -0.295 N 
ATOM     16  C   UNL     1      -2.388  -4.420  -0.586  0.00  0.00    +0.262 A 
ATOM     17  O   UNL     1      -3.382  -4.606  -1.264  0.00  0.00    -0.267 OA
ATOM     18  C   UNL     1      -1.130  -5.129  -0.863  0.00  0.00    +0.065 A 
ATOM     19  C   UNL     1      -1.015  -6.044  -1.907  0.00  0.00    +0.015 A 
ATOM     20  C   UNL     1       0.188  -6.681  -2.123  0.00  0.00    +0.001 A 
ATOM     21  C   UNL     1       1.282  -6.418  -1.308  0.00  0.00    +0.002 A 
ATOM     22  C   UNL     1       1.189  -5.517  -0.271  0.00  0.00    +0.028 A 
ATOM     23  C   UNL     1      -0.020  -4.859  -0.033  0.00  0.00    +0.078 A 
ATOM     24  N   UNL     1      -0.156  -3.964   0.978  0.00  0.00    -0.232 NA
ATOM     25  C   UNL     1      -1.278  -3.348   1.195  0.00  0.00    +0.133 A 
BRANCH  15  26
ATOM     26  C   UNL     1      -3.624  -2.816   0.772  0.00  0.00    +0.126 C 
BRANCH  26  28
ATOM     27  C   UNL     1      -4.923  -0.730   0.325  0.00  0.00    +0.005 C 
ATOM     28  C   UNL     1      -3.594  -1.449   0.087  0.00  0.00    +0.018 C 
ENDBRANCH  26  28
ENDBRANCH  15  26
ENDBRANCH  13  25
ENDBRANCH   1  13
BRANCH   1  29
ATOM     29  C   UNL     1       0.046  -3.834   3.864  0.00  0.00    +0.091 C 
BRANCH  29  30
ATOM     30  C   UNL     1       1.079  -2.924   4.532  0.00  0.00    -0.060 C 
BRANCH  30  31
ATOM     31  N   UNL     1       2.307  -3.686   4.793  0.00  0.00    +0.377 N 
ATOM     32  C   UNL     1       3.338  -2.785   5.325  0.00  0.00    -0.097 C 
ATOM     33  C   UNL     1       2.029  -4.744   5.774  0.00  0.00    -0.097 C 
ATOM     34  H   UNL     1       2.634  -4.101   3.934  0.00  0.00    -0.083 HD
ENDBRANCH  30  31
ENDBRANCH  29  30
ENDBRANCH   1  29
TORSDOF 8
