REMARK  Name = ZINC41004716
REMARK  10 active torsions:
REMARK  status: ('A' for Active; 'I' for Inactive)
REMARK    1  A    between atoms: C_1  and  C_2
REMARK    2  A    between atoms: C_2  and  C_3
REMARK    3  A    between atoms: C_3  and  O_4
REMARK    4  A    between atoms: O_4  and  C_5
REMARK    5  A    between atoms: C_10  and  C_11
REMARK    6  A    between atoms: C_13  and  C_25
REMARK    7  A    between atoms: C_14  and  C_24
REMARK    8  A    between atoms: C_19  and  S_21
REMARK    9  A    between atoms: S_21  and  C_22
REMARK   10  A    between atoms: C_22  and  C_23
REMARK                            x       y       z     vdW  Elec       q    Type
REMARK                         _______ _______ _______ _____ _____    ______ ____
ROOT
ATOM      1  C   UNL     1       0.855  -4.742  -1.364  0.00  0.00    +0.181 C 
ATOM      2  C   UNL     1      -0.183  -5.581  -2.059  0.00  0.00    +0.060 C 
ATOM      3  C   UNL     1      -0.104  -6.916  -2.151  0.00  0.00    +0.018 C 
ATOM      4  N   UNL     1       0.935  -7.627  -1.601  0.00  0.00    -0.287 N 
ATOM      5  C   UNL     1       1.772  -6.957  -0.719  0.00  0.00    +0.219 A 
ATOM      6  N   UNL     1       1.743  -5.607  -0.592  0.00  0.00    -0.220 N 
ATOM      7  N   UNL     1       2.693  -5.276   0.373  0.00  0.00    -0.141 NA
ATOM      8  C   UNL     1       3.240  -6.405   0.769  0.00  0.00    +0.210 A 
ATOM      9  N   UNL     1       2.675  -7.422   0.101  0.00  0.00    -0.187 NA
ATOM     10  C   UNL     1      -1.191  -7.663  -2.880  0.00  0.00    +0.061 C 
ATOM     11  H   UNL     1       1.079  -8.561  -1.821  0.00  0.00    +0.155 HD
ENDROOT
BRANCH   1  17
ATOM     12  C   UNL     1       1.679  -2.597  -2.369  0.00  0.00    +0.126 A 
ATOM     13  C   UNL     1       2.423  -1.903  -3.311  0.00  0.00    +0.046 A 
ATOM     14  C   UNL     1       3.137  -2.593  -4.271  0.00  0.00    +0.004 A 
ATOM     15  C   UNL     1       3.110  -3.975  -4.293  0.00  0.00    +0.001 A 
ATOM     16  C   UNL     1       2.369  -4.670  -3.356  0.00  0.00    +0.009 A 
ATOM     17  C   UNL     1       1.658  -3.984  -2.390  0.00  0.00    +0.023 A 
BRANCH  12  18
ATOM     18  O   UNL     1       0.976  -1.920  -1.423  0.00  0.00    -0.492 OA
BRANCH  18  19
ATOM     19  C   UNL     1       1.044  -0.493  -1.462  0.00  0.00    +0.229 C 
BRANCH  19  21
ATOM     20  C   UNL     1       0.269   1.617  -0.370  0.00  0.00    +0.007 C 
ATOM     21  C   UNL     1       0.196   0.089  -0.329  0.00  0.00    +0.038 C 
ENDBRANCH  19  21
ENDBRANCH  18  19
ENDBRANCH  12  18
ENDBRANCH   1  17
BRANCH   2  22
ATOM     22  C   UNL     1      -1.296  -4.930  -2.643  0.00  0.00    +0.241 C 
ATOM     23  O   UNL     1      -2.183  -4.488  -1.937  0.00  0.00    -0.271 OA
ATOM     24  N   UNL     1      -1.373  -4.801  -3.983  0.00  0.00    -0.325 N 
ATOM     25  H   UNL     1      -0.667  -5.153  -4.546  0.00  0.00    +0.145 HD
ATOM     26  H   UNL     1      -2.136  -4.354  -4.383  0.00  0.00    +0.145 HD
ENDBRANCH   2  22
BRANCH   8  27
ATOM     27  S   UNL     1       4.508  -6.558   1.983  0.00  0.00    -0.085 S 
BRANCH  27  28
ATOM     28  C   UNL     1       4.818  -8.343   2.072  0.00  0.00    +0.074 C 
ATOM     29  C   UNL     1       5.913  -8.620   3.103  0.00  0.00    +0.016 C 
ENDBRANCH  27  28
ENDBRANCH   8  27
TORSDOF 7
