REMARK  Name = ZINC59262602
REMARK  10 active torsions:
REMARK  status: ('A' for Active; 'I' for Inactive)
REMARK    1  A    between atoms: C_4  and  N_7
REMARK    2  A    between atoms: N_7  and  C_8
REMARK    3  A    between atoms: C_8  and  C_9
REMARK    4  A    between atoms: C_12  and  S_20
REMARK    5  A    between atoms: N_13  and  C_14
REMARK    6  A    between atoms: S_20  and  C_21
REMARK    7  A    between atoms: C_21  and  C_22
REMARK    8  A    between atoms: C_22  and  C_23
REMARK    9  A    between atoms: N_25  and  C_26
REMARK   10  A    between atoms: C_30  and  N_32
REMARK                            x       y       z     vdW  Elec       q    Type
REMARK                         _______ _______ _______ _____ _____    ______ ____
ROOT
ATOM      1  C   UNL     1       5.071  -2.591  -0.060  0.00  0.00    +0.156 A 
ATOM      2  N   UNL     1       5.792  -2.834  -1.118  0.00  0.00    -0.132 NA
ATOM      3  N   UNL     1       6.965  -3.230  -0.773  0.00  0.00    -0.122 NA
ATOM      4  C   UNL     1       7.059  -3.261   0.536  0.00  0.00    +0.196 A 
ATOM      5  N   UNL     1       5.854  -2.849   1.034  0.00  0.00    -0.273 N 
ENDROOT
BRANCH   5   6
ATOM      6  C   UNL     1       5.494  -2.720   2.383  0.00  0.00    +0.050 A 
ATOM      7  C   UNL     1       5.195  -1.469   2.907  0.00  0.00    +0.026 A 
ATOM      8  C   UNL     1       4.840  -1.345   4.236  0.00  0.00    +0.002 A 
ATOM      9  C   UNL     1       4.784  -2.465   5.045  0.00  0.00    +0.000 A 
ATOM     10  C   UNL     1       5.081  -3.712   4.527  0.00  0.00    +0.002 A 
ATOM     11  C   UNL     1       5.430  -3.843   3.196  0.00  0.00    +0.026 A 
ENDBRANCH   5   6
BRANCH   1  12
ATOM     12  C   UNL     1       3.643  -2.108  -0.043  0.00  0.00    +0.178 C 
BRANCH  12  13
ATOM     13  N   UNL     1       3.623  -0.643  -0.045  0.00  0.00    -0.337 N 
ATOM     14  H   UNL     1       4.456  -0.147  -0.057  0.00  0.00    +0.147 HD
BRANCH  13  18
ATOM     15  C   UNL     1      -0.012   1.387  -0.005  0.00  0.00    +0.000 A 
ATOM     16  C   UNL     1       1.175   2.097  -0.020  0.00  0.00    +0.002 A 
ATOM     17  C   UNL     1       2.382   1.427  -0.033  0.00  0.00    +0.023 A 
ATOM     18  C   UNL     1       2.403   0.038  -0.031  0.00  0.00    +0.027 A 
ATOM     19  C   UNL     1       1.210  -0.672  -0.016  0.00  0.00    +0.023 A 
ATOM     20  C   UNL     1       0.006   0.005  -0.003  0.00  0.00    +0.002 A 
ENDBRANCH  13  18
ENDBRANCH  12  13
ENDBRANCH   1  12
BRANCH   4  21
ATOM     21  S   UNL     1       8.473  -3.738   1.473  0.00  0.00    -0.085 S 
BRANCH  21  22
ATOM     22  C   UNL     1       9.712  -4.156   0.216  0.00  0.00    +0.086 C 
BRANCH  22  23
ATOM     23  C   UNL     1      11.008  -4.593   0.903  0.00  0.00    +0.107 C 
BRANCH  23  24
ATOM     24  C   UNL     1      12.037  -4.940  -0.141  0.00  0.00    +0.218 C 
ATOM     25  O   UNL     1      11.762  -4.847  -1.318  0.00  0.00    -0.275 OA
ATOM     26  N   UNL     1      13.264  -5.354   0.234  0.00  0.00    -0.285 N 
ATOM     27  H   UNL     1      13.507  -5.364   1.173  0.00  0.00    +0.155 HD
BRANCH  26  28
ATOM     28  C   UNL     1      14.188  -5.769  -0.732  0.00  0.00    +0.036 A 
ATOM     29  C   UNL     1      15.068  -6.806  -0.453  0.00  0.00    +0.023 A 
ATOM     30  C   UNL     1      15.979  -7.213  -1.408  0.00  0.00    +0.004 A 
ATOM     31  C   UNL     1      16.015  -6.588  -2.641  0.00  0.00    +0.033 A 
ATOM     32  C   UNL     1      15.141  -5.554  -2.922  0.00  0.00    +0.128 A 
ATOM     33  C   UNL     1      14.224  -5.147  -1.973  0.00  0.00    +0.056 A 
BRANCH  32  34
ATOM     34  N   UNL     1      15.184  -4.888  -4.242  0.00  0.00    +0.056 N 
ATOM     35  O   UNL     1      15.983  -5.247  -5.075  0.00  0.00    -0.126 OA
ATOM     36  O   UNL     1      14.420  -3.983  -4.488  0.00  0.00    -0.126 OA
ENDBRANCH  32  34
ENDBRANCH  26  28
ENDBRANCH  23  24
ENDBRANCH  22  23
ENDBRANCH  21  22
ENDBRANCH   4  21
TORSDOF 10
