REMARK  Name = ZINC00666686
REMARK  8 active torsions:
REMARK  status: ('A' for Active; 'I' for Inactive)
REMARK    1  A    between atoms: C_1  and  C_2
REMARK    2  A    between atoms: C_3  and  C_25
REMARK    3  A    between atoms: C_4  and  C_10
REMARK    4  A    between atoms: C_13  and  O_20
REMARK    5  A    between atoms: O_20  and  C_21
REMARK    6  A    between atoms: C_21  and  C_22
REMARK    7  A    between atoms: C_22  and  C_23
REMARK    8  A    between atoms: C_22  and  C_24
REMARK                            x       y       z     vdW  Elec       q    Type
REMARK                         _______ _______ _______ _____ _____    ______ ____
ROOT
ATOM      1  C   UNL     1       2.462   1.704  -0.195  0.00  0.00    +0.061 C 
ATOM      2  C   UNL     1       1.101   2.340  -0.081  0.00  0.00    +0.017 C 
ATOM      3  C   UNL     1      -0.001   1.562  -0.121  0.00  0.00    +0.055 C 
ATOM      4  C   UNL     1      -1.350   2.244  -0.009  0.00  0.00    +0.140 C 
ATOM      5  N   UNL     1      -1.347   3.708   0.146  0.00  0.00    -0.315 N 
ATOM      6  C   UNL     1      -0.161   4.348   0.168  0.00  0.00    +0.135 C 
ATOM      7  S   UNL     1      -0.142   6.051   0.341  0.00  0.00    -0.019 S 
ATOM      8  N   UNL     1       1.003   3.695   0.060  0.00  0.00    -0.300 N 
ATOM      9  H   UNL     1      -2.179   4.201   0.226  0.00  0.00    +0.149 HD
ATOM     10  H   UNL     1       1.823   4.213   0.084  0.00  0.00    +0.154 HD
ENDROOT
BRANCH   4  11
ATOM     11  C   UNL     1      -2.146   1.904  -1.243  0.00  0.00    -0.015 A 
ATOM     12  C   UNL     1      -2.107   2.726  -2.329  0.00  0.00    +0.010 A 
ATOM     13  C   UNL     1      -2.834   2.431  -3.478  0.00  0.00    +0.046 A 
ATOM     14  C   UNL     1      -3.609   1.308  -3.551  0.00  0.00    +0.128 A 
ATOM     15  C   UNL     1      -3.672   0.435  -2.446  0.00  0.00    +0.024 A 
ATOM     16  C   UNL     1      -2.925   0.736  -1.280  0.00  0.00    -0.009 A 
ATOM     17  C   UNL     1      -2.992  -0.132  -0.176  0.00  0.00    +0.009 A 
ATOM     18  C   UNL     1      -3.763  -1.251  -0.245  0.00  0.00    +0.001 A 
ATOM     19  C   UNL     1      -4.493  -1.549  -1.394  0.00  0.00    +0.001 A 
ATOM     20  C   UNL     1      -4.456  -0.730  -2.480  0.00  0.00    +0.012 A 
BRANCH  14  21
ATOM     21  O   UNL     1      -4.313   1.034  -4.679  0.00  0.00    -0.491 OA
BRANCH  21  22
ATOM     22  C   UNL     1      -4.199   1.966  -5.757  0.00  0.00    +0.232 C 
BRANCH  22  23
ATOM     23  C   UNL     1      -5.056   1.494  -6.933  0.00  0.00    +0.020 C 
ATOM     24  C   UNL     1      -6.532   1.519  -6.530  0.00  0.00    +0.010 C 
ATOM     25  C   UNL     1      -4.838   2.423  -8.129  0.00  0.00    +0.010 C 
ENDBRANCH  22  23
ENDBRANCH  21  22
ENDBRANCH  14  21
ENDBRANCH   4  11
BRANCH   3  26
ATOM     26  C   UNL     1       0.100   0.157  -0.268  0.00  0.00    +0.241 C 
ATOM     27  O   UNL     1      -0.023  -0.567   0.703  0.00  0.00    -0.271 OA
ATOM     28  N   UNL     1       0.332  -0.378  -1.483  0.00  0.00    -0.326 N 
ATOM     29  H   UNL     1       0.499   0.200  -2.244  0.00  0.00    +0.145 HD
ATOM     30  H   UNL     1       0.331  -1.342  -1.597  0.00  0.00    +0.145 HD
ENDBRANCH   3  26
TORSDOF 5
