REMARK  Name = ZINC17091996
REMARK  9 active torsions:
REMARK  status: ('A' for Active; 'I' for Inactive)
REMARK    1  A    between atoms: C_1  and  C_2
REMARK    2  A    between atoms: C_2  and  C_3
REMARK    3  A    between atoms: C_4  and  C_16
REMARK    4  A    between atoms: N_6  and  C_9
REMARK    5  A    between atoms: C_7  and  O_8
REMARK    6  A    between atoms: C_16  and  C_17
REMARK    7  A    between atoms: C_17  and  O_19
REMARK    8  A    between atoms: O_19  and  C_20
REMARK    9  A    between atoms: N_21  and  C_22
REMARK                            x       y       z     vdW  Elec       q    Type
REMARK                         _______ _______ _______ _____ _____    ______ ____
ROOT
ATOM      1  C   UNL     1       0.141  -0.740   1.261  0.00  0.00    +0.081 A 
ATOM      2  C   UNL     1      -0.903  -1.212   2.093  0.00  0.00    +0.087 A 
ATOM      3  N   UNL     1      -0.366  -1.816   3.116  0.00  0.00    -0.167 NA
ATOM      4  N   UNL     1       1.027  -1.766   3.001  0.00  0.00    -0.200 N 
ATOM      5  C   UNL     1       1.339  -1.112   1.861  0.00  0.00    +0.225 A 
ENDROOT
BRANCH   4   6
ATOM      6  C   UNL     1       1.945  -2.308   3.912  0.00  0.00    +0.069 A 
ATOM      7  C   UNL     1       3.139  -2.850   3.457  0.00  0.00    +0.031 A 
ATOM      8  C   UNL     1       4.042  -3.383   4.356  0.00  0.00    +0.040 A 
ATOM      9  C   UNL     1       3.756  -3.378   5.711  0.00  0.00    +0.124 A 
ATOM     10  C   UNL     1       2.565  -2.839   6.167  0.00  0.00    +0.040 A 
ATOM     11  C   UNL     1       1.662  -2.300   5.271  0.00  0.00    +0.031 A 
ATOM     12  F   UNL     1       4.640  -3.901   6.589  0.00  0.00    -0.205 F 
ENDBRANCH   4   6
BRANCH   1  14
ATOM     13  C   UNL     1      -0.070   1.503   0.013  0.00  0.00    +0.066 C 
ATOM     14  C   UNL     1      -0.012  -0.003   0.003  0.00  0.00    +0.053 C 
ATOM     15  N   UNL     1      -0.098  -0.652  -1.127  0.00  0.00    -0.252 NA
BRANCH  15  16
ATOM     16  C   UNL     1      -0.119   0.035  -2.312  0.00  0.00    +0.067 A 
ATOM     17  C   UNL     1       0.915   0.919  -2.627  0.00  0.00    +0.029 A 
ATOM     18  C   UNL     1       0.890   1.608  -3.822  0.00  0.00    +0.025 A 
ATOM     19  C   UNL     1      -0.158   1.426  -4.708  0.00  0.00    +0.076 A 
ATOM     20  C   UNL     1      -1.188   0.550  -4.402  0.00  0.00    +0.144 A 
ATOM     21  C   UNL     1      -1.171  -0.150  -3.211  0.00  0.00    +0.067 A 
ATOM     22  F   UNL     1      -2.208   0.377  -5.271  0.00  0.00    -0.204 F 
ATOM     23 CL   UNL     1      -0.182   2.298  -6.209  0.00  0.00    -0.081 Cl
ENDBRANCH  15  16
ENDBRANCH   1  14
BRANCH   5  24
ATOM     24  O   UNL     1       2.585  -0.862   1.393  0.00  0.00    -0.492 OA
ATOM     25  H   UNL     1       2.961  -0.027   1.702  0.00  0.00    +0.294 HD
ENDBRANCH   5  24
BRANCH   2  26
ATOM     26  C   UNL     1      -2.379  -1.045   1.839  0.00  0.00    +0.178 C 
BRANCH  26  27
ATOM     27  C   UNL     1      -2.886  -2.216   1.038  0.00  0.00    +0.313 C 
ATOM     28  O   UNL     1      -2.127  -3.096   0.707  0.00  0.00    -0.250 OA
BRANCH  27  29
ATOM     29  O   UNL     1      -4.182  -2.282   0.693  0.00  0.00    -0.468 OA
ATOM     30  C   UNL     1      -4.594  -3.420  -0.067  0.00  0.00    +0.280 C 
ENDBRANCH  27  29
ENDBRANCH  26  27
ENDBRANCH   2  26
TORSDOF 7
