REMARK  Name = ZINC32200704
REMARK  11 active torsions:
REMARK  status: ('A' for Active; 'I' for Inactive)
REMARK    1  A    between atoms: C_1  and  N_2
REMARK    2  A    between atoms: N_2  and  C_3
REMARK    3  A    between atoms: N_2  and  C_4
REMARK    4  A    between atoms: C_4  and  C_6
REMARK    5  A    between atoms: C_4  and  C_25
REMARK    6  A    between atoms: C_6  and  N_7
REMARK    7  A    between atoms: C_8  and  C_10
REMARK    8  A    between atoms: C_11  and  C_12
REMARK    9  A    between atoms: C_15  and  N_18
REMARK   10  A    between atoms: C_28  and  O_31
REMARK   11  A    between atoms: O_31  and  C_32
REMARK                            x       y       z     vdW  Elec       q    Type
REMARK                         _______ _______ _______ _____ _____    ______ ____
ROOT
ATOM      1  N   UNL     1      -1.302   1.940  -0.372  0.00  0.00    -0.313 N 
ATOM      2  C   UNL     1      -0.105   1.331  -0.479  0.00  0.00    +0.237 C 
ATOM      3  O   UNL     1      -0.010   0.135  -0.272  0.00  0.00    -0.271 OA
ATOM      4  H   UNL     1      -1.388   3.021  -0.558  0.00  0.00    +0.149 HD
ENDROOT
BRANCH   2   5
ATOM      5  C   UNL     1       1.079   2.105  -0.848  0.00  0.00    +0.068 C 
ATOM      6  C   UNL     1       2.278   1.493  -0.961  0.00  0.00    +0.013 C 
BRANCH   6   7
ATOM      7  C   UNL     1       3.468   2.271  -1.333  0.00  0.00    -0.025 A 
ATOM      8  C   UNL     1       3.360   3.646  -1.576  0.00  0.00    +0.010 A 
ATOM      9  C   UNL     1       4.473   4.369  -1.917  0.00  0.00    +0.025 A 
ATOM     10  C   UNL     1       5.708   3.737  -2.033  0.00  0.00    +0.051 A 
ATOM     11  C   UNL     1       5.819   2.369  -1.797  0.00  0.00    +0.025 A 
ATOM     12  C   UNL     1       4.712   1.639  -1.450  0.00  0.00    +0.010 A 
BRANCH  10  13
ATOM     13  N   UNL     1       6.835   4.473  -2.385  0.00  0.00    -0.207 N 
ATOM     14  C   UNL     1       8.239   4.154  -2.071  0.00  0.00    +0.133 C 
ATOM     15  C   UNL     1       9.181   4.711  -3.158  0.00  0.00    +0.045 C 
ATOM     16  C   UNL     1       8.687   6.167  -3.409  0.00  0.00    +0.190 C 
ATOM     17  S   UNL     1       6.873   5.910  -3.248  0.00  0.00    +0.046 S 
ATOM     18  O   UNL     1       6.293   5.611  -4.510  0.00  0.00    -0.155 OA
ATOM     19  O   UNL     1       6.301   6.885  -2.386  0.00  0.00    -0.155 OA
ENDBRANCH  10  13
ENDBRANCH   6   7
ENDBRANCH   2   5
BRANCH   1  20
ATOM     20  C   UNL     1      -2.489   1.163  -0.007  0.00  0.00    +0.094 C 
BRANCH  20  21
ATOM     21  C   UNL     1      -3.671   2.110   0.209  0.00  0.00    -0.021 C 
BRANCH  21  22
ATOM     22  C   UNL     1      -4.909   1.307   0.516  0.00  0.00    -0.059 A 
ATOM     23  C   UNL     1      -5.069   0.735   1.764  0.00  0.00    +0.005 A 
ATOM     24  C   UNL     1      -6.205   0.003   2.050  0.00  0.00    +0.046 A 
ATOM     25  C   UNL     1      -7.181  -0.169   1.078  0.00  0.00    +0.120 A 
ATOM     26  C   UNL     1      -7.015   0.401  -0.176  0.00  0.00    +0.046 A 
ATOM     27  C   UNL     1      -5.880   1.137  -0.454  0.00  0.00    +0.005 A 
BRANCH  25  28
ATOM     28  O   UNL     1      -8.296  -0.894   1.354  0.00  0.00    -0.495 OA
ATOM     29  C   UNL     1      -8.399  -1.451   2.666  0.00  0.00    +0.277 C 
ENDBRANCH  25  28
ENDBRANCH  21  22
BRANCH  21  31
ATOM     30  C   UNL     1      -2.448   2.381   2.281  0.00  0.00    -0.096 C 
ATOM     31  N   UNL     1      -3.380   3.009   1.334  0.00  0.00    +0.382 N 
ATOM     32  C   UNL     1      -2.859   4.297   0.858  0.00  0.00    -0.096 C 
ATOM     33  H   UNL     1      -4.323   3.201   1.866  0.00  0.00    -0.082 HD
ENDBRANCH  21  31
ENDBRANCH  20  21
ENDBRANCH   1  20
TORSDOF 8
