REMARK  Name = ZINC11883231
REMARK  11 active torsions:
REMARK  status: ('A' for Active; 'I' for Inactive)
REMARK    1  A    between atoms: C_1  and  C_2
REMARK    2  A    between atoms: C_2  and  O_3
REMARK    3  A    between atoms: O_3  and  C_4
REMARK    4  A    between atoms: C_4  and  C_6
REMARK    5  A    between atoms: C_7  and  C_35
REMARK    6  A    between atoms: C_15  and  C_17
REMARK    7  A    between atoms: C_20  and  S_23
REMARK    8  A    between atoms: S_23  and  N_26
REMARK    9  A    between atoms: N_26  and  C_27
REMARK   10  A    between atoms: N_26  and  C_28
REMARK   11  A    between atoms: C_28  and  C_29
REMARK                            x       y       z     vdW  Elec       q    Type
REMARK                         _______ _______ _______ _____ _____    ______ ____
ROOT
ATOM      1  C   UNL     1       0.418   6.216   0.030  0.00  0.00    +0.102 A 
ATOM      2  C   UNL     1      -0.687   5.387   0.036  0.00  0.00    -0.013 A 
ATOM      3  C   UNL     1      -0.501   4.022   0.028  0.00  0.00    +0.052 A 
ATOM      4  C   UNL     1       0.821   3.538   0.013  0.00  0.00    +0.119 A 
ATOM      5  S   UNL     1       1.771   5.055   0.012  0.00  0.00    -0.061 S 
ATOM      6  N   UNL     1       0.996   2.223   0.004  0.00  0.00    -0.217 NA
ATOM      7  C   UNL     1      -0.017   1.380   0.010  0.00  0.00    +0.166 A 
ATOM      8  S   UNL     1      -1.419   2.484   0.021  0.00  0.00    -0.051 S 
ATOM      9  N   UNL     1       0.002  -0.004   0.002  0.00  0.00    -0.261 N 
ATOM     10  C   UNL     1       1.178  -0.662  -0.012  0.00  0.00    +0.250 C 
ATOM     11  O   UNL     1       2.223  -0.040  -0.018  0.00  0.00    -0.270 OA
ATOM     12  C   UNL     1      -2.078   5.968   0.052  0.00  0.00    +0.046 C 
ATOM     13  H   UNL     1      -0.831  -0.500   0.007  0.00  0.00    +0.157 HD
ENDROOT
BRANCH  10  14
ATOM     14  C   UNL     1       1.198  -2.140  -0.020  0.00  0.00    +0.037 A 
ATOM     15  C   UNL     1       0.001  -2.857  -0.007  0.00  0.00    +0.015 A 
ATOM     16  C   UNL     1       0.027  -4.236  -0.020  0.00  0.00    +0.029 A 
ATOM     17  C   UNL     1       1.236  -4.909  -0.034  0.00  0.00    +0.106 A 
ATOM     18  C   UNL     1       2.426  -4.204  -0.042  0.00  0.00    +0.029 A 
ATOM     19  C   UNL     1       2.415  -2.824  -0.035  0.00  0.00    +0.015 A 
BRANCH  17  20
ATOM     20  S   UNL     1       1.260  -6.670  -0.043  0.00  0.00    +0.061 S 
ATOM     21  O   UNL     1       0.015  -7.091  -0.584  0.00  0.00    -0.153 OA
ATOM     22  O   UNL     1       2.505  -7.057  -0.607  0.00  0.00    -0.153 OA
BRANCH  20  23
ATOM     23  N   UNL     1       1.281  -7.168   1.537  0.00  0.00    -0.177 NA
ATOM     24  C   UNL     1       0.022  -7.405   2.248  0.00  0.00    +0.131 C 
BRANCH  23  25
ATOM     25  C   UNL     1       2.560  -7.370   2.224  0.00  0.00    +0.140 C 
BRANCH  25  26
ATOM     26  C   UNL     1       2.929  -6.104   2.998  0.00  0.00    +0.134 C 
ATOM     27  C   UNL     1       4.272  -6.306   3.725  0.00  0.00    +0.035 C 
ATOM     28  C   UNL     1       5.179  -5.183   3.166  0.00  0.00    +0.031 C 
ATOM     29  C   UNL     1       4.141  -4.166   2.627  0.00  0.00    +0.160 C 
ATOM     30  O   UNL     1       3.097  -5.005   2.087  0.00  0.00    -0.375 OA
ENDBRANCH  25  26
ENDBRANCH  23  25
ENDBRANCH  20  23
ENDBRANCH  17  20
ENDBRANCH  10  14
BRANCH   1  31
ATOM     31  C   UNL     1       0.465   7.632   0.038  0.00  0.00    +0.346 C 
ATOM     32  O   UNL     1      -0.568   8.275   0.051  0.00  0.00    -0.244 OA
BRANCH  31  33
ATOM     33  O   UNL     1       1.655   8.269   0.030  0.00  0.00    -0.461 OA
BRANCH  33  35
ATOM     34  C   UNL     1       3.060  10.235   0.028  0.00  0.00    +0.048 C 
ATOM     35  C   UNL     1       1.627   9.697   0.038  0.00  0.00    +0.229 C 
ENDBRANCH  33  35
ENDBRANCH  31  33
ENDBRANCH   1  31
TORSDOF 8
