REMARK  Name = ZINC21045796
REMARK  8 active torsions:
REMARK  status: ('A' for Active; 'I' for Inactive)
REMARK    1  A    between atoms: C_1  and  C_2
REMARK    2  A    between atoms: C_2  and  C_3
REMARK    3  A    between atoms: C_4  and  C_31
REMARK    4  A    between atoms: N_10  and  C_19
REMARK    5  A    between atoms: C_11  and  C_13
REMARK    6  A    between atoms: C_19  and  C_20
REMARK    7  A    between atoms: N_22  and  C_23
REMARK    8  A    between atoms: C_26  and  C_30
REMARK                            x       y       z     vdW  Elec       q    Type
REMARK                         _______ _______ _______ _____ _____    ______ ____
ROOT
ATOM      1  C   UNL     1      -0.965   3.189   1.609  0.00  0.00    -0.034 A 
ATOM      2  C   UNL     1      -0.864   1.956   1.058  0.00  0.00    -0.010 A 
ATOM      3  S   UNL     1      -1.718   0.945   2.259  0.00  0.00    -0.099 S 
ATOM      4  C   UNL     1      -2.147   2.234   3.395  0.00  0.00    -0.016 A 
ATOM      5  C   UNL     1      -1.632   3.357   2.819  0.00  0.00    -0.037 A 
ATOM      6  C   UNL     1      -1.807   4.704   3.517  0.00  0.00    +0.018 C 
ATOM      7  C   UNL     1      -2.934   4.567   4.544  0.00  0.00    -0.072 C 
ATOM      8  N   UNL     1      -2.687   3.413   5.420  0.00  0.00    +0.393 N 
ATOM      9  C   UNL     1      -2.893   2.150   4.685  0.00  0.00    +0.001 C 
ATOM     10  C   UNL     1      -0.200   1.543  -0.230  0.00  0.00    +0.052 C 
ATOM     11  H   UNL     1      -1.639   3.455   5.752  0.00  0.00    -0.080 HD
ENDROOT
BRANCH   9  12
ATOM     12  C   UNL     1      -2.369   0.996   5.501  0.00  0.00    -0.056 A 
ATOM     13  C   UNL     1      -1.198   1.136   6.224  0.00  0.00    +0.002 A 
ATOM     14  C   UNL     1      -0.720   0.080   6.976  0.00  0.00    +0.000 A 
ATOM     15  C   UNL     1      -1.406  -1.120   6.997  0.00  0.00    +0.000 A 
ATOM     16  C   UNL     1      -2.574  -1.262   6.271  0.00  0.00    +0.000 A 
ATOM     17  C   UNL     1      -3.055  -0.204   5.522  0.00  0.00    +0.002 A 
ENDBRANCH   9  12
BRANCH   1  19
ATOM     18  C   UNL     1      -1.392   4.997  -0.033  0.00  0.00    +0.009 C 
ATOM     19  C   UNL     1      -0.359   4.378   0.910  0.00  0.00    +0.033 C 
ENDBRANCH   1  19
BRANCH   8  20
ATOM     20  C   UNL     1      -3.536   3.470   6.617  0.00  0.00    +0.020 C 
BRANCH  20  21
ATOM     21  C   UNL     1      -4.984   3.529   6.205  0.00  0.00    +0.201 C 
ATOM     22  O   UNL     1      -5.286   3.423   5.035  0.00  0.00    -0.278 OA
ATOM     23  N   UNL     1      -5.944   3.699   7.136  0.00  0.00    -0.286 N 
ATOM     24  H   UNL     1      -5.667   3.868   8.187  0.00  0.00    +0.155 HD
BRANCH  23  25
ATOM     25  C   UNL     1      -7.293   3.660   6.765  0.00  0.00    +0.052 A 
ATOM     26  C   UNL     1      -7.686   4.132   5.520  0.00  0.00    +0.025 A 
ATOM     27  C   UNL     1      -9.018   4.087   5.155  0.00  0.00    +0.005 A 
ATOM     28  C   UNL     1      -9.960   3.583   6.032  0.00  0.00    -0.049 A 
ATOM     29  C   UNL     1      -9.574   3.118   7.275  0.00  0.00    +0.025 A 
ATOM     30  C   UNL     1      -8.242   3.154   7.645  0.00  0.00    +0.062 A 
ATOM     31 CL   UNL     1      -7.757   2.570   9.206  0.00  0.00    -0.082 Cl
ATOM     32  C   UNL     1     -11.413   3.542   5.633  0.00  0.00    +0.044 C 
ENDBRANCH  23  25
ENDBRANCH  20  21
ENDBRANCH   8  20
TORSDOF 5
