REMARK  Name = ZINC58983552
REMARK  11 active torsions:
REMARK  status: ('A' for Active; 'I' for Inactive)
REMARK    1  A    between atoms: C_1  and  C_2
REMARK    2  A    between atoms: C_12  and  C_15
REMARK    3  A    between atoms: C_15  and  N_16
REMARK    4  A    between atoms: C_17  and  C_19
REMARK    5  A    between atoms: C_19  and  C_21
REMARK    6  A    between atoms: C_19  and  N_22
REMARK    7  A    between atoms: C_23  and  C_25
REMARK    8  A    between atoms: C_28  and  C_31
REMARK    9  A    between atoms: C_31  and  C_32
REMARK   10  A    between atoms: C_31  and  C_33
REMARK   11  A    between atoms: C_31  and  C_34
REMARK                            x       y       z     vdW  Elec       q    Type
REMARK                         _______ _______ _______ _____ _____    ______ ____
ROOT
ATOM      1  N   UNL     1      -3.369  -5.796  -4.369  0.00  0.00    -0.310 N 
ATOM      2  C   UNL     1      -3.827  -6.645  -5.310  0.00  0.00    +0.233 C 
ATOM      3  O   UNL     1      -4.914  -7.167  -5.179  0.00  0.00    -0.274 OA
ATOM      4  H   UNL     1      -2.500  -5.378  -4.474  0.00  0.00    +0.149 HD
ENDROOT
BRANCH   2   5
ATOM      5  C   UNL     1      -2.989  -6.946  -6.526  0.00  0.00    +0.156 C 
ATOM      6  C   UNL     1      -1.659  -7.562  -6.087  0.00  0.00    +0.038 C 
BRANCH   5   7
ATOM      7  N   UNL     1      -3.702  -7.889  -7.390  0.00  0.00    -0.300 N 
ATOM      8  C   UNL     1      -3.434  -7.929  -8.710  0.00  0.00    +0.245 C 
ATOM      9  O   UNL     1      -2.599  -7.183  -9.184  0.00  0.00    -0.270 OA
ATOM     10  H   UNL     1      -4.368  -8.485  -7.013  0.00  0.00    +0.150 HD
BRANCH   8  11
ATOM     11  C   UNL     1      -4.154  -8.881  -9.583  0.00  0.00    +0.037 A 
ATOM     12  C   UNL     1      -5.117  -9.735  -9.043  0.00  0.00    +0.013 A 
ATOM     13  C   UNL     1      -5.786 -10.620  -9.863  0.00  0.00    +0.005 A 
ATOM     14  C   UNL     1      -5.504 -10.663 -11.217  0.00  0.00    -0.042 A 
ATOM     15  C   UNL     1      -4.550  -9.819 -11.758  0.00  0.00    +0.005 A 
ATOM     16  C   UNL     1      -3.878  -8.925 -10.950  0.00  0.00    +0.013 A 
BRANCH  14  17
ATOM     17  C   UNL     1      -6.238 -11.633 -12.106  0.00  0.00    -0.013 C 
ATOM     18  C   UNL     1      -7.739 -11.342 -12.048  0.00  0.00    +0.015 C 
ATOM     19  C   UNL     1      -5.744 -11.479 -13.546  0.00  0.00    +0.015 C 
ATOM     20  C   UNL     1      -5.977 -13.062 -11.627  0.00  0.00    +0.015 C 
ENDBRANCH  14  17
ENDBRANCH   8  11
ENDBRANCH   5   7
ENDBRANCH   2   5
BRANCH   1  21
ATOM     21  C   UNL     1      -4.185  -5.503  -3.188  0.00  0.00    +0.141 C 
BRANCH  21  32
ATOM     22  C   UNL     1       0.024   1.508  -0.007  0.00  0.00    +0.039 C 
ATOM     23  C   UNL     1       0.027  -0.022  -0.001  0.00  0.00    +0.132 C 
ATOM     24  C   UNL     1      -1.417  -0.537   0.001  0.00  0.00    +0.137 C 
ATOM     25  N   UNL     1      -1.389  -1.995   0.196  0.00  0.00    -0.312 N 
ATOM     26  C   UNL     1      -0.598  -2.529   1.316  0.00  0.00    +0.134 C 
ATOM     27  C   UNL     1       0.806  -1.917   1.250  0.00  0.00    +0.179 C 
ATOM     28  O   UNL     1       0.698  -0.493   1.171  0.00  0.00    -0.374 OA
ATOM     29  C   UNL     1      -2.091  -2.844  -0.652  0.00  0.00    +0.099 A 
ATOM     30  C   UNL     1      -2.927  -2.308  -1.627  0.00  0.00    +0.042 A 
ATOM     31  C   UNL     1      -3.619  -3.164  -2.464  0.00  0.00    +0.010 A 
ATOM     32  C   UNL     1      -3.451  -4.533  -2.299  0.00  0.00    -0.014 A 
ATOM     33  C   UNL     1      -2.604  -4.995  -1.311  0.00  0.00    +0.089 A 
ATOM     34  N   UNL     1      -1.953  -4.155  -0.530  0.00  0.00    -0.349 N 
ATOM     35  H   UNL     1      -1.361  -4.507   0.154  0.00  0.00    +0.167 HD
ENDBRANCH  21  32
ENDBRANCH   1  21
TORSDOF 6
