REMARK  Name = ZINC15902414
REMARK  7 active torsions:
REMARK  status: ('A' for Active; 'I' for Inactive)
REMARK    1  A    between atoms: C_1  and  C_2
REMARK    2  A    between atoms: C_5  and  S_25
REMARK    3  A    between atoms: C_7  and  C_8
REMARK    4  A    between atoms: N_10  and  N_11
REMARK    5  A    between atoms: C_12  and  C_14
REMARK    6  A    between atoms: C_14  and  C_15
REMARK    7  A    between atoms: S_25  and  N_28
REMARK                            x       y       z     vdW  Elec       q    Type
REMARK                         _______ _______ _______ _____ _____    ______ ____
ROOT
ATOM      1  C   UNL     1       6.588  -0.146  -2.660  0.00  0.00    +0.260 C 
ATOM      2  O   UNL     1       6.990  -0.512  -3.747  0.00  0.00    -0.269 OA
ATOM      3  N   UNL     1       7.168   0.903  -2.044  0.00  0.00    -0.230 N 
ATOM      4  H   UNL     1       6.846   1.195  -1.177  0.00  0.00    +0.173 HD
ENDROOT
BRANCH   1  11
ATOM      5  C   UNL     1       5.179  -2.219  -4.106  0.00  0.00    +0.044 C 
ATOM      6  C   UNL     1       4.775  -1.855  -2.700  0.00  0.00    -0.038 A 
ATOM      7  C   UNL     1       3.726  -2.511  -2.090  0.00  0.00    +0.006 A 
ATOM      8  C   UNL     1       3.357  -2.181  -0.798  0.00  0.00    +0.029 A 
ATOM      9  C   UNL     1       4.031  -1.185  -0.112  0.00  0.00    +0.106 A 
ATOM     10  C   UNL     1       5.082  -0.522  -0.711  0.00  0.00    +0.042 A 
ATOM     11  C   UNL     1       5.462  -0.853  -2.012  0.00  0.00    +0.043 A 
BRANCH   9  12
ATOM     12  S   UNL     1       3.550  -0.769   1.531  0.00  0.00    +0.061 S 
ATOM     13  O   UNL     1       4.688  -0.189   2.153  0.00  0.00    -0.153 OA
ATOM     14  O   UNL     1       2.890  -1.910   2.062  0.00  0.00    -0.153 OA
BRANCH  12  15
ATOM     15  N   UNL     1       2.410   0.427   1.419  0.00  0.00    -0.177 NA
ATOM     16  C   UNL     1       0.982   0.094   1.323  0.00  0.00    +0.109 C 
ATOM     17  C   UNL     1       0.395   0.792   0.092  0.00  0.00    +0.017 C 
ATOM     18  C   UNL     1       0.686   2.292   0.174  0.00  0.00    +0.003 C 
ATOM     19  C   UNL     1       2.200   2.520   0.182  0.00  0.00    +0.017 C 
ATOM     20  C   UNL     1       2.807   1.841   1.414  0.00  0.00    +0.109 C 
ENDBRANCH  12  15
ENDBRANCH   9  12
ENDBRANCH   1  11
BRANCH   3  21
ATOM     21  N   UNL     1       8.234   1.573  -2.658  0.00  0.00    -0.234 N 
ATOM     22  C   UNL     1       8.814   2.623  -2.042  0.00  0.00    +0.230 C 
ATOM     23  O   UNL     1       8.412   2.987  -0.957  0.00  0.00    -0.274 OA
ATOM     24  H   UNL     1       8.555   1.282  -3.525  0.00  0.00    +0.173 HD
BRANCH  22  25
ATOM     25  C   UNL     1       9.961   3.343  -2.702  0.00  0.00    +0.104 C 
BRANCH  25  26
ATOM     26  C   UNL     1      10.432   4.486  -1.800  0.00  0.00    -0.020 C 
ATOM     27  C   UNL     1       9.278   5.465  -1.573  0.00  0.00    +0.011 C 
ATOM     28  C   UNL     1       9.749   6.608  -0.671  0.00  0.00    -0.010 C 
ATOM     29  C   UNL     1      10.914   7.339  -1.341  0.00  0.00    +0.007 C 
ATOM     30  C   UNL     1      12.068   6.361  -1.568  0.00  0.00    -0.010 C 
ATOM     31  C   UNL     1      11.597   5.218  -2.470  0.00  0.00    +0.011 C 
ATOM     32  C   UNL     1      12.527   5.793  -0.224  0.00  0.00    +0.007 C 
ATOM     33  C   UNL     1      11.363   5.061   0.446  0.00  0.00    -0.010 C 
ATOM     34  C   UNL     1      10.209   6.040   0.673  0.00  0.00    +0.007 C 
ATOM     35  C   UNL     1      10.892   3.919  -0.456  0.00  0.00    +0.011 C 
ENDBRANCH  25  26
ENDBRANCH  22  25
ENDBRANCH   3  21
TORSDOF 6
