REMARK  Name = ZINC63374821
REMARK  10 active torsions:
REMARK  status: ('A' for Active; 'I' for Inactive)
REMARK    1  A    between atoms: C_1  and  C_2
REMARK    2  A    between atoms: C_2  and  O_3
REMARK    3  A    between atoms: O_3  and  C_4
REMARK    4  A    between atoms: C_5  and  C_12
REMARK    5  A    between atoms: C_9  and  O_10
REMARK    6  A    between atoms: O_10  and  C_11
REMARK    7  A    between atoms: N_19  and  C_34
REMARK    8  A    between atoms: C_22  and  C_33
REMARK    9  A    between atoms: C_34  and  C_35
REMARK   10  A    between atoms: C_38  and  C_41
REMARK                            x       y       z     vdW  Elec       q    Type
REMARK                         _______ _______ _______ _____ _____    ______ ____
ROOT
ATOM      1  C   UNL     1       3.205  -1.748  -0.559  0.00  0.00    +0.069 C 
ATOM      2  C   UNL     1       2.996  -2.098   0.917  0.00  0.00    +0.121 C 
ATOM      3  N   UNL     1       3.621  -3.349   1.311  0.00  0.00    -0.283 N 
ATOM      4  C   UNL     1       3.230  -3.889   2.513  0.00  0.00    +0.234 C 
ATOM      5  O   UNL     1       2.308  -3.425   3.149  0.00  0.00    -0.274 OA
ATOM      6  C   UNL     1       4.007  -5.092   3.005  0.00  0.00    +0.204 C 
ATOM      7  N   UNL     1       5.445  -4.842   2.793  0.00  0.00    -0.287 N 
ATOM      8  C   UNL     1       5.804  -4.350   1.568  0.00  0.00    +0.242 C 
ATOM      9  O   UNL     1       6.960  -4.142   1.267  0.00  0.00    -0.273 OA
ATOM     10  C   UNL     1       4.663  -4.087   0.620  0.00  0.00    +0.135 C 
ATOM     11  C   UNL     1       5.090  -3.578  -0.721  0.00  0.00    +0.139 C 
ATOM     12  C   UNL     1       4.625  -2.137  -0.885  0.00  0.00    -0.027 C 
ATOM     13  C   UNL     1       5.674  -1.445  -1.303  0.00  0.00    -0.000 A 
ATOM     14  C   UNL     1       5.824  -0.043  -1.727  0.00  0.00    +0.010 A 
ATOM     15  C   UNL     1       7.077   0.346  -2.081  0.00  0.00    +0.001 A 
ATOM     16  C   UNL     1       8.184  -0.508  -2.057  0.00  0.00    +0.002 A 
ATOM     17  C   UNL     1       8.137  -1.813  -1.690  0.00  0.00    +0.026 A 
ATOM     18  C   UNL     1       6.871  -2.342  -1.305  0.00  0.00    +0.043 A 
ATOM     19  N   UNL     1       6.537  -3.535  -0.926  0.00  0.00    -0.375 N 
ATOM     20  C   UNL     1       4.058  -5.463   0.336  0.00  0.00    +0.044 C 
ATOM     21  H   UNL     1       7.151  -4.277  -0.806  0.00  0.00    +0.160 HD
ENDROOT
BRANCH   1  23
ATOM     22  C   UNL     1       1.270  -1.865  -2.147  0.00  0.00    +0.166 A 
ATOM     23  C   UNL     1       2.244  -2.529  -1.418  0.00  0.00    +0.007 A 
ATOM     24  C   UNL     1       2.335  -3.907  -1.480  0.00  0.00    +0.008 A 
ATOM     25  C   UNL     1       1.455  -4.626  -2.268  0.00  0.00    +0.004 A 
ATOM     26  C   UNL     1       0.481  -3.970  -2.998  0.00  0.00    +0.049 A 
ATOM     27  C   UNL     1       0.381  -2.590  -2.936  0.00  0.00    +0.162 A 
BRANCH  27  28
ATOM     28  O   UNL     1      -0.580  -1.943  -3.648  0.00  0.00    -0.491 OA
ATOM     29  C   UNL     1      -1.457  -2.751  -4.436  0.00  0.00    +0.277 C 
ENDBRANCH  27  28
BRANCH  22  30
ATOM     30  O   UNL     1       1.179  -0.510  -2.087  0.00  0.00    -0.488 OA
BRANCH  30  32
ATOM     31  C   UNL     1       0.363   1.567  -1.159  0.00  0.00    +0.048 C 
ATOM     32  C   UNL     1       0.339   0.040  -1.071  0.00  0.00    +0.226 C 
ENDBRANCH  30  32
ENDBRANCH  22  30
ENDBRANCH   1  23
BRANCH   7  33
ATOM     33  C   UNL     1       6.436  -5.105   3.839  0.00  0.00    +0.143 C 
BRANCH  33  34
ATOM     34  C   UNL     1       6.935  -6.521   3.713  0.00  0.00    -0.030 A 
ATOM     35  C   UNL     1       6.290  -7.544   4.383  0.00  0.00    +0.005 A 
ATOM     36  C   UNL     1       6.747  -8.843   4.267  0.00  0.00    +0.003 A 
ATOM     37  C   UNL     1       7.851  -9.120   3.481  0.00  0.00    -0.050 A 
ATOM     38  C   UNL     1       8.496  -8.097   2.811  0.00  0.00    +0.003 A 
ATOM     39  C   UNL     1       8.035  -6.799   2.923  0.00  0.00    +0.005 A 
ATOM     40  C   UNL     1       8.351 -10.536   3.356  0.00  0.00    +0.044 C 
ENDBRANCH  33  34
ENDBRANCH   7  33
TORSDOF 6
