REMARK  Name = ZINC63739341
REMARK  6 active torsions:
REMARK  status: ('A' for Active; 'I' for Inactive)
REMARK    1  A    between atoms: C_1  and  C_2
REMARK    2  A    between atoms: C_2  and  C_3
REMARK    3  A    between atoms: C_2  and  N_4
REMARK    4  A    between atoms: C_5  and  C_7
REMARK    5  A    between atoms: C_7  and  C_8
REMARK    6  A    between atoms: C_14  and  C_16
REMARK                            x       y       z     vdW  Elec       q    Type
REMARK                         _______ _______ _______ _____ _____    ______ ____
ROOT
ATOM      1  C   UNL     1      -3.089  -3.656  -1.091  0.00  0.00    +0.001 C 
ATOM      2  C   UNL     1      -2.698  -3.571  -2.568  0.00  0.00    +0.023 C 
ATOM      3  C   UNL     1      -2.697  -4.978  -3.174  0.00  0.00    +0.108 C 
ATOM      4  N   UNL     1      -4.007  -5.598  -2.931  0.00  0.00    -0.300 N 
ATOM      5  C   UNL     1      -4.519  -5.650  -1.555  0.00  0.00    +0.108 C 
ATOM      6  C   UNL     1      -4.500  -4.235  -0.967  0.00  0.00    +0.023 C 
ATOM      7  C   UNL     1      -4.725  -6.109  -3.951  0.00  0.00    +0.242 C 
ATOM      8  O   UNL     1      -4.291  -6.059  -5.082  0.00  0.00    -0.273 OA
ENDROOT
BRANCH   7   9
ATOM      9  C   UNL     1      -6.067  -6.742  -3.685  0.00  0.00    +0.190 C 
ATOM     10  C   UNL     1      -5.906  -7.947  -2.787  0.00  0.00    +0.016 C 
ATOM     11  C   UNL     1      -6.358  -9.006  -3.496  0.00  0.00    -0.002 A 
ATOM     12  C   UNL     1      -6.467 -10.437  -3.186  0.00  0.00    +0.029 A 
ATOM     13  C   UNL     1      -6.973 -11.274  -4.121  0.00  0.00    +0.042 A 
ATOM     14  C   UNL     1      -7.396 -10.809  -5.375  0.00  0.00    +0.022 A 
ATOM     15  C   UNL     1      -7.327  -9.510  -5.732  0.00  0.00    +0.027 A 
ATOM     16  C   UNL     1      -6.811  -8.542  -4.827  0.00  0.00    +0.043 A 
ATOM     17  N   UNL     1      -6.645  -7.245  -4.936  0.00  0.00    -0.370 N 
ATOM     18 CL   UNL     1      -7.103 -12.967  -3.759  0.00  0.00    -0.084 Cl
ATOM     19  H   UNL     1      -6.867  -6.708  -5.713  0.00  0.00    +0.161 HD
ENDBRANCH   7   9
BRANCH   1  20
ATOM     20  C   UNL     1      -3.057  -2.256  -0.474  0.00  0.00    +0.099 C 
BRANCH  20  22
ATOM     21  N   UNL     1      -1.372  -0.511   0.012  0.00  0.00    -0.313 N 
ATOM     22  C   UNL     1      -1.643  -1.734  -0.485  0.00  0.00    +0.213 C 
ATOM     23  O   UNL     1      -0.749  -2.415  -0.941  0.00  0.00    -0.276 OA
ATOM     24  H   UNL     1      -2.087   0.033   0.377  0.00  0.00    +0.149 HD
BRANCH  21  26
ATOM     25  C   UNL     1      -0.019   1.526   0.010  0.00  0.00    +0.027 C 
ATOM     26  C   UNL     1       0.002  -0.004   0.002  0.00  0.00    +0.067 C 
ATOM     27  C   UNL     1       0.742  -0.511   1.242  0.00  0.00    +0.027 C 
ENDBRANCH  21  26
ENDBRANCH  20  22
ENDBRANCH   1  20
TORSDOF 4
