REMARK  Name = ZINC10908286
REMARK  7 active torsions:
REMARK  status: ('A' for Active; 'I' for Inactive)
REMARK    1  A    between atoms: C_4  and  N_7
REMARK    2  A    between atoms: C_9  and  C_19
REMARK    3  A    between atoms: C_10  and  C_12
REMARK    4  A    between atoms: C_19  and  N_20
REMARK    5  A    between atoms: C_21  and  C_23
REMARK    6  A    between atoms: C_26  and  N_32
REMARK    7  A    between atoms: C_27  and  N_29
REMARK                            x       y       z     vdW  Elec       q    Type
REMARK                         _______ _______ _______ _____ _____    ______ ____
ROOT
ATOM      1  N   UNL     1      -7.728   1.575  -0.657  0.00  0.00    -0.239 N 
ATOM      2  C   UNL     1      -6.812   2.484  -1.081  0.00  0.00    +0.120 A 
ATOM      3  C   UNL     1      -6.090   2.876  -0.009  0.00  0.00    +0.015 A 
ATOM      4  C   UNL     1      -6.584   2.192   1.119  0.00  0.00    +0.098 A 
ATOM      5  N   UNL     1      -7.568   1.411   0.725  0.00  0.00    -0.166 NA
ENDROOT
BRANCH   4   6
ATOM      6  C   UNL     1      -6.083   2.327   2.509  0.00  0.00    +0.003 A 
ATOM      7  C   UNL     1      -4.726   2.533   2.746  0.00  0.00    +0.013 A 
ATOM      8  C   UNL     1      -4.265   2.662   4.040  0.00  0.00    +0.039 A 
ATOM      9  C   UNL     1      -5.149   2.579   5.104  0.00  0.00    +0.123 A 
ATOM     10  C   UNL     1      -6.499   2.371   4.873  0.00  0.00    +0.039 A 
ATOM     11  C   UNL     1      -6.969   2.244   3.582  0.00  0.00    +0.013 A 
ATOM     12  F   UNL     1      -4.692   2.702   6.370  0.00  0.00    -0.205 F 
ENDBRANCH   4   6
BRANCH   1  16
ATOM     13  C   UNL     1     -10.534  -0.372  -3.046  0.00  0.00    +0.000 A 
ATOM     14  C   UNL     1     -10.485  -0.630  -1.689  0.00  0.00    +0.002 A 
ATOM     15  C   UNL     1      -9.557   0.013  -0.895  0.00  0.00    +0.028 A 
ATOM     16  C   UNL     1      -8.671   0.920  -1.460  0.00  0.00    +0.065 A 
ATOM     17  C   UNL     1      -8.725   1.181  -2.823  0.00  0.00    +0.028 A 
ATOM     18  C   UNL     1      -9.653   0.531  -3.613  0.00  0.00    +0.002 A 
ENDBRANCH   1  16
BRANCH   3  19
ATOM     19  C   UNL     1      -4.961   3.874  -0.016  0.00  0.00    +0.143 C 
BRANCH  19  20
ATOM     20  N   UNL     1      -3.680   3.163  -0.004  0.00  0.00    -0.307 N 
ATOM     21  C   UNL     1      -2.524   3.856  -0.008  0.00  0.00    +0.244 C 
ATOM     22  O   UNL     1      -2.544   5.071  -0.022  0.00  0.00    -0.270 OA
ATOM     23  H   UNL     1      -3.664   2.193   0.007  0.00  0.00    +0.149 HD
BRANCH  21  24
ATOM     24  C   UNL     1      -1.235   3.139   0.004  0.00  0.00    +0.039 A 
ATOM     25  C   UNL     1      -1.210   1.741   0.014  0.00  0.00    +0.015 A 
ATOM     26  C   UNL     1      -0.006   1.076   0.030  0.00  0.00    +0.026 A 
ATOM     27  C   UNL     1       1.187   1.793   0.027  0.00  0.00    +0.055 A 
ATOM     28  C   UNL     1       1.166   3.185   0.011  0.00  0.00    +0.147 A 
ATOM     29  C   UNL     1      -0.035   3.856   0.000  0.00  0.00    +0.047 A 
BRANCH  28  30
ATOM     30  N   UNL     1       2.437   3.944   0.007  0.00  0.00    +0.058 N 
ATOM     31  O   UNL     1       2.422   5.157   0.108  0.00  0.00    -0.126 OA
ATOM     32  O   UNL     1       3.498   3.354  -0.098  0.00  0.00    -0.126 OA
ENDBRANCH  28  30
BRANCH  27  33
ATOM     33  N   UNL     1       2.403   1.118   0.038  0.00  0.00    -0.356 N 
ATOM     34  H   UNL     1       2.458   0.212  -0.304  0.00  0.00    +0.142 HD
ATOM     35  H   UNL     1       3.196   1.553   0.389  0.00  0.00    +0.142 HD
ENDBRANCH  27  33
ENDBRANCH  21  24
ENDBRANCH  19  20
ENDBRANCH   3  19
TORSDOF 7
