REMARK  Name = ZINC09249786
REMARK  8 active torsions:
REMARK  status: ('A' for Active; 'I' for Inactive)
REMARK    1  A    between atoms: C_1  and  C_2
REMARK    2  A    between atoms: C_5  and  C_8
REMARK    3  A    between atoms: C_8  and  S_9
REMARK    4  A    between atoms: S_9  and  C_10
REMARK    5  A    between atoms: N_16  and  C_17
REMARK    6  A    between atoms: C_22  and  C_24
REMARK    7  A    between atoms: C_26  and  C_31
REMARK    8  A    between atoms: C_29  and  C_30
REMARK                            x       y       z     vdW  Elec       q    Type
REMARK                         _______ _______ _______ _____ _____    ______ ____
ROOT
ATOM      1  C   UNL     1       1.827  -0.945  -0.794  0.00  0.00    +0.174 A 
ATOM      2  N   UNL     1       2.911  -0.196  -0.775  0.00  0.00    -0.185 NA
ATOM      3  C   UNL     1       2.830   1.129  -0.580  0.00  0.00    +0.279 A 
ATOM      4  O   UNL     1       3.843   1.813  -0.566  0.00  0.00    -0.265 OA
ATOM      5  C   UNL     1       1.567   1.727  -0.393  0.00  0.00    +0.065 A 
ATOM      6  C   UNL     1       0.454   0.945  -0.414  0.00  0.00    +0.116 A 
ATOM      7  N   UNL     1       0.590  -0.403  -0.617  0.00  0.00    -0.311 N 
ATOM      8  C   UNL     1      -0.596  -1.262  -0.644  0.00  0.00    +0.152 C 
ATOM      9  N   UNL     1      -0.795   1.500  -0.228  0.00  0.00    -0.271 N 
ATOM     10  C   UNL     1      -0.931   2.719   0.325  0.00  0.00    +0.219 C 
ATOM     11  O   UNL     1      -2.037   3.195   0.467  0.00  0.00    -0.275 OA
ATOM     12  C   UNL     1       0.279   3.495   0.773  0.00  0.00    +0.109 C 
ATOM     13  C   UNL     1       1.449   3.211  -0.172  0.00  0.00    +0.067 C 
ATOM     14  H   UNL     1      -1.585   1.008  -0.501  0.00  0.00    +0.156 HD
ENDROOT
BRANCH  13  15
ATOM     15  C   UNL     1       1.207   3.897  -1.492  0.00  0.00    -0.036 A 
ATOM     16  C   UNL     1       0.161   3.492  -2.300  0.00  0.00    +0.008 A 
ATOM     17  C   UNL     1      -0.062   4.122  -3.510  0.00  0.00    -0.050 A 
ATOM     18  C   UNL     1       0.762   5.157  -3.912  0.00  0.00    +0.003 A 
ATOM     19  C   UNL     1       1.807   5.563  -3.104  0.00  0.00    +0.004 A 
ATOM     20  C   UNL     1       2.027   4.936  -1.891  0.00  0.00    -0.047 A 
ATOM     21  C   UNL     1       3.163   5.381  -1.008  0.00  0.00    +0.044 C 
ATOM     22  C   UNL     1      -1.201   3.680  -4.391  0.00  0.00    +0.044 C 
ENDBRANCH  13  15
BRANCH   1  23
ATOM     23  S   UNL     1       1.981  -2.681  -1.053  0.00  0.00    -0.083 S 
BRANCH  23  24
ATOM     24  C   UNL     1       3.779  -2.816  -1.218  0.00  0.00    +0.112 C 
BRANCH  24  29
ATOM     25  C   UNL     1       5.221  -8.339  -2.120  0.00  0.00    +0.044 C 
ATOM     26  C   UNL     1       4.845  -6.899  -1.885  0.00  0.00    -0.050 A 
ATOM     27  C   UNL     1       4.576  -6.070  -2.958  0.00  0.00    +0.003 A 
ATOM     28  C   UNL     1       4.231  -4.749  -2.743  0.00  0.00    +0.005 A 
ATOM     29  C   UNL     1       4.154  -4.256  -1.453  0.00  0.00    -0.037 A 
ATOM     30  C   UNL     1       4.428  -5.084  -0.380  0.00  0.00    +0.005 A 
ATOM     31  C   UNL     1       4.768  -6.406  -0.596  0.00  0.00    +0.003 A 
ENDBRANCH  24  29
ENDBRANCH  23  24
ENDBRANCH   1  23
TORSDOF 4
