REMARK  Name = ZINC01150761
REMARK  4 active torsions:
REMARK  status: ('A' for Active; 'I' for Inactive)
REMARK    1  A    between atoms: C_1  and  C_2
REMARK    2  A    between atoms: C_2  and  C_3
REMARK    3  A    between atoms: C_2  and  N_4
REMARK    4  A    between atoms: C_8  and  C_9
REMARK                            x       y       z     vdW  Elec       q    Type
REMARK                         _______ _______ _______ _____ _____    ______ ____
ROOT
ATOM      1  N   UNL     1       1.011   2.553   0.118  0.00  0.00    -0.253 N 
ATOM      2  C   UNL     1       0.824   3.857   0.226  0.00  0.00    +0.259 C 
ATOM      3  O   UNL     1       1.738   4.613   0.503  0.00  0.00    -0.269 OA
ATOM      4  C   UNL     1      -0.544   4.351  -0.004  0.00  0.00    +0.077 C 
ATOM      5  C   UNL     1      -1.028   5.628   0.038  0.00  0.00    +0.027 C 
ATOM      6  S   UNL     1      -1.397   2.821  -0.363  0.00  0.00    -0.061 S 
ATOM      7  C   UNL     1      -0.003   1.719  -0.189  0.00  0.00    +0.121 C 
ATOM      8  S   UNL     1       0.037   0.017  -0.375  0.00  0.00    -0.027 S 
ENDROOT
BRANCH   5   9
ATOM      9  C   UNL     1      -2.413   5.859  -0.054  0.00  0.00    -0.009 C 
ATOM     10  C   UNL     1      -2.890   7.131  -0.147  0.00  0.00    +0.018 C 
ATOM     11  C   UNL     1      -4.346   7.314  -0.221  0.00  0.00    +0.017 A 
ATOM     12  C   UNL     1      -4.908   8.518  -0.646  0.00  0.00    +0.011 A 
ATOM     13  C   UNL     1      -6.281   8.646  -0.699  0.00  0.00    +0.001 A 
ATOM     14  C   UNL     1      -7.097   7.587  -0.336  0.00  0.00    +0.004 A 
ATOM     15  C   UNL     1      -6.551   6.388   0.086  0.00  0.00    +0.046 A 
ATOM     16  C   UNL     1      -5.177   6.241   0.148  0.00  0.00    +0.128 A 
ATOM     17  O   UNL     1      -4.611   5.080   0.559  0.00  0.00    -0.487 OA
ATOM     18  C   UNL     1      -3.376   4.700  -0.056  0.00  0.00    +0.264 C 
ENDBRANCH   5   9
BRANCH   1  20
ATOM     19  C   UNL     1       2.310   1.008   1.499  0.00  0.00    +0.028 C 
ATOM     20  C   UNL     1       2.351   2.001   0.336  0.00  0.00    +0.077 C 
ATOM     21  C   UNL     1       2.819   1.282  -0.931  0.00  0.00    +0.028 C 
ENDBRANCH   1  20
TORSDOF 2
