REMARK  Name = ZINC20151756
REMARK  10 active torsions:
REMARK  status: ('A' for Active; 'I' for Inactive)
REMARK    1  A    between atoms: C_1  and  C_2
REMARK    2  A    between atoms: C_2  and  O_3
REMARK    3  A    between atoms: O_3  and  C_4
REMARK    4  A    between atoms: C_9  and  N_10
REMARK    5  A    between atoms: C_11  and  C_13
REMARK    6  A    between atoms: C_13  and  N_14
REMARK    7  A    between atoms: C_17  and  C_21
REMARK    8  A    between atoms: C_18  and  C_20
REMARK    9  A    between atoms: N_24  and  C_27
REMARK   10  A    between atoms: C_31  and  C_33
REMARK                            x       y       z     vdW  Elec       q    Type
REMARK                         _______ _______ _______ _____ _____    ______ ____
ROOT
ATOM      1  N   UNL     1       1.127   7.261   0.136  0.00  0.00    -0.278 N 
ATOM      2  C   UNL     1      -0.023   8.001   0.076  0.00  0.00    +0.097 A 
ATOM      3  C   UNL     1      -1.275   7.389  -0.024  0.00  0.00    +0.074 A 
ATOM      4  C   UNL     1      -2.403   8.304  -0.078  0.00  0.00    -0.026 A 
ATOM      5  C   UNL     1      -2.147   9.620  -0.029  0.00  0.00    -0.008 A 
ATOM      6  S   UNL     1      -0.371   9.688   0.092  0.00  0.00    -0.075 S 
ATOM      7  C   UNL     1      -3.125  10.766  -0.068  0.00  0.00    +0.052 C 
ATOM      8  C   UNL     1      -3.816   7.791  -0.187  0.00  0.00    +0.045 C 
ATOM      9  C   UNL     1      -1.265   5.911  -0.063  0.00  0.00    +0.270 A 
ATOM     10  O   UNL     1      -2.308   5.290  -0.152  0.00  0.00    -0.266 OA
ATOM     11  N   UNL     1      -0.090   5.260   0.006  0.00  0.00    -0.228 N 
ATOM     12  C   UNL     1       1.079   5.915   0.101  0.00  0.00    +0.338 A 
ATOM     13  O   UNL     1       2.115   5.280   0.156  0.00  0.00    -0.246 OA
ENDROOT
BRANCH  11  14
ATOM     14  C   UNL     1      -0.085   3.859  -0.027  0.00  0.00    +0.055 A 
ATOM     15  C   UNL     1       0.491   3.190  -1.099  0.00  0.00    +0.026 A 
ATOM     16  C   UNL     1       0.501   1.810  -1.126  0.00  0.00    +0.003 A 
ATOM     17  C   UNL     1      -0.073   1.093  -0.091  0.00  0.00    +0.012 A 
ATOM     18  C   UNL     1      -0.647   1.755   0.977  0.00  0.00    +0.057 A 
ATOM     19  C   UNL     1      -0.655   3.136   1.012  0.00  0.00    +0.038 A 
BRANCH  18  20
ATOM     20  C   UNL     1      -1.266   0.970   2.105  0.00  0.00    +0.417 C 
ATOM     21  F   UNL     1      -1.137  -0.399   1.846  0.00  0.00    -0.166 F 
ATOM     22  F   UNL     1      -0.614   1.282   3.303  0.00  0.00    -0.166 F 
ATOM     23  F   UNL     1      -2.622   1.299   2.213  0.00  0.00    -0.166 F 
ENDBRANCH  18  20
ENDBRANCH  11  14
BRANCH   1  24
ATOM     24  C   UNL     1       2.421   7.938   0.240  0.00  0.00    +0.223 C 
BRANCH  24  26
ATOM     25  N   UNL     1       4.149   8.823  -1.292  0.00  0.00    -0.281 N 
ATOM     26  C   UNL     1       2.962   8.204  -1.141  0.00  0.00    +0.237 C 
ATOM     27  O   UNL     1       2.328   7.862  -2.117  0.00  0.00    -0.274 OA
ATOM     28  H   UNL     1       4.755   9.075  -0.409  0.00  0.00    +0.155 HD
BRANCH  25  34
ATOM     29  C   UNL     1       5.512  10.195  -2.749  0.00  0.00    +0.142 A 
ATOM     30  C   UNL     1       5.967  10.509  -4.020  0.00  0.00    +0.047 A 
ATOM     31  C   UNL     1       5.530   9.781  -5.110  0.00  0.00    +0.004 A 
ATOM     32  C   UNL     1       4.638   8.739  -4.938  0.00  0.00    +0.002 A 
ATOM     33  C   UNL     1       4.183   8.416  -3.674  0.00  0.00    +0.027 A 
ATOM     34  C   UNL     1       4.613   9.145  -2.575  0.00  0.00    +0.076 A 
BRANCH  29  35
ATOM     35  O   UNL     1       5.942  10.910  -1.675  0.00  0.00    -0.490 OA
BRANCH  35  37
ATOM     36  C   UNL     1       7.230  12.656  -0.611  0.00  0.00    +0.048 C 
ATOM     37  C   UNL     1       6.863  11.972  -1.930  0.00  0.00    +0.226 C 
ENDBRANCH  35  37
ENDBRANCH  29  35
ENDBRANCH  25  34
ENDBRANCH  24  26
ENDBRANCH   1  24
TORSDOF 7
