REMARK  Name = ZINC01828688
REMARK  12 active torsions:
REMARK  status: ('A' for Active; 'I' for Inactive)
REMARK    1  A    between atoms: C_1  and  C_2
REMARK    2  A    between atoms: C_5  and  C_8
REMARK    3  A    between atoms: C_11  and  S_20
REMARK    4  A    between atoms: N_12  and  C_13
REMARK    5  A    between atoms: C_16  and  C_19
REMARK    6  A    between atoms: S_20  and  C_21
REMARK    7  A    between atoms: C_21  and  C_22
REMARK    8  A    between atoms: N_24  and  N_25
REMARK    9  A    between atoms: C_26  and  C_27
REMARK   10  A    between atoms: C_28  and  C_39
REMARK   11  A    between atoms: N_30  and  C_33
REMARK   12  A    between atoms: C_31  and  C_32
REMARK                            x       y       z     vdW  Elec       q    Type
REMARK                         _______ _______ _______ _____ _____    ______ ____
ROOT
ATOM      1  S   UNL     1      -1.449   2.347  -0.061  0.00  0.00    -0.076 S 
ENDROOT
BRANCH   1   5
ATOM      2  C   UNL     1       2.044   0.616  -0.360  0.00  0.00    +0.169 A 
ATOM      3  N   UNL     1       1.210  -0.393  -0.470  0.00  0.00    -0.128 NA
ATOM      4  N   UNL     1      -0.002   0.027  -0.387  0.00  0.00    -0.122 NA
ATOM      5  C   UNL     1      -0.018   1.331  -0.219  0.00  0.00    +0.197 A 
ATOM      6  N   UNL     1       1.283   1.753  -0.196  0.00  0.00    -0.270 N 
BRANCH   2  11
ATOM      7  C   UNL     1       7.789   0.338  -0.532  0.00  0.00    +0.044 C 
ATOM      8  C   UNL     1       6.284   0.411  -0.487  0.00  0.00    -0.050 A 
ATOM      9  C   UNL     1       5.529  -0.665  -0.920  0.00  0.00    +0.004 A 
ATOM     10  C   UNL     1       4.152  -0.605  -0.881  0.00  0.00    +0.012 A 
ATOM     11  C   UNL     1       3.519   0.544  -0.404  0.00  0.00    +0.020 A 
ATOM     12  C   UNL     1       4.287   1.628   0.027  0.00  0.00    +0.012 A 
ATOM     13  C   UNL     1       5.664   1.553  -0.013  0.00  0.00    +0.004 A 
ENDBRANCH   2  11
BRANCH   6  14
ATOM     14  C   UNL     1       1.746   3.067  -0.039  0.00  0.00    +0.051 A 
ATOM     15  C   UNL     1       2.433   3.690  -1.071  0.00  0.00    +0.026 A 
ATOM     16  C   UNL     1       2.883   4.986  -0.916  0.00  0.00    +0.005 A 
ATOM     17  C   UNL     1       2.659   5.660   0.271  0.00  0.00    -0.050 A 
ATOM     18  C   UNL     1       1.979   5.040   1.303  0.00  0.00    +0.005 A 
ATOM     19  C   UNL     1       1.522   3.745   1.151  0.00  0.00    +0.026 A 
ATOM     20  C   UNL     1       3.156   7.072   0.440  0.00  0.00    +0.044 C 
ENDBRANCH   6  14
ENDBRANCH   1   5
BRANCH   1  21
ATOM     21  C   UNL     1      -2.744   1.089  -0.197  0.00  0.00    +0.174 C 
BRANCH  21  22
ATOM     22  C   UNL     1      -4.096   1.746  -0.086  0.00  0.00    +0.242 C 
ATOM     23  O   UNL     1      -4.176   2.946   0.069  0.00  0.00    -0.273 OA
ATOM     24  N   UNL     1      -5.215   0.999  -0.160  0.00  0.00    -0.206 N 
ATOM     25  H   UNL     1      -5.151   0.040  -0.284  0.00  0.00    +0.177 HD
BRANCH  24  26
ATOM     26  N   UNL     1      -6.472   1.610  -0.057  0.00  0.00    -0.188 NA
ATOM     27  C   UNL     1      -7.550   0.891  -0.128  0.00  0.00    +0.142 C 
BRANCH  27  28
ATOM     28  C   UNL     1      -8.874   1.534  -0.020  0.00  0.00    +0.038 A 
ATOM     29  C   UNL     1      -9.123   2.913   0.161  0.00  0.00    +0.069 A 
ATOM     30  N   UNL     1     -10.416   3.090   0.209  0.00  0.00    -0.171 NA
ATOM     31  N   UNL     1     -11.048   1.849   0.064  0.00  0.00    -0.236 N 
ATOM     32  C   UNL     1     -10.097   0.902  -0.082  0.00  0.00    +0.051 A 
ATOM     33  C   UNL     1     -10.330  -0.574  -0.275  0.00  0.00    +0.066 C 
ATOM     34  C   UNL     1      -8.078   3.992   0.278  0.00  0.00    +0.068 C 
BRANCH  31  35
ATOM     35  C   UNL     1     -12.432   1.629   0.062  0.00  0.00    +0.066 A 
ATOM     36  C   UNL     1     -13.274   2.502  -0.613  0.00  0.00    +0.028 A 
ATOM     37  C   UNL     1     -14.638   2.280  -0.617  0.00  0.00    +0.002 A 
ATOM     38  C   UNL     1     -15.165   1.196   0.060  0.00  0.00    +0.000 A 
ATOM     39  C   UNL     1     -14.329   0.328   0.738  0.00  0.00    +0.002 A 
ATOM     40  C   UNL     1     -12.964   0.541   0.741  0.00  0.00    +0.028 A 
ENDBRANCH  31  35
ENDBRANCH  27  28
ENDBRANCH  24  26
ENDBRANCH  21  22
ENDBRANCH   1  21
TORSDOF 8
