REMARK  Name = ZINC34977114
REMARK  7 active torsions:
REMARK  status: ('A' for Active; 'I' for Inactive)
REMARK    1  A    between atoms: C_1  and  C_2
REMARK    2  A    between atoms: C_7  and  N_8
REMARK    3  A    between atoms: N_11  and  C_12
REMARK    4  A    between atoms: N_11  and  C_28
REMARK    5  A    between atoms: C_12  and  C_13
REMARK    6  A    between atoms: C_13  and  N_14
REMARK    7  A    between atoms: N_17  and  C_18
REMARK                            x       y       z     vdW  Elec       q    Type
REMARK                         _______ _______ _______ _____ _____    ______ ____
ROOT
ATOM      1  N   UNL     1      -0.005  -2.045   3.584  0.00  0.00    -0.269 N 
ATOM      2  C   UNL     1       0.080  -0.700   3.589  0.00  0.00    +0.311 C 
ATOM      3  O   UNL     1       0.002  -0.082   2.545  0.00  0.00    -0.252 OA
ATOM      4  N   UNL     1       0.251  -0.040   4.752  0.00  0.00    -0.254 N 
ATOM      5  H   UNL     1       0.021  -2.536   4.420  0.00  0.00    +0.156 HD
ENDROOT
BRANCH   1  12
ATOM      6  C   UNL     1       0.836  -4.762   3.487  0.00  0.00    +0.045 C 
ATOM      7  C   UNL     1       0.265  -4.061   2.281  0.00  0.00    -0.029 A 
ATOM      8  C   UNL     1       0.133  -4.739   1.085  0.00  0.00    +0.005 A 
ATOM      9  C   UNL     1      -0.390  -4.097  -0.022  0.00  0.00    +0.000 A 
ATOM     10  C   UNL     1      -0.782  -2.774   0.065  0.00  0.00    +0.002 A 
ATOM     11  C   UNL     1      -0.653  -2.090   1.257  0.00  0.00    +0.023 A 
ATOM     12  C   UNL     1      -0.133  -2.734   2.373  0.00  0.00    +0.038 A 
ENDBRANCH   1  12
BRANCH   4  13
ATOM     13  C   UNL     1       0.232   1.360   4.771  0.00  0.00    +0.038 A 
ATOM     14  C   UNL     1       1.255   2.077   4.165  0.00  0.00    +0.026 A 
ATOM     15  C   UNL     1       1.235   3.458   4.186  0.00  0.00    +0.040 A 
ATOM     16  C   UNL     1       0.195   4.127   4.810  0.00  0.00    +0.124 A 
ATOM     17  C   UNL     1      -0.826   3.414   5.414  0.00  0.00    +0.040 A 
ATOM     18  C   UNL     1      -0.812   2.033   5.391  0.00  0.00    +0.026 A 
ATOM     19  F   UNL     1       0.177   5.478   4.829  0.00  0.00    -0.205 F 
ENDBRANCH   4  13
BRANCH   4  20
ATOM     20  C   UNL     1       0.457  -0.787   5.995  0.00  0.00    +0.134 C 
BRANCH  20  21
ATOM     21  C   UNL     1       1.953  -1.025   6.205  0.00  0.00    +0.125 C 
BRANCH  21  22
ATOM     22  N   UNL     1       2.159  -1.773   7.448  0.00  0.00    -0.298 N 
ATOM     23  C   UNL     1       3.406  -2.098   7.840  0.00  0.00    +0.300 C 
ATOM     24  O   UNL     1       4.361  -1.772   7.162  0.00  0.00    -0.253 OA
ATOM     25  N   UNL     1       3.596  -2.786   8.984  0.00  0.00    -0.294 N 
ATOM     26  H   UNL     1       1.397  -2.033   7.989  0.00  0.00    +0.150 HD
ATOM     27  H   UNL     1       2.834  -3.046   9.525  0.00  0.00    +0.151 HD
BRANCH  25  28
ATOM     28  C   UNL     1       4.952  -3.140   9.410  0.00  0.00    +0.037 C 
ATOM     29  C   UNL     1       5.611  -4.013   8.341  0.00  0.00    +0.029 C 
ATOM     30  C   UNL     1       7.027  -4.383   8.785  0.00  0.00    -0.008 C 
ATOM     31  C   UNL     1       6.962  -5.155  10.105  0.00  0.00    +0.007 C 
ATOM     32  C   UNL     1       6.303  -4.281  11.175  0.00  0.00    -0.008 C 
ATOM     33  C   UNL     1       4.887  -3.911  10.730  0.00  0.00    +0.029 C 
ATOM     34  C   UNL     1       7.126  -3.006  11.369  0.00  0.00    +0.007 C 
ATOM     35  C   UNL     1       7.191  -2.235  10.050  0.00  0.00    -0.008 C 
ATOM     36  C   UNL     1       7.850  -3.108   8.980  0.00  0.00    +0.007 C 
ATOM     37  C   UNL     1       5.774  -1.865   9.605  0.00  0.00    +0.029 C 
ENDBRANCH  25  28
ENDBRANCH  21  22
ENDBRANCH  20  21
ENDBRANCH   4  20
TORSDOF 6
