REMARK  Name = ZINC35108384
REMARK  14 active torsions:
REMARK  status: ('A' for Active; 'I' for Inactive)
REMARK    1  A    between atoms: C_1  and  C_2
REMARK    2  A    between atoms: C_2  and  N_3
REMARK    3  A    between atoms: N_3  and  C_4
REMARK    4  A    between atoms: C_4  and  C_5
REMARK    5  A    between atoms: C_6  and  C_8
REMARK    6  A    between atoms: C_11  and  C_13
REMARK    7  A    between atoms: C_13  and  N_14
REMARK    8  A    between atoms: N_14  and  C_15
REMARK    9  A    between atoms: N_14  and  C_30
REMARK   10  A    between atoms: C_15  and  C_16
REMARK   11  A    between atoms: C_16  and  C_17
REMARK   12  A    between atoms: C_17  and  C_18
REMARK   13  A    between atoms: C_17  and  C_24
REMARK   14  A    between atoms: C_30  and  C_31
REMARK                            x       y       z     vdW  Elec       q    Type
REMARK                         _______ _______ _______ _____ _____    ______ ____
ROOT
ATOM      1  N   UNL     1       4.442  -4.480  -4.791  0.00  0.00    +0.386 N 
ATOM      2  H   UNL     1       3.698  -5.161  -4.795  0.00  0.00    -0.081 HD
ENDROOT
BRANCH   1   3
ATOM      3  C   UNL     1       3.908  -3.168  -5.180  0.00  0.00    -0.014 C 
BRANCH   3   7
ATOM      4  C   UNL     1       1.579  -3.648  -8.037  0.00  0.00    +0.133 A 
ATOM      5  C   UNL     1       2.523  -3.337  -8.979  0.00  0.00    +0.079 A 
ATOM      6  S   UNL     1       3.879  -3.016  -8.041  0.00  0.00    -0.082 S 
ATOM      7  C   UNL     1       3.224  -3.281  -6.518  0.00  0.00    +0.063 A 
ATOM      8  N   UNL     1       1.983  -3.602  -6.764  0.00  0.00    -0.241 NA
BRANCH   4  10
ATOM      9  N   UNL     1      -0.731  -4.177  -7.445  0.00  0.00    -0.297 N 
ATOM     10  C   UNL     1       0.199  -4.007  -8.405  0.00  0.00    +0.265 C 
ATOM     11  O   UNL     1      -0.101  -4.149  -9.575  0.00  0.00    -0.268 OA
BRANCH   9  13
ATOM     12  C   UNL     1      -2.968  -3.433  -8.095  0.00  0.00    +0.024 C 
ATOM     13  C   UNL     1      -2.075  -4.640  -7.801  0.00  0.00    +0.105 C 
ENDBRANCH   9  13
BRANCH   9  14
ATOM     14  C   UNL     1      -0.399  -3.900  -6.045  0.00  0.00    +0.105 C 
ATOM     15  C   UNL     1       0.243  -5.139  -5.418  0.00  0.00    +0.024 C 
ENDBRANCH   9  14
ENDBRANCH   4  10
ENDBRANCH   3   7
ENDBRANCH   1   3
BRANCH   1  16
ATOM     16  C   UNL     1       5.484  -4.886  -5.743  0.00  0.00    -0.077 C 
BRANCH  16  17
ATOM     17  C   UNL     1       5.953  -6.304  -5.412  0.00  0.00    -0.006 C 
BRANCH  17  18
ATOM     18  C   UNL     1       7.038  -6.728  -6.404  0.00  0.00    +0.047 C 
BRANCH  18  19
ATOM     19  C   UNL     1       7.587  -8.073  -6.005  0.00  0.00    -0.040 A 
ATOM     20  C   UNL     1       8.951  -8.251  -5.871  0.00  0.00    +0.004 A 
ATOM     21  C   UNL     1       9.454  -9.486  -5.505  0.00  0.00    +0.000 A 
ATOM     22  C   UNL     1       8.593 -10.542  -5.272  0.00  0.00    +0.000 A 
ATOM     23  C   UNL     1       7.229 -10.363  -5.405  0.00  0.00    +0.000 A 
ATOM     24  C   UNL     1       6.725  -9.128  -5.767  0.00  0.00    +0.004 A 
ENDBRANCH  18  19
BRANCH  18  25
ATOM     25  C   UNL     1       6.447  -6.816  -7.787  0.00  0.00    -0.040 A 
ATOM     26  C   UNL     1       5.325  -7.593  -8.011  0.00  0.00    +0.004 A 
ATOM     27  C   UNL     1       4.783  -7.675  -9.280  0.00  0.00    +0.000 A 
ATOM     28  C   UNL     1       5.361  -6.979 -10.325  0.00  0.00    +0.000 A 
ATOM     29  C   UNL     1       6.482  -6.202 -10.101  0.00  0.00    +0.000 A 
ATOM     30  C   UNL     1       7.022  -6.117  -8.832  0.00  0.00    +0.004 A 
ENDBRANCH  18  25
ENDBRANCH  17  18
ENDBRANCH  16  17
ENDBRANCH   1  16
BRANCH   1  31
ATOM     31  C   UNL     1       5.019  -4.393  -3.442  0.00  0.00    -0.042 C 
BRANCH  31  32
ATOM     32  C   UNL     1       3.927  -4.097  -2.447  0.00  0.00    -0.064 A 
ATOM     33  C   UNL     1       3.684  -2.793  -2.055  0.00  0.00    +0.003 A 
ATOM     34  C   UNL     1       2.683  -2.521  -1.142  0.00  0.00    +0.020 A 
ATOM     35  C   UNL     1       1.923  -3.553  -0.621  0.00  0.00    +0.041 A 
ATOM     36  C   UNL     1       2.166  -4.857  -1.014  0.00  0.00    +0.020 A 
ATOM     37  C   UNL     1       3.164  -5.128  -1.931  0.00  0.00    +0.003 A 
ATOM     38 CL   UNL     1       0.665  -3.212   0.526  0.00  0.00    -0.084 Cl
ENDBRANCH  31  32
ENDBRANCH   1  31
TORSDOF 12
