REMARK  Name = ZINC65948507
REMARK  10 active torsions:
REMARK  status: ('A' for Active; 'I' for Inactive)
REMARK    1  A    between atoms: C_1  and  C_2
REMARK    2  A    between atoms: C_2  and  C_14
REMARK    3  A    between atoms: N_3  and  O_4
REMARK    4  A    between atoms: O_4  and  C_5
REMARK    5  A    between atoms: C_5  and  C_6
REMARK    6  A    between atoms: C_9  and  C_12
REMARK    7  A    between atoms: C_14  and  C_15
REMARK    8  A    between atoms: C_15  and  C_16
REMARK    9  A    between atoms: C_19  and  O_22
REMARK   10  A    between atoms: O_22  and  C_23
REMARK                            x       y       z     vdW  Elec       q    Type
REMARK                         _______ _______ _______ _____ _____    ______ ____
ROOT
ATOM      1  C   UNL     1      -0.018   1.503   0.010  0.00  0.00    +0.064 C 
ATOM      2  C   UNL     1       0.002  -0.004   0.002  0.00  0.00    +0.055 C 
ATOM      3  N   UNL     1       0.021  -0.650   1.107  0.00  0.00    -0.094 NA
ENDROOT
BRANCH   3   4
ATOM      4  O   UNL     1       0.023   0.052   2.337  0.00  0.00    -0.389 OA
BRANCH   4   5
ATOM      5  C   UNL     1       0.046  -0.794   3.488  0.00  0.00    +0.298 C 
BRANCH   5   6
ATOM      6  C   UNL     1       0.046   0.053   4.734  0.00  0.00    -0.008 A 
ATOM      7  C   UNL     1       1.246   0.461   5.289  0.00  0.00    +0.008 A 
ATOM      8  C   UNL     1       1.254   1.237   6.430  0.00  0.00    +0.019 A 
ATOM      9  C   UNL     1       0.047   1.611   7.024  0.00  0.00    +0.052 A 
ATOM     10  C   UNL     1      -1.161   1.196   6.458  0.00  0.00    +0.019 A 
ATOM     11  C   UNL     1      -1.154   0.424   5.315  0.00  0.00    +0.008 A 
BRANCH   9  12
ATOM     12  C   UNL     1       0.047   2.416   8.208  0.00  0.00    +0.099 C 
ATOM     13  N   UNL     1       0.047   3.054   9.148  0.00  0.00    -0.191 NA
ENDBRANCH   9  12
ENDBRANCH   5   6
ENDBRANCH   4   5
ENDBRANCH   3   4
BRANCH   2  14
ATOM     14  C   UNL     1      -0.000  -0.750  -1.307  0.00  0.00    +0.058 C 
BRANCH  14  15
ATOM     15  C   UNL     1      -1.318  -0.491  -2.040  0.00  0.00    +0.041 C 
BRANCH  15  16
ATOM     16  C   UNL     1      -1.320  -1.238  -3.349  0.00  0.00    -0.047 A 
ATOM     17  C   UNL     1      -0.828  -0.631  -4.490  0.00  0.00    +0.007 A 
ATOM     18  C   UNL     1      -0.829  -1.313  -5.691  0.00  0.00    +0.046 A 
ATOM     19  C   UNL     1      -1.325  -2.608  -5.752  0.00  0.00    +0.120 A 
ATOM     20  C   UNL     1      -1.818  -3.214  -4.606  0.00  0.00    +0.046 A 
ATOM     21  C   UNL     1      -1.810  -2.530  -3.406  0.00  0.00    +0.007 A 
BRANCH  19  22
ATOM     22  O   UNL     1      -1.328  -3.281  -6.933  0.00  0.00    -0.495 OA
ATOM     23  C   UNL     1      -1.853  -4.609  -6.921  0.00  0.00    +0.277 C 
ENDBRANCH  19  22
ENDBRANCH  15  16
ENDBRANCH  14  15
ENDBRANCH   2  14
TORSDOF 8
