REMARK  Name = ZINC12773566
REMARK  5 active torsions:
REMARK  status: ('A' for Active; 'I' for Inactive)
REMARK    1  A    between atoms: C_4  and  N_19
REMARK    2  A    between atoms: C_5  and  C_7
REMARK    3  A    between atoms: N_9  and  N_10
REMARK    4  A    between atoms: N_19  and  S_20
REMARK    5  A    between atoms: S_20  and  C_23
REMARK                            x       y       z     vdW  Elec       q    Type
REMARK                         _______ _______ _______ _____ _____    ______ ____
ROOT
ATOM      1  C   UNL     1       7.374   3.189  -0.554  0.00  0.00    +0.001 A 
ATOM      2  C   UNL     1       8.325   4.194  -0.459  0.00  0.00    +0.002 A 
ATOM      3  C   UNL     1       7.938   5.506  -0.282  0.00  0.00    +0.025 A 
ATOM      4  C   UNL     1       6.589   5.830  -0.204  0.00  0.00    +0.060 A 
ATOM      5  C   UNL     1       5.625   4.814  -0.294  0.00  0.00    +0.061 A 
ATOM      6  C   UNL     1       6.032   3.490  -0.473  0.00  0.00    +0.015 A 
ENDROOT
BRANCH   5   7
ATOM      7  C   UNL     1       4.190   5.144  -0.207  0.00  0.00    +0.264 C 
ATOM      8  O   UNL     1       3.840   6.298  -0.051  0.00  0.00    -0.268 OA
ATOM      9  N   UNL     1       3.268   4.166  -0.300  0.00  0.00    -0.217 N 
ATOM     10  H   UNL     1       3.547   3.245  -0.424  0.00  0.00    +0.176 HD
BRANCH   9  11
ATOM     11  N   UNL     1       1.905   4.479  -0.217  0.00  0.00    -0.246 N 
ATOM     12  C   UNL     1       1.371   5.718  -0.044  0.00  0.00    +0.219 A 
ATOM     13  N   UNL     1       0.072   5.645  -0.012  0.00  0.00    -0.234 NA
ATOM     14  C   UNL     1      -0.317   4.353  -0.162  0.00  0.00    +0.091 A 
ATOM     15  C   UNL     1       0.854   3.586  -0.295  0.00  0.00    +0.088 A 
ATOM     16  C   UNL     1       0.764   2.212  -0.465  0.00  0.00    +0.030 A 
ATOM     17  C   UNL     1      -0.475   1.608  -0.501  0.00  0.00    +0.002 A 
ATOM     18  C   UNL     1      -1.631   2.365  -0.374  0.00  0.00    +0.002 A 
ATOM     19  C   UNL     1      -1.561   3.719  -0.201  0.00  0.00    +0.030 A 
ENDBRANCH   9  11
ENDBRANCH   5   7
BRANCH   4  20
ATOM     20  N   UNL     1       6.197   7.151  -0.032  0.00  0.00    -0.216 N 
ATOM     21  H   UNL     1       5.421   7.360   0.510  0.00  0.00    +0.174 HD
BRANCH  20  22
ATOM     22  S   UNL     1       7.056   8.370  -0.752  0.00  0.00    +0.072 S 
ATOM     23  O   UNL     1       6.342   9.573  -0.503  0.00  0.00    -0.150 OA
ATOM     24  O   UNL     1       8.412   8.195  -0.364  0.00  0.00    -0.150 OA
BRANCH  22  25
ATOM     25  C   UNL     1       6.990   8.096  -2.491  0.00  0.00    +0.109 A 
ATOM     26  C   UNL     1       7.963   7.332  -3.108  0.00  0.00    +0.031 A 
ATOM     27  C   UNL     1       7.910   7.112  -4.471  0.00  0.00    +0.040 A 
ATOM     28  C   UNL     1       6.887   7.668  -5.221  0.00  0.00    +0.124 A 
ATOM     29  C   UNL     1       5.916   8.438  -4.604  0.00  0.00    +0.040 A 
ATOM     30  C   UNL     1       5.969   8.651  -3.240  0.00  0.00    +0.031 A 
ATOM     31  F   UNL     1       6.837   7.458  -6.555  0.00  0.00    -0.205 F 
ENDBRANCH  22  25
ENDBRANCH  20  22
ENDBRANCH   4  20
TORSDOF 5
