REMARK  Name = ZINC43525513
REMARK  10 active torsions:
REMARK  status: ('A' for Active; 'I' for Inactive)
REMARK    1  A    between atoms: C_1  and  N_2
REMARK    2  A    between atoms: C_3  and  C_16
REMARK    3  A    between atoms: C_5  and  C_7
REMARK    4  A    between atoms: C_10  and  N_13
REMARK    5  A    between atoms: N_13  and  C_14
REMARK    6  A    between atoms: N_13  and  C_15
REMARK    7  A    between atoms: C_25  and  C_27
REMARK    8  A    between atoms: C_27  and  N_28
REMARK    9  A    between atoms: N_31  and  C_32
REMARK   10  A    between atoms: C_36  and  C_38
REMARK                            x       y       z     vdW  Elec       q    Type
REMARK                         _______ _______ _______ _____ _____    ______ ____
ROOT
ATOM      1  C   UNL     1       0.795  -0.512  -1.732  0.00  0.00    +0.024 C 
ATOM      2  C   UNL     1       2.210  -0.403  -2.305  0.00  0.00    -0.068 C 
ATOM      3  N   UNL     1       2.368  -1.329  -3.430  0.00  0.00    +0.383 N 
ATOM      4  C   UNL     1       2.179  -2.713  -2.989  0.00  0.00    -0.078 C 
ATOM      5  C   UNL     1       0.764  -2.899  -2.437  0.00  0.00    -0.015 C 
ATOM      6  C   UNL     1       0.013  -1.561  -2.533  0.00  0.00    -0.007 C 
ATOM      7  C   UNL     1      -0.012  -1.126  -4.004  0.00  0.00    -0.010 C 
ATOM      8  C   UNL     1       1.431  -0.998  -4.506  0.00  0.00    -0.051 C 
ATOM      9  H   UNL     1       3.308  -1.240  -3.786  0.00  0.00    -0.081 HD
ENDROOT
BRANCH   1  12
ATOM     10  C   UNL     1      -1.117   0.359   0.542  0.00  0.00    +0.172 C 
ATOM     11  N   UNL     1       0.026  -0.545   0.696  0.00  0.00    -0.271 N 
ATOM     12  C   UNL     1       0.868  -0.932  -0.286  0.00  0.00    +0.041 A 
ATOM     13  C   UNL     1       1.786  -1.763   0.254  0.00  0.00    +0.053 A 
ATOM     14  C   UNL     1       1.496  -1.891   1.627  0.00  0.00    +0.093 A 
ATOM     15  N   UNL     1       0.440  -1.151   1.889  0.00  0.00    -0.171 NA
BRANCH  14  16
ATOM     16  C   UNL     1       2.252  -2.712   2.606  0.00  0.00    +0.002 A 
ATOM     17  C   UNL     1       3.365  -3.442   2.192  0.00  0.00    +0.012 A 
ATOM     18  C   UNL     1       4.066  -4.204   3.103  0.00  0.00    +0.024 A 
ATOM     19  C   UNL     1       3.663  -4.243   4.433  0.00  0.00    +0.029 A 
ATOM     20  C   UNL     1       2.554  -3.516   4.847  0.00  0.00    +0.024 A 
ATOM     21  C   UNL     1       1.854  -2.748   3.941  0.00  0.00    +0.012 A 
BRANCH  19  22
ATOM     22  N   UNL     1       4.374  -5.016   5.353  0.00  0.00    -0.336 N 
ATOM     23  C   UNL     1       5.612  -5.685   4.947  0.00  0.00    +0.129 C 
ATOM     24  C   UNL     1       3.882  -5.157   6.726  0.00  0.00    +0.129 C 
ENDBRANCH  19  22
ENDBRANCH  14  16
ENDBRANCH   1  12
BRANCH   8  25
ATOM     25  C   UNL     1       1.648  -1.954  -5.680  0.00  0.00    +0.090 C 
BRANCH  25  26
ATOM     26  N   UNL     1       3.053  -1.910  -6.093  0.00  0.00    -0.301 N 
ATOM     27  C   UNL     1       3.479  -2.676  -7.117  0.00  0.00    +0.304 C 
ATOM     28  O   UNL     1       2.698  -3.404  -7.697  0.00  0.00    -0.253 OA
ATOM     29  N   UNL     1       4.772  -2.634  -7.497  0.00  0.00    -0.269 N 
ATOM     30  H   UNL     1       3.676  -1.329  -5.630  0.00  0.00    +0.150 HD
ATOM     31  H   UNL     1       5.380  -2.006  -7.078  0.00  0.00    +0.156 HD
BRANCH  29  32
ATOM     32  C   UNL     1       5.236  -3.499  -8.495  0.00  0.00    +0.036 A 
ATOM     33  C   UNL     1       6.521  -4.021  -8.419  0.00  0.00    +0.023 A 
ATOM     34  C   UNL     1       6.985  -4.875  -9.402  0.00  0.00    +0.003 A 
ATOM     35  C   UNL     1       6.174  -5.215 -10.466  0.00  0.00    +0.019 A 
ATOM     36  C   UNL     1       4.880  -4.696 -10.551  0.00  0.00    +0.054 A 
ATOM     37  C   UNL     1       4.411  -3.838  -9.556  0.00  0.00    +0.042 A 
BRANCH  36  38
ATOM     38  C   UNL     1       4.037  -5.047 -11.654  0.00  0.00    +0.099 C 
ATOM     39  N   UNL     1       3.367  -5.325 -12.529  0.00  0.00    -0.191 NA
ENDBRANCH  36  38
ENDBRANCH  29  32
ENDBRANCH  25  26
ENDBRANCH   8  25
TORSDOF 7
