REMARK  Name = ZINC38361492
REMARK  9 active torsions:
REMARK  status: ('A' for Active; 'I' for Inactive)
REMARK    1  A    between atoms: C_1  and  C_2
REMARK    2  A    between atoms: C_2  and  C_4
REMARK    3  A    between atoms: C_2  and  N_10
REMARK    4  A    between atoms: N_10  and  C_11
REMARK    5  A    between atoms: C_11  and  C_13
REMARK    6  A    between atoms: C_11  and  C_25
REMARK    7  A    between atoms: C_16  and  C_19
REMARK    8  A    between atoms: C_25  and  C_26
REMARK    9  A    between atoms: C_25  and  C_27
REMARK                            x       y       z     vdW  Elec       q    Type
REMARK                         _______ _______ _______ _____ _____    ______ ____
ROOT
ATOM      1  C   UNL     1       2.075  -0.445  -1.147  0.00  0.00    +0.087 C 
ENDROOT
BRANCH   1   2
ATOM      2  C   UNL     1       2.644  -1.326  -2.229  0.00  0.00    -0.030 A 
ATOM      3  C   UNL     1       2.069  -1.337  -3.486  0.00  0.00    +0.005 A 
ATOM      4  C   UNL     1       2.592  -2.146  -4.478  0.00  0.00    +0.004 A 
ATOM      5  C   UNL     1       3.689  -2.943  -4.213  0.00  0.00    -0.044 A 
ATOM      6  C   UNL     1       4.265  -2.932  -2.957  0.00  0.00    +0.004 A 
ATOM      7  C   UNL     1       3.745  -2.120  -1.966  0.00  0.00    +0.005 A 
BRANCH   5   8
ATOM      8  C   UNL     1       4.258  -3.825  -5.295  0.00  0.00    +0.019 C 
ATOM      9  C   UNL     1       4.196  -5.287  -4.846  0.00  0.00    +0.008 C 
ATOM     10  C   UNL     1       4.773  -6.183  -5.943  0.00  0.00    +0.001 C 
ATOM     11  C   UNL     1       6.229  -5.792  -6.207  0.00  0.00    +0.000 C 
ATOM     12  C   UNL     1       6.291  -4.330  -6.656  0.00  0.00    +0.001 C 
ATOM     13  C   UNL     1       5.713  -3.435  -5.559  0.00  0.00    +0.008 C 
ENDBRANCH   5   8
ENDBRANCH   1   2
BRANCH   1  14
ATOM     14  C   UNL     1       2.565   0.991  -1.349  0.00  0.00    +0.004 C 
ATOM     15  C   UNL     1       1.905   1.905  -0.315  0.00  0.00    +0.009 C 
ATOM     16  C   UNL     1       4.085   1.040  -1.176  0.00  0.00    +0.009 C 
ENDBRANCH   1  14
BRANCH   1  17
ATOM     17  N   UNL     1       0.608  -0.474  -1.213  0.00  0.00    -0.299 NA
ATOM     18  H   UNL     1       0.288  -0.436  -2.169  0.00  0.00    +0.123 HD
BRANCH  17  20
ATOM     19  C   UNL     1      -0.007  -1.383   0.976  0.00  0.00    +0.034 C 
ATOM     20  C   UNL     1       0.074  -1.658  -0.527  0.00  0.00    +0.138 C 
BRANCH  20  21
ATOM     21  C   UNL     1      -1.302  -1.968  -1.056  0.00  0.00    +0.237 C 
ATOM     22  O   UNL     1      -1.791  -1.271  -1.919  0.00  0.00    -0.274 OA
ATOM     23  N   UNL     1      -1.991  -3.019  -0.569  0.00  0.00    -0.239 N 
ATOM     24  C   UNL     1      -3.222  -3.296  -1.042  0.00  0.00    +0.303 C 
ATOM     25  O   UNL     1      -3.712  -2.598  -1.908  0.00  0.00    -0.253 OA
ATOM     26  N   UNL     1      -3.910  -4.348  -0.555  0.00  0.00    -0.313 N 
ATOM     27  H   UNL     1      -1.600  -3.577   0.122  0.00  0.00    +0.159 HD
ATOM     28  H   UNL     1      -3.520  -4.905   0.136  0.00  0.00    +0.146 HD
ATOM     29  H   UNL     1      -4.797  -4.547  -0.895  0.00  0.00    +0.146 HD
ENDBRANCH  20  21
ENDBRANCH  17  20
ENDBRANCH   1  17
TORSDOF 6
