REMARK  Name = ZINC34971061
REMARK  8 active torsions:
REMARK  status: ('A' for Active; 'I' for Inactive)
REMARK    1  A    between atoms: C_1  and  C_2
REMARK    2  A    between atoms: C_7  and  C_9
REMARK    3  A    between atoms: C_7  and  C_10
REMARK    4  A    between atoms: C_13  and  C_15
REMARK    5  A    between atoms: C_15  and  C_17
REMARK    6  A    between atoms: C_15  and  N_24
REMARK    7  A    between atoms: C_17  and  C_18
REMARK    8  A    between atoms: N_27  and  C_28
REMARK                            x       y       z     vdW  Elec       q    Type
REMARK                         _______ _______ _______ _____ _____    ______ ____
ROOT
ATOM      1  C   UNL     1       1.006  -2.287  -3.706  0.00  0.00    +0.165 C 
ENDROOT
BRANCH   1  13
ATOM      2  C   UNL     1      -1.964   1.393  -1.028  0.00  0.00    +0.013 C 
ATOM      3  C   UNL     1      -1.459  -0.031  -0.744  0.00  0.00    -0.014 C 
ATOM      4  C   UNL     1      -2.599  -1.084  -0.806  0.00  0.00    +0.030 C 
ATOM      5  C   UNL     1      -1.752  -2.370  -0.978  0.00  0.00    +0.077 C 
ATOM      6  C   UNL     1      -1.141  -2.695   0.383  0.00  0.00    +0.029 C 
ATOM      7  C   UNL     1      -0.330  -1.558   0.979  0.00  0.00    -0.033 C 
ATOM      8  C   UNL     1      -0.796  -0.158   0.626  0.00  0.00    +0.014 C 
ATOM      9  C   UNL     1       1.151  -1.729   0.615  0.00  0.00    +0.011 C 
ATOM     10  C   UNL     1      -0.419  -1.694   2.520  0.00  0.00    +0.011 C 
ATOM     11  N   UNL     1      -0.676  -1.993  -1.915  0.00  0.00    -0.296 N 
ATOM     12  C   UNL     1      -0.485  -0.537  -1.831  0.00  0.00    +0.114 C 
ATOM     13  C   UNL     1       0.007  -2.833  -2.718  0.00  0.00    +0.237 C 
ATOM     14  O   UNL     1      -0.181  -4.029  -2.645  0.00  0.00    -0.274 OA
ENDBRANCH   1  13
BRANCH   1  15
ATOM     15  N   UNL     1       1.234  -3.272  -4.765  0.00  0.00    -0.288 N 
ATOM     16  C   UNL     1       1.656  -2.870  -5.980  0.00  0.00    +0.305 C 
ATOM     17  O   UNL     1       1.847  -1.689  -6.198  0.00  0.00    -0.252 OA
ATOM     18  N   UNL     1       1.867  -3.777  -6.955  0.00  0.00    -0.267 N 
ATOM     19  H   UNL     1       1.082  -4.215  -4.592  0.00  0.00    +0.151 HD
ATOM     20  H   UNL     1       1.793  -4.725  -6.760  0.00  0.00    +0.156 HD
BRANCH  18  21
ATOM     21  C   UNL     1       2.192  -3.352  -8.249  0.00  0.00    +0.070 A 
ATOM     22  C   UNL     1       1.910  -2.052  -8.646  0.00  0.00    +0.026 A 
ATOM     23  C   UNL     1       2.232  -1.636  -9.923  0.00  0.00    +0.002 A 
ATOM     24  C   UNL     1       2.836  -2.511 -10.807  0.00  0.00    +0.003 A 
ATOM     25  C   UNL     1       3.119  -3.807 -10.416  0.00  0.00    +0.040 A 
ATOM     26  C   UNL     1       2.804  -4.229  -9.137  0.00  0.00    +0.145 A 
ATOM     27  F   UNL     1       3.086  -5.494  -8.754  0.00  0.00    -0.204 F 
ENDBRANCH  18  21
ENDBRANCH   1  15
BRANCH   1  28
ATOM     28  C   UNL     1       2.325  -1.993  -2.989  0.00  0.00    +0.067 C 
BRANCH  28  29
ATOM     29  C   UNL     1       3.272  -1.307  -3.940  0.00  0.00    -0.045 A 
ATOM     30  C   UNL     1       4.127  -2.058  -4.725  0.00  0.00    +0.004 A 
ATOM     31  C   UNL     1       4.995  -1.429  -5.597  0.00  0.00    +0.000 A 
ATOM     32  C   UNL     1       5.008  -0.049  -5.685  0.00  0.00    +0.000 A 
ATOM     33  C   UNL     1       4.153   0.701  -4.900  0.00  0.00    +0.000 A 
ATOM     34  C   UNL     1       3.281   0.072  -4.031  0.00  0.00    +0.004 A 
ENDBRANCH  28  29
ENDBRANCH   1  28
TORSDOF 5
