REMARK  Name = ZINC11881057
REMARK  7 active torsions:
REMARK  status: ('A' for Active; 'I' for Inactive)
REMARK    1  A    between atoms: C_3  and  N_20
REMARK    2  A    between atoms: C_6  and  C_7
REMARK    3  A    between atoms: N_9  and  C_10
REMARK    4  A    between atoms: C_10  and  C_11
REMARK    5  A    between atoms: C_23  and  N_58
REMARK    6  A    between atoms: C_26  and  C_27
REMARK    7  A    between atoms: C_26  and  N_58
REMARK                            x       y       z     vdW  Elec       q    Type
REMARK                         _______ _______ _______ _____ _____    ______ ____
ROOT
ATOM      1  C   UNL     1       1.158   4.973   4.099  0.00  0.00    +0.015 A 
ATOM      2  C   UNL     1       1.169   5.428   5.398  0.00  0.00    +0.024 A 
ATOM      3  C   UNL     1       1.150   6.796   5.657  0.00  0.00    +0.030 A 
ATOM      4  C   UNL     1       1.126   7.707   4.605  0.00  0.00    +0.024 A 
ATOM      5  C   UNL     1       1.122   7.258   3.304  0.00  0.00    +0.015 A 
ATOM      6  C   UNL     1       1.140   5.886   3.040  0.00  0.00    +0.037 A 
ENDROOT
BRANCH   3   7
ATOM      7  N   UNL     1       1.155   7.253   6.971  0.00  0.00    -0.330 N 
ATOM      8  C   UNL     1       0.010   8.136   7.225  0.00  0.00    +0.103 C 
ATOM      9  C   UNL     1       0.127   8.733   8.630  0.00  0.00    +0.003 C 
ATOM     10  C   UNL     1       0.160   7.600   9.659  0.00  0.00    -0.069 C 
ATOM     11  C   UNL     1       1.333   6.668   9.343  0.00  0.00    +0.003 C 
ATOM     12  C   UNL     1       1.181   6.131   7.918  0.00  0.00    +0.103 C 
BRANCH  10  13
ATOM     13  N   UNL     1       0.341   8.166  11.010  0.00  0.00    +0.381 N 
ATOM     14  H   UNL     1       0.945   8.994  10.952  0.00  0.00    -0.086 HD
ATOM     15  H   UNL     1       0.779   7.463  11.616  0.00  0.00    -0.086 HD
BRANCH  13  16
ATOM     16  C   UNL     1      -0.963   8.555  11.580  0.00  0.00    -0.079 C 
BRANCH  16  17
ATOM     17  C   UNL     1      -0.745   9.137  12.978  0.00  0.00    -0.028 C 
ATOM     18  C   UNL     1      -1.356   8.383  14.161  0.00  0.00    +0.002 C 
ATOM     19  C   UNL     1      -1.964   9.711  13.703  0.00  0.00    +0.002 C 
ENDBRANCH  16  17
ENDBRANCH  13  16
ENDBRANCH  10  13
ENDBRANCH   3   7
BRANCH   6  20
ATOM     20  C   UNL     1       1.135   5.401   1.647  0.00  0.00    +0.244 C 
ATOM     21  O   UNL     1       1.114   6.196   0.727  0.00  0.00    -0.270 OA
ATOM     22  N   UNL     1       1.153   4.077   1.394  0.00  0.00    -0.307 N 
ATOM     23  H   UNL     1       1.169   3.443   2.128  0.00  0.00    +0.149 HD
BRANCH  22  24
ATOM     24  C   UNL     1       1.147   3.596   0.010  0.00  0.00    +0.140 C 
BRANCH  24  25
ATOM     25  C   UNL     1       1.171   2.089   0.002  0.00  0.00    -0.027 A 
ATOM     26  C   UNL     1       2.379   1.418  -0.011  0.00  0.00    +0.009 A 
ATOM     27  C   UNL     1       2.405   0.036  -0.020  0.00  0.00    +0.050 A 
ATOM     28  C   UNL     1       1.220  -0.680  -0.013  0.00  0.00    +0.166 A 
ATOM     29  C   UNL     1       0.002  -0.004   0.002  0.00  0.00    +0.167 A 
ATOM     30  C   UNL     1      -0.017   1.381   0.010  0.00  0.00    +0.054 A 
ATOM     31  O   UNL     1      -1.007  -0.923   0.006  0.00  0.00    -0.453 OA
ATOM     32  C   UNL     1      -0.404  -2.159  -0.418  0.00  0.00    +0.466 C 
ATOM     33  O   UNL     1       0.973  -2.023  -0.018  0.00  0.00    -0.453 OA
ENDBRANCH  24  25
ENDBRANCH  22  24
ENDBRANCH   6  20
TORSDOF 7
