REMARK  Name = ZINC09092679
REMARK  5 active torsions:
REMARK  status: ('A' for Active; 'I' for Inactive)
REMARK    1  A    between atoms: C_1  and  C_2
REMARK    2  A    between atoms: C_2  and  C_25
REMARK    3  A    between atoms: N_5  and  C_9
REMARK    4  A    between atoms: C_9  and  C_10
REMARK    5  A    between atoms: C_10  and  C_12
REMARK                            x       y       z     vdW  Elec       q    Type
REMARK                         _______ _______ _______ _____ _____    ______ ____
ROOT
ATOM      1  C   UNL     1      -8.805  10.623   1.206  0.00  0.00    +0.047 C 
ATOM      2  C   UNL     1      -7.423  10.182   0.720  0.00  0.00    +0.135 C 
ATOM      3  C   UNL     1      -7.117   8.774   1.193  0.00  0.00    +0.251 C 
ATOM      4  O   UNL     1      -7.035   8.388   2.339  0.00  0.00    -0.272 OA
ATOM      5  N   UNL     1      -6.954   8.041   0.073  0.00  0.00    -0.216 N 
ATOM      6  C   UNL     1      -7.120   8.781  -1.029  0.00  0.00    +0.310 C 
ATOM      7  O   UNL     1      -7.026   8.341  -2.158  0.00  0.00    -0.252 OA
ATOM      8  N   UNL     1      -7.402  10.066  -0.748  0.00  0.00    -0.281 N 
ATOM      9  H   UNL     1      -7.559  10.778  -1.388  0.00  0.00    +0.152 HD
ENDROOT
BRANCH   2  10
ATOM     10  C   UNL     1      -6.364  11.145   1.192  0.00  0.00    -0.012 A 
ATOM     11  C   UNL     1      -5.760  10.959   2.421  0.00  0.00    +0.010 A 
ATOM     12  C   UNL     1      -4.785  11.837   2.856  0.00  0.00    +0.050 A 
ATOM     13  C   UNL     1      -4.418  12.913   2.064  0.00  0.00    +0.166 A 
ATOM     14  C   UNL     1      -5.031  13.104   0.828  0.00  0.00    +0.167 A 
ATOM     15  C   UNL     1      -6.003  12.217   0.396  0.00  0.00    +0.055 A 
ATOM     16  O   UNL     1      -4.502  14.220   0.247  0.00  0.00    -0.453 OA
ATOM     17  C   UNL     1      -3.275  14.478   0.955  0.00  0.00    +0.466 C 
ATOM     18  O   UNL     1      -3.506  13.910   2.257  0.00  0.00    -0.453 OA
ENDBRANCH   2  10
BRANCH   5  19
ATOM     19  C   UNL     1      -6.641   6.610   0.065  0.00  0.00    +0.197 C 
BRANCH  19  20
ATOM     20  C   UNL     1      -5.145   6.424   0.058  0.00  0.00    +0.181 C 
ATOM     21  O   UNL     1      -4.414   7.391   0.060  0.00  0.00    -0.290 OA
BRANCH  20  22
ATOM     22  C   UNL     1      -4.572   5.068   0.049  0.00  0.00    +0.020 A 
ATOM     23  C   UNL     1      -5.416   3.951   0.047  0.00  0.00    +0.012 A 
ATOM     24  C   UNL     1      -4.876   2.681   0.038  0.00  0.00    +0.005 A 
ATOM     25  C   UNL     1      -3.506   2.507   0.032  0.00  0.00    -0.035 A 
ATOM     26  C   UNL     1      -2.651   3.608   0.046  0.00  0.00    -0.013 A 
ATOM     27  C   UNL     1      -3.188   4.894   0.042  0.00  0.00    +0.020 A 
ATOM     28  C   UNL     1      -1.242   3.140   0.030  0.00  0.00    -0.014 A 
ATOM     29  C   UNL     1      -0.039   3.848   0.023  0.00  0.00    +0.009 A 
ATOM     30  C   UNL     1       1.160   3.167   0.008  0.00  0.00    +0.001 A 
ATOM     31  C   UNL     1       1.176   1.783   0.000  0.00  0.00    +0.000 A 
ATOM     32  C   UNL     1      -0.013   1.076   0.008  0.00  0.00    +0.004 A 
ATOM     33  C   UNL     1      -1.216   1.749   0.017  0.00  0.00    -0.035 A 
ATOM     34  C   UNL     1      -2.646   1.266   0.021  0.00  0.00    +0.071 C 
ENDBRANCH  20  22
ENDBRANCH  19  20
ENDBRANCH   5  19
TORSDOF 4
