REMARK  Name = ZINC05477547
REMARK  8 active torsions:
REMARK  status: ('A' for Active; 'I' for Inactive)
REMARK    1  A    between atoms: C_1  and  C_2
REMARK    2  A    between atoms: C_2  and  C_27
REMARK    3  A    between atoms: C_10  and  C_15
REMARK    4  A    between atoms: C_16  and  C_17
REMARK    5  A    between atoms: C_20  and  C_23
REMARK    6  A    between atoms: C_23  and  C_24
REMARK    7  A    between atoms: C_23  and  C_25
REMARK    8  A    between atoms: C_23  and  C_26
REMARK                            x       y       z     vdW  Elec       q    Type
REMARK                         _______ _______ _______ _____ _____    ______ ____
ROOT
ATOM      1  C   UNL     1       1.824   2.331  -1.403  0.00  0.00    +0.020 C 
ATOM      2  C   UNL     1       1.418   1.872  -0.001  0.00  0.00    +0.034 C 
ATOM      3  C   UNL     1      -0.017   1.385   0.010  0.00  0.00    -0.017 A 
ATOM      4  C   UNL     1      -1.214   2.069   0.030  0.00  0.00    +0.006 A 
ATOM      5  C   UNL     1      -2.410   1.373   0.043  0.00  0.00    +0.000 A 
ATOM      6  C   UNL     1      -2.402  -0.009   0.041  0.00  0.00    +0.002 A 
ATOM      7  C   UNL     1      -1.207  -0.698   0.021  0.00  0.00    +0.023 A 
ATOM      8  C   UNL     1       0.002  -0.004   0.002  0.00  0.00    +0.036 A 
ATOM      9  N   UNL     1       1.315  -0.490  -0.027  0.00  0.00    -0.296 N 
ATOM     10  C   UNL     1       2.212   0.613   0.413  0.00  0.00    +0.131 C 
ATOM     11  N   UNL     1       3.422   0.507  -0.409  0.00  0.00    -0.289 N 
ATOM     12  C   UNL     1       3.174  -0.263  -1.488  0.00  0.00    +0.232 C 
ATOM     13  O   UNL     1       3.971  -0.538  -2.359  0.00  0.00    -0.274 OA
ATOM     14  C   UNL     1       1.735  -0.725  -1.429  0.00  0.00    +0.203 C 
ATOM     15  C   UNL     1       1.617   2.997   1.017  0.00  0.00    +0.020 C 
ATOM     16  H   UNL     1       4.272   0.928  -0.208  0.00  0.00    +0.151 HD
ENDROOT
BRANCH  10  17
ATOM     17  C   UNL     1       2.513   0.564   1.889  0.00  0.00    +0.020 C 
ATOM     18  C   UNL     1       2.007  -0.407   2.636  0.00  0.00    +0.007 C 
BRANCH  18  19
ATOM     19  C   UNL     1       2.302  -0.455   4.084  0.00  0.00    -0.025 A 
ATOM     20  C   UNL     1       3.118   0.516   4.665  0.00  0.00    +0.008 A 
ATOM     21  C   UNL     1       3.384   0.470   6.018  0.00  0.00    +0.005 A 
ATOM     22  C   UNL     1       2.855  -0.545   6.796  0.00  0.00    -0.042 A 
ATOM     23  C   UNL     1       2.051  -1.515   6.224  0.00  0.00    +0.005 A 
ATOM     24  C   UNL     1       1.772  -1.476   4.873  0.00  0.00    +0.008 A 
BRANCH  22  25
ATOM     25  C   UNL     1       3.155  -0.594   8.271  0.00  0.00    -0.013 C 
ATOM     26  C   UNL     1       3.865  -1.908   8.604  0.00  0.00    +0.015 C 
ATOM     27  C   UNL     1       4.058   0.582   8.647  0.00  0.00    +0.015 C 
ATOM     28  C   UNL     1       1.848  -0.506   9.061  0.00  0.00    +0.015 C 
ENDBRANCH  22  25
ENDBRANCH  18  19
ENDBRANCH  10  17
TORSDOF 3
