REMARK  Name = ZINC02504260
REMARK  6 active torsions:
REMARK  status: ('A' for Active; 'I' for Inactive)
REMARK    1  A    between atoms: C_1  and  C_2
REMARK    2  A    between atoms: C_5  and  C_29
REMARK    3  A    between atoms: C_6  and  N_8
REMARK    4  A    between atoms: C_9  and  C_11
REMARK    5  A    between atoms: C_17  and  C_24
REMARK    6  A    between atoms: C_19  and  C_20
REMARK                            x       y       z     vdW  Elec       q    Type
REMARK                         _______ _______ _______ _____ _____    ______ ____
ROOT
ATOM      1  C   UNL     1       1.242   2.093   0.012  0.00  0.00    +0.101 A 
ATOM      2  C   UNL     1       2.541   1.550   0.002  0.00  0.00    +0.150 A 
ATOM      3  N   UNL     1       3.405   2.530   0.005  0.00  0.00    -0.172 NA
ATOM      4  N   UNL     1       2.727   3.754   0.018  0.00  0.00    -0.209 N 
ATOM      5  C   UNL     1       1.385   3.495   0.016  0.00  0.00    +0.169 A 
ATOM      6  N   UNL     1       0.496   4.487   0.034  0.00  0.00    -0.224 NA
ATOM      7  C   UNL     1       0.894   5.753   0.042  0.00  0.00    +0.110 A 
ATOM      8  C   UNL     1       2.274   6.057   0.038  0.00  0.00    +0.064 A 
ATOM      9  C   UNL     1       3.173   5.046   0.026  0.00  0.00    +0.149 A 
ENDROOT
BRANCH   7  10
ATOM     10  C   UNL     1      -0.101   6.838   0.056  0.00  0.00    +0.153 A 
ATOM     11  C   UNL     1      -1.455   6.683   0.055  0.00  0.00    +0.051 A 
ATOM     12  C   UNL     1      -2.011   7.975   0.073  0.00  0.00    +0.042 A 
ATOM     13  C   UNL     1      -0.982   8.849   0.075  0.00  0.00    +0.196 A 
ATOM     14  O   UNL     1       0.169   8.159   0.065  0.00  0.00    -0.461 OA
ENDBRANCH   7  10
BRANCH   1  16
ATOM     15  N   UNL     1       0.002  -0.004   0.002  0.00  0.00    -0.281 N 
ATOM     16  C   UNL     1      -0.016   1.343   0.012  0.00  0.00    +0.253 C 
ATOM     17  O   UNL     1      -1.078   1.938   0.016  0.00  0.00    -0.270 OA
ATOM     18  H   UNL     1       0.845  -0.477  -0.084  0.00  0.00    +0.155 HD
BRANCH  15  24
ATOM     19  C   UNL     1      -4.673  -0.223   1.507  0.00  0.00    +0.044 C 
ATOM     20  C   UNL     1      -3.476  -0.851   0.840  0.00  0.00    -0.049 A 
ATOM     21  C   UNL     1      -3.560  -2.137   0.339  0.00  0.00    +0.004 A 
ATOM     22  C   UNL     1      -2.464  -2.717  -0.274  0.00  0.00    +0.005 A 
ATOM     23  C   UNL     1      -1.282  -2.012  -0.387  0.00  0.00    -0.029 A 
ATOM     24  C   UNL     1      -1.194  -0.720   0.115  0.00  0.00    +0.037 A 
ATOM     25  C   UNL     1      -2.295  -0.143   0.735  0.00  0.00    +0.027 A 
ATOM     26  C   UNL     1      -0.087  -2.645  -1.054  0.00  0.00    +0.045 C 
ENDBRANCH  15  24
ENDBRANCH   1  16
BRANCH   9  27
ATOM     27  C   UNL     1       4.651   5.341   0.021  0.00  0.00    +0.434 C 
ATOM     28  F   UNL     1       5.101   5.443  -1.300  0.00  0.00    -0.164 F 
ATOM     29  F   UNL     1       4.888   6.548   0.689  0.00  0.00    -0.164 F 
ATOM     30  F   UNL     1       5.335   4.307   0.669  0.00  0.00    -0.164 F 
ENDBRANCH   9  27
TORSDOF 4
