REMARK  Name = ZINC39599556
REMARK  10 active torsions:
REMARK  status: ('A' for Active; 'I' for Inactive)
REMARK    1  A    between atoms: C_1  and  C_2
REMARK    2  A    between atoms: C_2  and  C_3
REMARK    3  A    between atoms: C_3  and  C_4
REMARK    4  A    between atoms: C_4  and  C_6
REMARK    5  A    between atoms: C_4  and  C_7
REMARK    6  A    between atoms: C_11  and  C_20
REMARK    7  A    between atoms: N_22  and  C_23
REMARK    8  A    between atoms: C_23  and  C_24
REMARK    9  A    between atoms: C_27  and  O_30
REMARK   10  A    between atoms: O_30  and  C_31
REMARK                            x       y       z     vdW  Elec       q    Type
REMARK                         _______ _______ _______ _____ _____    ______ ____
ROOT
ATOM      1  C   UNL     1       1.661  -2.558   2.537  0.00  0.00    +0.218 C 
ATOM      2  O   UNL     1       2.241  -1.790   3.274  0.00  0.00    -0.275 OA
ATOM      3  N   UNL     1       1.829  -3.887   2.680  0.00  0.00    -0.300 N 
ATOM      4  C   UNL     1       1.216  -4.972   1.879  0.00  0.00    +0.121 C 
ATOM      5  C   UNL     1       2.342  -6.016   1.709  0.00  0.00    +0.100 C 
ATOM      6  C   UNL     1       3.292  -5.765   2.892  0.00  0.00    -0.004 C 
ATOM      7  C   UNL     1       2.675  -4.594   3.671  0.00  0.00    +0.115 C 
ATOM      8  C   UNL     1       3.375  -7.005   3.776  0.00  0.00    -0.010 C 
ATOM      9  C   UNL     1       4.369  -6.750   4.912  0.00  0.00    -0.082 C 
ATOM     10  N   UNL     1       5.689  -6.438   4.349  0.00  0.00    +0.379 N 
ATOM     11  C   UNL     1       5.620  -5.192   3.576  0.00  0.00    -0.082 C 
ATOM     12  C   UNL     1       4.678  -5.381   2.383  0.00  0.00    -0.010 C 
ATOM     13  H   UNL     1       6.356  -6.331   5.099  0.00  0.00    -0.086 HD
ATOM     14  H   UNL     1       5.982  -7.191   3.746  0.00  0.00    -0.086 HD
ENDROOT
BRANCH   5  15
ATOM     15  C   UNL     1       1.777  -7.412   1.774  0.00  0.00    +0.218 C 
ATOM     16  O   UNL     1       0.796  -7.638   2.450  0.00  0.00    -0.275 OA
ATOM     17  N   UNL     1       2.362  -8.409   1.081  0.00  0.00    -0.311 N 
ATOM     18  H   UNL     1       3.147  -8.228   0.540  0.00  0.00    +0.149 HD
BRANCH  17  19
ATOM     19  C   UNL     1       1.814  -9.765   1.144  0.00  0.00    +0.139 C 
BRANCH  19  20
ATOM     20  C   UNL     1       2.645 -10.684   0.286  0.00  0.00    -0.030 A 
ATOM     21  C   UNL     1       2.326 -10.860  -1.047  0.00  0.00    +0.009 A 
ATOM     22  C   UNL     1       3.087 -11.702  -1.835  0.00  0.00    +0.046 A 
ATOM     23  C   UNL     1       4.171 -12.371  -1.288  0.00  0.00    +0.130 A 
ATOM     24  C   UNL     1       4.490 -12.193   0.051  0.00  0.00    +0.046 A 
ATOM     25  C   UNL     1       3.729 -11.346   0.834  0.00  0.00    +0.009 A 
BRANCH  23  26
ATOM     26  O   UNL     1       4.921 -13.201  -2.061  0.00  0.00    -0.406 OA
BRANCH  26  27
ATOM     27  C   UNL     1       6.022 -13.857  -1.429  0.00  0.00    +0.575 C 
ATOM     28  F   UNL     1       5.553 -14.648  -0.376  0.00  0.00    -0.133 F 
ATOM     29  F   UNL     1       6.680 -14.665  -2.362  0.00  0.00    -0.133 F 
ATOM     30  F   UNL     1       6.913 -12.899  -0.933  0.00  0.00    -0.133 F 
ENDBRANCH  26  27
ENDBRANCH  23  26
ENDBRANCH  19  20
ENDBRANCH  17  19
ENDBRANCH   5  15
BRANCH   1  31
ATOM     31  C   UNL     1       0.750  -2.025   1.460  0.00  0.00    +0.072 C 
ATOM     32  C   UNL     1      -0.667  -2.556   1.683  0.00  0.00    +0.017 C 
BRANCH  31  33
ATOM     33  C   UNL     1       0.737  -0.496   1.514  0.00  0.00    +0.012 C 
BRANCH  33  35
ATOM     34  C   UNL     1      -0.101   1.577   0.399  0.00  0.00    +0.004 C 
ATOM     35  C   UNL     1      -0.087   0.048   0.345  0.00  0.00    -0.003 C 
ENDBRANCH  33  35
ENDBRANCH  31  33
ENDBRANCH   1  31
TORSDOF 8
