REMARK  Name = ZINC67103598
REMARK  9 active torsions:
REMARK  status: ('A' for Active; 'I' for Inactive)
REMARK    1  A    between atoms: C_1  and  C_2
REMARK    2  A    between atoms: C_2  and  C_3
REMARK    3  A    between atoms: C_3  and  C_4
REMARK    4  A    between atoms: C_4  and  C_6
REMARK    5  A    between atoms: C_4  and  N_7
REMARK    6  A    between atoms: C_8  and  C_10
REMARK    7  A    between atoms: N_19  and  N_20
REMARK    8  A    between atoms: C_21  and  C_23
REMARK    9  A    between atoms: C_23  and  C_24
REMARK                            x       y       z     vdW  Elec       q    Type
REMARK                         _______ _______ _______ _____ _____    ______ ____
ROOT
ATOM      1  C   UNL     1      -2.326  -4.292   1.026  0.00  0.00    +0.092 C 
ATOM      2  C   UNL     1      -2.412  -5.693   0.416  0.00  0.00    +0.016 C 
ATOM      3  C   UNL     1      -3.848  -6.211   0.523  0.00  0.00    +0.020 C 
ATOM      4  C   UNL     1      -4.245  -6.302   2.000  0.00  0.00    +0.109 C 
ATOM      5  N   UNL     1      -4.027  -4.992   2.630  0.00  0.00    -0.284 N 
ATOM      6  C   UNL     1      -2.707  -4.360   2.509  0.00  0.00    +0.122 C 
ATOM      7  C   UNL     1      -5.021  -4.381   3.305  0.00  0.00    +0.319 C 
ATOM      8  O   UNL     1      -4.804  -3.343   3.898  0.00  0.00    -0.251 OA
ATOM      9  N   UNL     1      -6.256  -4.922   3.322  0.00  0.00    -0.218 N 
ATOM     10  H   UNL     1      -6.412  -5.787   2.912  0.00  0.00    +0.174 HD
ENDROOT
BRANCH   1  12
ATOM     11  N   UNL     1      -0.607  -2.546   1.363  0.00  0.00    -0.312 N 
ATOM     12  C   UNL     1      -0.919  -3.769   0.891  0.00  0.00    +0.218 C 
ATOM     13  O   UNL     1      -0.068  -4.449   0.358  0.00  0.00    -0.275 OA
ATOM     14  H   UNL     1      -1.288  -2.002   1.789  0.00  0.00    +0.149 HD
BRANCH  11  15
ATOM     15  C   UNL     1       0.761  -2.038   1.231  0.00  0.00    +0.070 C 
ATOM     16  C   UNL     1       1.607  -2.544   2.401  0.00  0.00    +0.028 C 
BRANCH  15  17
ATOM     17  C   UNL     1       0.740  -0.508   1.241  0.00  0.00    +0.022 C 
BRANCH  17  19
ATOM     18  C   UNL     1      -0.022   1.530   0.013  0.00  0.00    +0.004 C 
ATOM     19  C   UNL     1      -0.001  -0.000   0.003  0.00  0.00    -0.002 C 
ENDBRANCH  17  19
ENDBRANCH  15  17
ENDBRANCH  11  15
ENDBRANCH   1  12
BRANCH   9  20
ATOM     20  N   UNL     1      -7.313  -4.235   3.934  0.00  0.00    -0.233 N 
ATOM     21  C   UNL     1      -8.523  -4.819   4.041  0.00  0.00    +0.229 C 
ATOM     22  O   UNL     1      -8.697  -5.938   3.608  0.00  0.00    -0.274 OA
ATOM     23  H   UNL     1      -7.174  -3.340   4.280  0.00  0.00    +0.173 HD
BRANCH  21  24
ATOM     24  C   UNL     1      -9.660  -4.080   4.698  0.00  0.00    +0.101 C 
BRANCH  24  25
ATOM     25  C   UNL     1     -10.912  -4.959   4.690  0.00  0.00    -0.002 C 
ATOM     26  C   UNL     1     -10.674  -6.194   5.561  0.00  0.00    +0.004 C 
ATOM     27  C   UNL     1     -11.926  -7.073   5.553  0.00  0.00    +0.000 C 
ATOM     28  C   UNL     1     -13.111  -6.279   6.106  0.00  0.00    +0.000 C 
ATOM     29  C   UNL     1     -13.349  -5.044   5.235  0.00  0.00    +0.000 C 
ATOM     30  C   UNL     1     -12.097  -4.165   5.243  0.00  0.00    +0.004 C 
ENDBRANCH  24  25
ENDBRANCH  21  24
ENDBRANCH   9  20
TORSDOF 7
