REMARK  Name = ZINC04809662
REMARK  3 active torsions:
REMARK  status: ('A' for Active; 'I' for Inactive)
REMARK    1  A    between atoms: N_13  and  N_16
REMARK    2  A    between atoms: N_16  and  C_17
REMARK    3  A    between atoms: C_17  and  N_19
REMARK                            x       y       z     vdW  Elec       q    Type
REMARK                         _______ _______ _______ _____ _____    ______ ____
ROOT
ATOM      1  C   UNL     1      -5.294   2.043  -4.359  0.00  0.00    +0.005 C 
ATOM      2  C   UNL     1      -5.955   3.423  -4.289  0.00  0.00    +0.005 C 
ATOM      3  C   UNL     1      -6.427   3.673  -2.849  0.00  0.00    +0.043 C 
ATOM      4  C   UNL     1      -5.304   3.328  -1.919  0.00  0.00    -0.004 A 
ATOM      5  C   UNL     1      -4.193   2.622  -2.211  0.00  0.00    -0.023 A 
ATOM      6  C   UNL     1      -3.250   2.431  -1.108  0.00  0.00    +0.075 A 
ATOM      7  C   UNL     1      -3.616   3.003   0.110  0.00  0.00    +0.094 A 
ATOM      8  S   UNL     1      -5.135   3.752  -0.208  0.00  0.00    -0.075 S 
ATOM      9  N   UNL     1      -2.818   2.895   1.217  0.00  0.00    -0.300 N 
ATOM     10  H   UNL     1      -3.103   3.318   2.077  0.00  0.00    +0.171 HD
ATOM     11  C   UNL     1      -1.652   2.223   1.157  0.00  0.00    +0.348 A 
ATOM     12  O   UNL     1      -0.963   2.136   2.155  0.00  0.00    -0.245 OA
ATOM     13  N   UNL     1      -1.234   1.650   0.017  0.00  0.00    -0.173 N 
ATOM     14  C   UNL     1      -1.958   1.709  -1.115  0.00  0.00    +0.282 A 
ATOM     15  O   UNL     1      -1.556   1.176  -2.132  0.00  0.00    -0.265 OA
ATOM     16  C   UNL     1      -3.960   2.067  -3.611  0.00  0.00    +0.037 C 
ENDROOT
BRANCH  13  17
ATOM     17  N   UNL     1      -0.011   0.966   0.007  0.00  0.00    -0.228 N 
ATOM     18  H   UNL     1       0.002  -0.004   0.002  0.00  0.00    +0.175 HD
BRANCH  17  19
ATOM     19  C   UNL     1       1.147   1.655   0.000  0.00  0.00    +0.146 C 
ATOM     20  S   UNL     1       2.641   0.820  -0.019  0.00  0.00    -0.017 S 
BRANCH  19  21
ATOM     21  N   UNL     1       1.129   3.003   0.007  0.00  0.00    -0.339 N 
ATOM     22  H   UNL     1       0.282   3.477   0.018  0.00  0.00    +0.144 HD
ATOM     23  H   UNL     1       1.962   3.499   0.002  0.00  0.00    +0.144 HD
ENDBRANCH  19  21
ENDBRANCH  17  19
ENDBRANCH  13  17
TORSDOF 3
