REMARK  Name = ZINC64870468
REMARK  6 active torsions:
REMARK  status: ('A' for Active; 'I' for Inactive)
REMARK    1  A    between atoms: C_1  and  O_2
REMARK    2  A    between atoms: O_2  and  C_3
REMARK    3  A    between atoms: C_8  and  C_9
REMARK    4  A    between atoms: C_9  and  N_10
REMARK    5  A    between atoms: C_16  and  C_23
REMARK    6  A    between atoms: C_26  and  C_30
REMARK                            x       y       z     vdW  Elec       q    Type
REMARK                         _______ _______ _______ _____ _____    ______ ____
ROOT
ATOM      1  N   UNL     1       0.950  -2.876  -1.151  0.00  0.00    -0.256 N 
ATOM      2  C   UNL     1       0.849  -1.927  -2.107  0.00  0.00    +0.265 A 
ATOM      3  O   UNL     1       0.025  -1.038  -2.019  0.00  0.00    -0.267 OA
ATOM      4  C   UNL     1       1.765  -1.997  -3.260  0.00  0.00    +0.063 A 
ATOM      5  C   UNL     1       1.724  -1.056  -4.286  0.00  0.00    +0.016 A 
ATOM      6  C   UNL     1       2.603  -1.165  -5.343  0.00  0.00    +0.008 A 
ATOM      7  C   UNL     1       3.522  -2.203  -5.388  0.00  0.00    -0.000 A 
ATOM      8  C   UNL     1       3.573  -3.142  -4.377  0.00  0.00    +0.034 A 
ATOM      9  C   UNL     1       2.697  -3.048  -3.306  0.00  0.00    +0.056 A 
ATOM     10  N   UNL     1       2.716  -3.970  -2.269  0.00  0.00    -0.307 N 
ATOM     11  H   UNL     1       3.353  -4.700  -2.287  0.00  0.00    +0.170 HD
ATOM     12  C   UNL     1       1.861  -3.857  -1.237  0.00  0.00    +0.330 A 
ATOM     13  O   UNL     1       1.913  -4.683  -0.347  0.00  0.00    -0.246 OA
ENDROOT
BRANCH   7  14
ATOM     14  C   UNL     1       4.474  -2.307  -6.551  0.00  0.00    +0.242 C 
ATOM     15  N   UNL     1       3.871  -1.713  -7.766  0.00  0.00    -0.265 NA
ATOM     16  C   UNL     1       4.971  -1.035  -8.485  0.00  0.00    +0.180 C 
ATOM     17  N   UNL     1       6.185  -1.252  -7.662  0.00  0.00    -0.177 NA
ATOM     18  O   UNL     1       5.660  -1.519  -6.303  0.00  0.00    -0.274 OA
ATOM     19  H   UNL     1       3.446  -2.424  -8.343  0.00  0.00    +0.127 HD
ATOM     20  H   UNL     1       6.717  -2.038  -8.004  0.00  0.00    +0.156 HD
BRANCH  16  21
ATOM     21  C   UNL     1       5.152  -1.644  -9.851  0.00  0.00    -0.010 A 
ATOM     22  C   UNL     1       4.066  -2.185 -10.515  0.00  0.00    +0.010 A 
ATOM     23  C   UNL     1       4.227  -2.744 -11.769  0.00  0.00    +0.050 A 
ATOM     24  C   UNL     1       5.478  -2.764 -12.364  0.00  0.00    +0.166 A 
ATOM     25  C   UNL     1       6.572  -2.219 -11.696  0.00  0.00    +0.167 A 
ATOM     26  C   UNL     1       6.402  -1.655 -10.442  0.00  0.00    +0.056 A 
ATOM     27  O   UNL     1       7.678  -2.360 -12.483  0.00  0.00    -0.453 OA
ATOM     28  C   UNL     1       7.330  -3.359 -13.460  0.00  0.00    +0.466 C 
ATOM     29  O   UNL     1       5.899  -3.247 -13.569  0.00  0.00    -0.453 OA
ENDBRANCH  16  21
ENDBRANCH   7  14
BRANCH   1  30
ATOM     30  C   UNL     1       0.052  -2.828   0.005  0.00  0.00    +0.168 C 
BRANCH  30  36
ATOM     31  C   UNL     1       0.626  -0.618   1.042  0.00  0.00    +0.125 A 
ATOM     32  C   UNL     1       1.202   0.139   2.051  0.00  0.00    +0.046 A 
ATOM     33  C   UNL     1       1.835  -0.488   3.107  0.00  0.00    +0.004 A 
ATOM     34  C   UNL     1       1.895  -1.869   3.158  0.00  0.00    +0.001 A 
ATOM     35  C   UNL     1       1.321  -2.625   2.153  0.00  0.00    +0.009 A 
ATOM     36  C   UNL     1       0.682  -2.003   1.097  0.00  0.00    +0.014 A 
BRANCH  31  38
ATOM     37  C   UNL     1      -0.017   1.425   0.010  0.00  0.00    +0.277 C 
ATOM     38  O   UNL     1       0.002  -0.004   0.002  0.00  0.00    -0.495 OA
ENDBRANCH  31  38
ENDBRANCH  30  36
ENDBRANCH   1  30
TORSDOF 5
