REMARK  Name = ZINC01084394
REMARK  8 active torsions:
REMARK  status: ('A' for Active; 'I' for Inactive)
REMARK    1  A    between atoms: C_1  and  C_2
REMARK    2  A    between atoms: C_2  and  C_3
REMARK    3  A    between atoms: C_4  and  C_30
REMARK    4  A    between atoms: C_6  and  N_11
REMARK    5  A    between atoms: C_7  and  C_8
REMARK    6  A    between atoms: C_12  and  C_14
REMARK    7  A    between atoms: C_16  and  C_24
REMARK    8  A    between atoms: C_27  and  C_29
REMARK                            x       y       z     vdW  Elec       q    Type
REMARK                         _______ _______ _______ _____ _____    ______ ____
ROOT
ATOM      1  N   UNL     1       1.478   3.441   0.014  0.00  0.00    -0.275 N 
ATOM      2  C   UNL     1       2.751   3.882  -0.004  0.00  0.00    +0.249 C 
ATOM      3  O   UNL     1       3.670   3.086  -0.024  0.00  0.00    -0.270 OA
ATOM      4  H   UNL     1       0.745   4.076   0.030  0.00  0.00    +0.156 HD
ENDROOT
BRANCH   2   5
ATOM      5  C   UNL     1       3.031   5.334   0.001  0.00  0.00    +0.048 A 
ATOM      6  C   UNL     1       2.008   6.265  -0.095  0.00  0.00    +0.042 A 
ATOM      7  C   UNL     1       2.320   7.636  -0.083  0.00  0.00    +0.079 A 
ATOM      8  N   UNL     1       3.561   8.074   0.008  0.00  0.00    -0.246 NA
ATOM      9  C   UNL     1       4.604   7.247   0.098  0.00  0.00    +0.072 A 
ATOM     10  C   UNL     1       4.399   5.845   0.099  0.00  0.00    +0.013 A 
ATOM     11  C   UNL     1       5.496   4.982   0.193  0.00  0.00    +0.011 A 
ATOM     12  C   UNL     1       6.755   5.499   0.284  0.00  0.00    +0.001 A 
ATOM     13  C   UNL     1       6.962   6.876   0.283  0.00  0.00    +0.002 A 
ATOM     14  C   UNL     1       5.917   7.744   0.193  0.00  0.00    +0.028 A 
BRANCH   7  15
ATOM     15  C   UNL     1       1.223   8.617  -0.179  0.00  0.00    +0.038 A 
ATOM     16  C   UNL     1       1.286   9.987  -0.184  0.00  0.00    +0.018 A 
ATOM     17  C   UNL     1       0.117  10.703  -0.287  0.00  0.00    +0.011 A 
ATOM     18  C   UNL     1      -1.064  10.034  -0.370  0.00  0.00    -0.013 A 
ATOM     19  S   UNL     1      -0.535   8.331  -0.310  0.00  0.00    -0.092 S 
ATOM     20  C   UNL     1      -2.461  10.589  -0.483  0.00  0.00    +0.051 C 
ENDBRANCH   7  15
ENDBRANCH   2   5
BRANCH   1  24
ATOM     21  C   UNL     1       0.002  -0.004   0.016  0.00  0.00    -0.024 A 
ATOM     22  C   UNL     1       1.207  -0.602  -0.008  0.00  0.00    -0.008 A 
ATOM     23  S   UNL     1       2.345   0.768  -0.018  0.00  0.00    -0.078 S 
ATOM     24  C   UNL     1       1.216   2.081   0.010  0.00  0.00    +0.085 A 
ATOM     25  C   UNL     1      -0.017   1.439   0.026  0.00  0.00    +0.068 A 
ATOM     26  C   UNL     1       1.519  -2.076  -0.023  0.00  0.00    +0.052 C 
BRANCH  25  27
ATOM     27  C   UNL     1      -1.276   2.191   0.046  0.00  0.00    +0.244 C 
ATOM     28  O   UNL     1      -1.786   2.496   1.108  0.00  0.00    -0.270 OA
ATOM     29  N   UNL     1      -1.868   2.545  -1.112  0.00  0.00    -0.325 N 
ATOM     30  H   UNL     1      -1.461   2.301  -1.959  0.00  0.00    +0.145 HD
ATOM     31  H   UNL     1      -2.700   3.042  -1.099  0.00  0.00    +0.145 HD
ENDBRANCH  25  27
BRANCH  21  33
ATOM     32  C   UNL     1      -1.729  -1.069  -1.405  0.00  0.00    +0.009 C 
ATOM     33  C   UNL     1      -1.273  -0.807   0.032  0.00  0.00    +0.033 C 
ENDBRANCH  21  33
ENDBRANCH   1  24
TORSDOF 5
