REMARK  Name = ZINC03283849
REMARK  7 active torsions:
REMARK  status: ('A' for Active; 'I' for Inactive)
REMARK    1  A    between atoms: C_1  and  C_2
REMARK    2  A    between atoms: C_8  and  O_19
REMARK    3  A    between atoms: N_10  and  C_13
REMARK    4  A    between atoms: N_11  and  C_12
REMARK    5  A    between atoms: O_19  and  C_20
REMARK    6  A    between atoms: C_22  and  C_30
REMARK    7  A    between atoms: C_24  and  C_26
REMARK                            x       y       z     vdW  Elec       q    Type
REMARK                         _______ _______ _______ _____ _____    ______ ____
ROOT
ATOM      1  C   UNL     1       2.657  -2.593  -0.037  0.00  0.00    +0.067 C 
ATOM      2  C   UNL     1       1.404  -1.757  -0.020  0.00  0.00    +0.058 A 
ATOM      3  C   UNL     1       1.364  -0.403  -0.013  0.00  0.00    +0.092 A 
ATOM      4  N   UNL     1       2.136   0.763  -0.014  0.00  0.00    -0.316 N 
ATOM      5  H   UNL     1       3.105   0.800  -0.023  0.00  0.00    +0.169 HD
ATOM      6  C   UNL     1       1.310   1.826  -0.001  0.00  0.00    +0.294 A 
ATOM      7  O   UNL     1       1.661   2.996   0.002  0.00  0.00    -0.264 OA
ATOM      8  C   UNL     1      -0.017   1.375   0.010  0.00  0.00    +0.220 A 
ATOM      9  C   UNL     1       0.002  -0.004   0.002  0.00  0.00    +0.137 A 
ATOM     10  N   UNL     1      -0.763  -1.161   0.004  0.00  0.00    -0.247 N 
ATOM     11  N   UNL     1       0.126  -2.245  -0.011  0.00  0.00    -0.285 N 
ATOM     12  C   UNL     1      -0.250  -3.661  -0.014  0.00  0.00    +0.171 C 
ENDROOT
BRANCH  10  13
ATOM     13  C   UNL     1      -2.158  -1.233   0.017  0.00  0.00    +0.064 A 
ATOM     14  C   UNL     1      -2.889  -0.428   0.883  0.00  0.00    +0.028 A 
ATOM     15  C   UNL     1      -4.268  -0.497   0.889  0.00  0.00    +0.002 A 
ATOM     16  C   UNL     1      -4.922  -1.375   0.044  0.00  0.00    +0.000 A 
ATOM     17  C   UNL     1      -4.198  -2.181  -0.816  0.00  0.00    +0.002 A 
ATOM     18  C   UNL     1      -2.819  -2.113  -0.831  0.00  0.00    +0.028 A 
ENDBRANCH  10  13
BRANCH   8  19
ATOM     19  O   UNL     1      -1.130   2.162   0.019  0.00  0.00    -0.448 OA
BRANCH  19  20
ATOM     20  C   UNL     1      -1.645   2.523   1.223  0.00  0.00    +0.130 A 
ATOM     21  C   UNL     1      -1.043   2.089   2.396  0.00  0.00    +0.058 A 
ATOM     22  C   UNL     1      -1.565   2.463   3.619  0.00  0.00    +0.059 A 
ATOM     23  C   UNL     1      -2.694   3.260   3.675  0.00  0.00    +0.025 A 
ATOM     24  C   UNL     1      -3.299   3.689   2.509  0.00  0.00    +0.059 A 
ATOM     25  C   UNL     1      -2.778   3.323   1.283  0.00  0.00    +0.058 A 
BRANCH  24  26
ATOM     26  C   UNL     1      -4.529   4.558   2.575  0.00  0.00    +0.418 C 
ATOM     27  F   UNL     1      -4.955   4.862   1.277  0.00  0.00    -0.166 F 
ATOM     28  F   UNL     1      -5.546   3.876   3.252  0.00  0.00    -0.166 F 
ATOM     29  F   UNL     1      -4.228   5.742   3.256  0.00  0.00    -0.166 F 
ENDBRANCH  24  26
BRANCH  22  30
ATOM     30  C   UNL     1      -0.908   1.996   4.892  0.00  0.00    +0.418 C 
ATOM     31  F   UNL     1      -1.467   0.775   5.285  0.00  0.00    -0.166 F 
ATOM     32  F   UNL     1       0.464   1.834   4.676  0.00  0.00    -0.166 F 
ATOM     33  F   UNL     1      -1.113   2.947   5.898  0.00  0.00    -0.166 F 
ENDBRANCH  22  30
ENDBRANCH  19  20
ENDBRANCH   8  19
TORSDOF 5
