REMARK  Name = ZINC21329041
REMARK  9 active torsions:
REMARK  status: ('A' for Active; 'I' for Inactive)
REMARK    1  A    between atoms: C_1  and  C_2
REMARK    2  A    between atoms: C_2  and  C_4
REMARK    3  A    between atoms: C_2  and  N_11
REMARK    4  A    between atoms: C_12  and  C_14
REMARK    5  A    between atoms: C_14  and  S_15
REMARK    6  A    between atoms: S_15  and  C_16
REMARK    7  A    between atoms: C_19  and  C_28
REMARK    8  A    between atoms: N_20  and  C_21
REMARK    9  A    between atoms: C_21  and  C_22
REMARK                            x       y       z     vdW  Elec       q    Type
REMARK                         _______ _______ _______ _____ _____    ______ ____
ROOT
ATOM      1  C   UNL     1      -2.849   7.757   3.046  0.00  0.00    +0.192 A 
ATOM      2  N   UNL     1      -3.826   6.884   3.121  0.00  0.00    -0.122 NA
ATOM      3  N   UNL     1      -4.835   7.399   3.727  0.00  0.00    -0.128 NA
ATOM      4  C   UNL     1      -4.567   8.639   4.069  0.00  0.00    +0.167 A 
ATOM      5  N   UNL     1      -3.287   8.907   3.643  0.00  0.00    -0.300 N 
ENDROOT
BRANCH   4   6
ATOM      6  C   UNL     1      -5.471   9.569   4.775  0.00  0.00    +0.044 A 
ATOM      7  C   UNL     1      -5.159  10.351   5.841  0.00  0.00    +0.095 A 
ATOM      8  N   UNL     1      -6.252  11.076   6.216  0.00  0.00    -0.360 N 
ATOM      9  H   UNL     1      -6.185  11.774   7.063  0.00  0.00    +0.165 HD
ATOM     10  C   UNL     1      -7.323  10.779   5.401  0.00  0.00    +0.047 A 
ATOM     11  C   UNL     1      -6.888   9.826   4.465  0.00  0.00    +0.010 A 
ATOM     12  C   UNL     1      -7.771   9.337   3.504  0.00  0.00    +0.011 A 
ATOM     13  C   UNL     1      -9.071   9.792   3.479  0.00  0.00    +0.001 A 
ATOM     14  C   UNL     1      -9.502  10.733   4.403  0.00  0.00    +0.002 A 
ATOM     15  C   UNL     1      -8.640  11.226   5.358  0.00  0.00    +0.026 A 
ENDBRANCH   4   6
BRANCH   1  16
ATOM     16  S   UNL     1      -1.270   7.499   2.308  0.00  0.00    -0.077 S 
BRANCH  16  17
ATOM     17  C   UNL     1      -1.456   5.783   1.760  0.00  0.00    +0.173 C 
BRANCH  17  19
ATOM     18  N   UNL     1      -0.097   4.082   0.587  0.00  0.00    -0.308 N 
ATOM     19  C   UNL     1      -0.189   5.333   1.079  0.00  0.00    +0.224 C 
ATOM     20  O   UNL     1       0.747   6.097   0.975  0.00  0.00    -0.275 OA
ATOM     21  H   UNL     1      -0.946   3.389   0.682  0.00  0.00    +0.149 HD
BRANCH  18  23
ATOM     22  C   UNL     1       1.099   4.063  -1.546  0.00  0.00    +0.033 C 
ATOM     23  C   UNL     1       1.135   3.644  -0.075  0.00  0.00    +0.102 C 
BRANCH  23  24
ATOM     24  C   UNL     1       1.249   2.144   0.018  0.00  0.00    -0.009 A 
ATOM     25  C   UNL     1       0.112   1.373   0.167  0.00  0.00    +0.007 A 
ATOM     26  C   UNL     1       0.216  -0.003   0.251  0.00  0.00    +0.000 A 
ATOM     27  C   UNL     1       1.458  -0.608   0.186  0.00  0.00    +0.001 A 
ATOM     28  C   UNL     1       2.595   0.163   0.037  0.00  0.00    +0.020 A 
ATOM     29  C   UNL     1       2.491   1.540  -0.047  0.00  0.00    +0.046 A 
ATOM     30 CL   UNL     1       3.920   2.509  -0.233  0.00  0.00    -0.083 Cl
ENDBRANCH  23  24
ENDBRANCH  18  23
ENDBRANCH  17  19
ENDBRANCH  16  17
ENDBRANCH   1  16
BRANCH   5  31
ATOM     31  C   UNL     1      -2.547  10.162   3.797  0.00  0.00    +0.157 C 
BRANCH  31  32
ATOM     32  C   UNL     1      -2.703  11.005   2.529  0.00  0.00    +0.138 C 
ATOM     33  C   UNL     1      -1.830  12.274   2.633  0.00  0.00    +0.035 C 
ATOM     34  C   UNL     1      -2.744  13.354   1.991  0.00  0.00    +0.031 C 
ATOM     35  C   UNL     1      -4.144  12.858   2.434  0.00  0.00    +0.160 C 
ATOM     36  O   UNL     1      -4.065  11.424   2.388  0.00  0.00    -0.375 OA
ENDBRANCH  31  32
ENDBRANCH   5  31
TORSDOF 8
