REMARK  Name = ZINC13499005
REMARK  14 active torsions:
REMARK  status: ('A' for Active; 'I' for Inactive)
REMARK    1  A    between atoms: C_1  and  C_2
REMARK    2  A    between atoms: C_4  and  C_34
REMARK    3  A    between atoms: C_7  and  C_14
REMARK    4  A    between atoms: C_14  and  N_71
REMARK    5  A    between atoms: C_15  and  N_71
REMARK    6  A    between atoms: C_20  and  C_22
REMARK    7  A    between atoms: C_20  and  C_31
REMARK    8  A    between atoms: C_20  and  N_71
REMARK    9  A    between atoms: N_26  and  C_27
REMARK   10  A    between atoms: C_27  and  C_28
REMARK   11  A    between atoms: C_27  and  C_29
REMARK   12  A    between atoms: C_27  and  C_30
REMARK   13  A    between atoms: C_31  and  C_32
REMARK   14  A    between atoms: C_31  and  C_33
REMARK                            x       y       z     vdW  Elec       q    Type
REMARK                         _______ _______ _______ _____ _____    ______ ____
ROOT
ATOM      1  N   UNL     1      -0.641  -1.177  -1.168  0.00  0.00    +0.391 N 
ATOM      2  H   UNL     1      -0.025  -1.935  -0.851  0.00  0.00    -0.080 HD
ENDROOT
BRANCH   1   3
ATOM      3  C   UNL     1      -0.090  -0.598  -2.412  0.00  0.00    -0.067 C 
ATOM      4  C   UNL     1      -0.342  -1.560  -3.591  0.00  0.00    -0.015 C 
ATOM      5  C   UNL     1       0.947  -1.459  -4.445  0.00  0.00    -0.002 C 
ATOM      6  C   UNL     1       2.059  -1.344  -3.374  0.00  0.00    -0.002 C 
ATOM      7  C   UNL     1       1.436  -0.461  -2.274  0.00  0.00    -0.015 C 
ENDBRANCH   1   3
BRANCH   1   8
ATOM      8  C   UNL     1      -1.989  -1.728  -1.421  0.00  0.00    -0.036 C 
BRANCH   8  15
ATOM      9  C   UNL     1      -6.633   3.504  -5.253  0.00  0.00    +0.044 C 
ATOM     10  C   UNL     1      -5.716   2.423  -4.740  0.00  0.00    -0.048 A 
ATOM     11  C   UNL     1      -5.157   1.517  -5.631  0.00  0.00    +0.007 A 
ATOM     12  C   UNL     1      -4.324   0.529  -5.187  0.00  0.00    -0.041 A 
ATOM     13  C   UNL     1      -4.032   0.429  -3.822  0.00  0.00    +0.002 A 
ATOM     14  C   UNL     1      -3.140  -0.614  -3.313  0.00  0.00    +0.017 A 
ATOM     15  C   UNL     1      -2.899  -0.665  -1.979  0.00  0.00    +0.001 A 
ATOM     16  C   UNL     1      -3.492   0.279  -1.113  0.00  0.00    +0.251 A 
ATOM     17  O   UNL     1      -3.257   0.218   0.082  0.00  0.00    -0.268 OA
ATOM     18  N   UNL     1      -4.308   1.243  -1.572  0.00  0.00    -0.322 N 
ATOM     19  H   UNL     1      -4.699   1.875  -0.949  0.00  0.00    +0.169 HD
ATOM     20  C   UNL     1      -4.598   1.346  -2.916  0.00  0.00    +0.050 A 
ATOM     21  C   UNL     1      -5.443   2.343  -3.392  0.00  0.00    +0.029 A 
ATOM     22  C   UNL     1      -3.721  -0.448  -6.163  0.00  0.00    +0.044 C 
ENDBRANCH   8  15
ENDBRANCH   1   8
BRANCH   1  23
ATOM     23  C   UNL     1      -0.709  -0.141  -0.116  0.00  0.00    +0.006 C 
BRANCH  23  24
ATOM     24  C   UNL     1       0.675   0.407   0.122  0.00  0.00    +0.139 A 
ATOM     25  N   UNL     1       1.738  -0.276   0.472  0.00  0.00    -0.115 NA
ATOM     26  N   UNL     1       2.724   0.547   0.575  0.00  0.00    -0.023 NA
ATOM     27  N   UNL     1       2.318   1.737   0.299  0.00  0.00    -0.043 NA
ATOM     28  N   UNL     1       1.060   1.692   0.014  0.00  0.00    -0.226 N 
BRANCH  28  29
ATOM     29  C   UNL     1       0.212   2.826  -0.361  0.00  0.00    +0.059 C 
ATOM     30  C   UNL     1      -0.930   2.964   0.648  0.00  0.00    +0.036 C 
ATOM     31  C   UNL     1       1.046   4.108  -0.366  0.00  0.00    +0.036 C 
ATOM     32  C   UNL     1      -0.367   2.589  -1.758  0.00  0.00    +0.036 C 
ENDBRANCH  28  29
ENDBRANCH  23  24
BRANCH  23  33
ATOM     33  C   UNL     1      -1.234  -0.777   1.173  0.00  0.00    -0.024 C 
ATOM     34  C   UNL     1      -0.329  -1.945   1.571  0.00  0.00    +0.006 C 
ATOM     35  C   UNL     1      -1.239   0.267   2.291  0.00  0.00    +0.006 C 
ENDBRANCH  23  33
ENDBRANCH   1  23
TORSDOF 7
