REMARK  Name = ZINC18167142
REMARK  2 active torsions:
REMARK  status: ('A' for Active; 'I' for Inactive)
REMARK    1  A    between atoms: C_4  and  N_7
REMARK    2  A    between atoms: C_13  and  C_14
REMARK                            x       y       z     vdW  Elec       q    Type
REMARK                         _______ _______ _______ _____ _____    ______ ____
ROOT
ATOM      1  N   UNL     1       3.236  -1.216  -0.560  0.00  0.00    -0.226 NA
ATOM      2  C   UNL     1       3.518  -2.102   0.370  0.00  0.00    +0.166 C 
ATOM      3  N   UNL     1       2.706  -2.596   1.370  0.00  0.00    -0.260 N 
ATOM      4  C   UNL     1       3.172  -3.493   2.221  0.00  0.00    +0.256 C 
ATOM      5  O   UNL     1       2.467  -3.938   3.109  0.00  0.00    -0.269 OA
ATOM      6  C   UNL     1       4.523  -3.928   2.074  0.00  0.00    +0.078 C 
ATOM      7  C   UNL     1       5.223  -4.830   2.815  0.00  0.00    +0.030 C 
ATOM      8  S   UNL     1       5.048  -2.979   0.654  0.00  0.00    -0.049 S 
ATOM      9  H   UNL     1       1.791  -2.284   1.449  0.00  0.00    +0.157 HD
ENDROOT
BRANCH   7  10
ATOM     10  C   UNL     1       6.554  -5.258   2.381  0.00  0.00    +0.001 A 
ATOM     11  C   UNL     1       7.345  -4.649   1.448  0.00  0.00    +0.091 A 
ATOM     12  N   UNL     1       8.508  -5.337   1.315  0.00  0.00    -0.360 N 
ATOM     13  H   UNL     1       9.228  -5.096   0.712  0.00  0.00    +0.165 HD
ATOM     14  C   UNL     1       8.522  -6.426   2.161  0.00  0.00    +0.047 A 
ATOM     15  C   UNL     1       7.309  -6.427   2.869  0.00  0.00    +0.007 A 
ATOM     16  C   UNL     1       7.049  -7.422   3.808  0.00  0.00    +0.010 A 
ATOM     17  C   UNL     1       7.988  -8.403   4.040  0.00  0.00    +0.001 A 
ATOM     18  C   UNL     1       9.188  -8.402   3.345  0.00  0.00    +0.002 A 
ATOM     19  C   UNL     1       9.455  -7.428   2.407  0.00  0.00    +0.026 A 
ENDBRANCH   7  10
BRANCH   1  23
ATOM     20  C   UNL     1      -0.530   0.491  -0.717  0.00  0.00    +0.000 A 
ATOM     21  C   UNL     1       0.593   1.288  -0.851  0.00  0.00    +0.002 A 
ATOM     22  C   UNL     1       1.852   0.726  -0.799  0.00  0.00    +0.028 A 
ATOM     23  C   UNL     1       1.991  -0.652  -0.612  0.00  0.00    +0.067 A 
ATOM     24  C   UNL     1       0.852  -1.450  -0.478  0.00  0.00    +0.028 A 
ATOM     25  C   UNL     1      -0.400  -0.874  -0.531  0.00  0.00    +0.002 A 
ENDBRANCH   1  23
TORSDOF 2
