REMARK  Name = ZINC13064753
REMARK  13 active torsions:
REMARK  status: ('A' for Active; 'I' for Inactive)
REMARK    1  A    between atoms: C_1  and  C_2
REMARK    2  A    between atoms: C_2  and  C_3
REMARK    3  A    between atoms: C_3  and  C_5
REMARK    4  A    between atoms: C_3  and  N_69
REMARK    5  A    between atoms: N_9  and  C_10
REMARK    6  A    between atoms: C_10  and  C_11
REMARK    7  A    between atoms: C_11  and  O_12
REMARK    8  A    between atoms: O_12  and  C_13
REMARK    9  A    between atoms: C_14  and  C_15
REMARK   10  A    between atoms: C_14  and  N_69
REMARK   11  A    between atoms: C_19  and  C_28
REMARK   12  A    between atoms: C_20  and  C_27
REMARK   13  A    between atoms: C_29  and  N_69
REMARK                            x       y       z     vdW  Elec       q    Type
REMARK                         _______ _______ _______ _____ _____    ______ ____
ROOT
ATOM      1  N   UNL     1      -0.545   2.838   1.466  0.00  0.00    +0.391 N 
ATOM      2  H   UNL     1      -0.549   3.131   2.450  0.00  0.00    -0.080 HD
ENDROOT
BRANCH   1   3
ATOM      3  C   UNL     1       0.772   3.159   0.876  0.00  0.00    -0.067 C 
ATOM      4  C   UNL     1       0.874   2.598  -0.544  0.00  0.00    -0.015 C 
ATOM      5  C   UNL     1       2.245   2.940  -1.130  0.00  0.00    -0.002 C 
ATOM      6  C   UNL     1       3.341   2.324  -0.258  0.00  0.00    -0.000 C 
ATOM      7  C   UNL     1       3.239   2.884   1.162  0.00  0.00    -0.002 C 
ATOM      8  C   UNL     1       1.867   2.542   1.748  0.00  0.00    -0.015 C 
ENDBRANCH   1   3
BRANCH   1   9
ATOM      9  C   UNL     1      -0.788   1.382   1.397  0.00  0.00    +0.003 C 
BRANCH   9  10
ATOM     10  C   UNL     1      -1.172   0.977  -0.003  0.00  0.00    +0.138 A 
ATOM     11  N   UNL     1      -2.069   1.553  -0.766  0.00  0.00    -0.115 NA
ATOM     12  N   UNL     1      -2.105   0.918  -1.886  0.00  0.00    -0.023 NA
ATOM     13  N   UNL     1      -1.260  -0.054  -1.854  0.00  0.00    -0.044 NA
ATOM     14  N   UNL     1      -0.666  -0.050  -0.709  0.00  0.00    -0.229 N 
BRANCH  14  15
ATOM     15  C   UNL     1       0.367  -0.989  -0.263  0.00  0.00    +0.175 C 
BRANCH  15  16
ATOM     16  C   UNL     1      -0.294  -2.185   0.425  0.00  0.00    +0.183 C 
BRANCH  16  17
ATOM     17  O   UNL     1       0.713  -3.100   0.861  0.00  0.00    -0.381 OA
ATOM     18  C   UNL     1       0.199  -4.260   1.520  0.00  0.00    +0.194 C 
ENDBRANCH  16  17
ENDBRANCH  15  16
ENDBRANCH  14  15
ENDBRANCH   9  10
BRANCH   9  20
ATOM     19  C   UNL     1      -1.486   1.324   3.796  0.00  0.00    +0.002 C 
ATOM     20  C   UNL     1      -1.924   1.028   2.360  0.00  0.00    -0.011 C 
ENDBRANCH   9  20
ENDBRANCH   1   9
BRANCH   1  21
ATOM     21  C   UNL     1      -1.612   3.563   0.745  0.00  0.00    -0.036 C 
BRANCH  21  22
ATOM     22  C   UNL     1      -1.569   5.014   1.149  0.00  0.00    +0.001 A 
ATOM     23  C   UNL     1      -0.919   5.914   0.371  0.00  0.00    +0.017 A 
ATOM     24  C   UNL     1      -0.896   7.316   0.792  0.00  0.00    -0.001 A 
ATOM     25  C   UNL     1      -0.241   8.290   0.030  0.00  0.00    +0.013 A 
ATOM     26  C   UNL     1      -0.238   9.589   0.451  0.00  0.00    -0.047 A 
ATOM     27  C   UNL     1      -0.880   9.953   1.627  0.00  0.00    -0.046 A 
ATOM     28  C   UNL     1      -1.531   9.010   2.393  0.00  0.00    +0.030 A 
ATOM     29  C   UNL     1      -1.548   7.681   1.985  0.00  0.00    +0.049 A 
ATOM     30  N   UNL     1      -2.192   6.717   2.732  0.00  0.00    -0.322 N 
ATOM     31  H   UNL     1      -2.640   6.970   3.554  0.00  0.00    +0.169 HD
ATOM     32  C   UNL     1      -2.212   5.433   2.334  0.00  0.00    +0.251 A 
ATOM     33  O   UNL     1      -2.796   4.609   3.017  0.00  0.00    -0.268 OA
ATOM     34  C   UNL     1      -0.863  11.393   2.072  0.00  0.00    +0.044 C 
ATOM     35  C   UNL     1       0.467  10.638  -0.370  0.00  0.00    +0.044 C 
ENDBRANCH  21  22
ENDBRANCH   1  21
TORSDOF 9
