REMARK  Name = ZINC59047576
REMARK  12 active torsions:
REMARK  status: ('A' for Active; 'I' for Inactive)
REMARK    1  A    between atoms: C_1  and  C_2
REMARK    2  A    between atoms: C_2  and  C_3
REMARK    3  A    between atoms: C_2  and  C_4
REMARK    4  A    between atoms: C_4  and  S_5
REMARK    5  A    between atoms: S_5  and  C_6
REMARK    6  A    between atoms: C_12  and  C_14
REMARK    7  A    between atoms: C_14  and  S_15
REMARK    8  A    between atoms: S_15  and  C_16
REMARK    9  A    between atoms: C_19  and  C_27
REMARK   10  A    between atoms: N_20  and  C_21
REMARK   11  A    between atoms: C_27  and  C_28
REMARK   12  A    between atoms: C_28  and  C_29
REMARK                            x       y       z     vdW  Elec       q    Type
REMARK                         _______ _______ _______ _____ _____    ______ ____
ROOT
ATOM      1  C   UNL     1     -12.049  -4.546   0.083  0.00  0.00    +0.197 A 
ATOM      2  N   UNL     1     -12.055  -5.855  -0.018  0.00  0.00    -0.122 NA
ATOM      3  N   UNL     1     -13.265  -6.289  -0.009  0.00  0.00    -0.133 NA
ATOM      4  C   UNL     1     -14.098  -5.293   0.097  0.00  0.00    +0.139 A 
ATOM      5  N   UNL     1     -13.355  -4.145   0.166  0.00  0.00    -0.274 N 
ENDROOT
BRANCH   5   6
ATOM      6  C   UNL     1     -13.832  -2.832   0.291  0.00  0.00    +0.050 A 
ATOM      7  C   UNL     1     -14.498  -2.442   1.445  0.00  0.00    +0.026 A 
ATOM      8  C   UNL     1     -14.967  -1.148   1.566  0.00  0.00    +0.002 A 
ATOM      9  C   UNL     1     -14.773  -0.242   0.540  0.00  0.00    +0.000 A 
ATOM     10  C   UNL     1     -14.109  -0.628  -0.611  0.00  0.00    +0.002 A 
ATOM     11  C   UNL     1     -13.633  -1.919  -0.735  0.00  0.00    +0.026 A 
ENDBRANCH   5   6
BRANCH   1  12
ATOM     12  S   UNL     1     -10.629  -3.503   0.113  0.00  0.00    -0.076 S 
BRANCH  12  13
ATOM     13  C   UNL     1      -9.236  -4.656  -0.035  0.00  0.00    +0.173 C 
BRANCH  13  20
ATOM     14  C   UNL     1      -3.116  -2.791  -0.118  0.00  0.00    +0.160 A 
ATOM     15  N   UNL     1      -4.196  -2.031  -0.014  0.00  0.00    -0.133 NA
ATOM     16  N   UNL     1      -5.358  -2.521  -0.009  0.00  0.00    -0.125 NA
ATOM     17  C   UNL     1      -5.571  -3.823  -0.108  0.00  0.00    +0.189 A 
ATOM     18  S   UNL     1      -3.882  -4.405  -0.228  0.00  0.00    -0.024 S 
ATOM     19  N   UNL     1      -6.766  -4.536  -0.120  0.00  0.00    -0.263 N 
ATOM     20  C   UNL     1      -7.942  -3.884  -0.022  0.00  0.00    +0.229 C 
ATOM     21  O   UNL     1      -7.958  -2.675   0.078  0.00  0.00    -0.275 OA
ATOM     22  H   UNL     1      -6.754  -5.503  -0.199  0.00  0.00    +0.157 HD
BRANCH  14  23
ATOM     23  S   UNL     1      -1.412  -2.341  -0.146  0.00  0.00    -0.097 S 
BRANCH  23  24
ATOM     24  C   UNL     1      -1.433  -0.534   0.013  0.00  0.00    +0.079 C 
BRANCH  24  26
ATOM     25  C   UNL     1      -0.019   1.526   0.010  0.00  0.00    +0.008 C 
ATOM     26  C   UNL     1       0.002  -0.004   0.002  0.00  0.00    -0.007 C 
ATOM     27  C   UNL     1       0.742  -0.511   1.242  0.00  0.00    +0.008 C 
ENDBRANCH  24  26
ENDBRANCH  23  24
ENDBRANCH  14  23
ENDBRANCH  13  20
ENDBRANCH  12  13
ENDBRANCH   1  12
BRANCH   4  28
ATOM     28  C   UNL     1     -15.602  -5.387   0.142  0.00  0.00    +0.081 C 
BRANCH  28  29
ATOM     29  C   UNL     1     -16.060  -5.530   1.595  0.00  0.00    +0.043 C 
BRANCH  29  30
ATOM     30  C   UNL     1     -17.564  -5.624   1.640  0.00  0.00    -0.047 A 
ATOM     31  C   UNL     1     -18.325  -4.476   1.750  0.00  0.00    +0.003 A 
ATOM     32  C   UNL     1     -19.704  -4.562   1.791  0.00  0.00    +0.000 A 
ATOM     33  C   UNL     1     -20.322  -5.797   1.723  0.00  0.00    +0.000 A 
ATOM     34  C   UNL     1     -19.560  -6.946   1.613  0.00  0.00    +0.000 A 
ATOM     35  C   UNL     1     -18.181  -6.859   1.567  0.00  0.00    +0.003 A 
ENDBRANCH  29  30
ENDBRANCH  28  29
ENDBRANCH   4  28
TORSDOF 10
