REMARK  Name = ZINC67435181
REMARK  7 active torsions:
REMARK  status: ('A' for Active; 'I' for Inactive)
REMARK    1  A    between atoms: C_1  and  C_2
REMARK    2  A    between atoms: C_2  and  C_3
REMARK    3  A    between atoms: C_3  and  N_4
REMARK    4  A    between atoms: C_7  and  C_9
REMARK    5  A    between atoms: C_13  and  N_17
REMARK    6  A    between atoms: N_17  and  C_18
REMARK    7  A    between atoms: C_18  and  C_25
REMARK                            x       y       z     vdW  Elec       q    Type
REMARK                         _______ _______ _______ _____ _____    ______ ____
ROOT
ATOM      1  N   UNL     1       1.420  -1.429  -0.737  0.00  0.00    -0.267 N 
ATOM      2  C   UNL     1       2.241  -2.389  -0.263  0.00  0.00    +0.043 A 
ATOM      3  C   UNL     1       1.711  -3.583  -0.622  0.00  0.00    +0.006 A 
ATOM      4  C   UNL     1       0.534  -3.286  -1.331  0.00  0.00    +0.177 A 
ATOM      5  N   UNL     1       0.425  -1.968  -1.353  0.00  0.00    -0.164 NA
ATOM      6  C   UNL     1       2.318  -4.920  -0.295  0.00  0.00    +0.024 C 
ATOM      7  C   UNL     1       3.777  -4.697   0.124  0.00  0.00    -0.066 C 
ATOM      8  C   UNL     1       3.844  -3.587   1.177  0.00  0.00    -0.009 C 
ATOM      9  C   UNL     1       3.517  -2.238   0.525  0.00  0.00    +0.054 C 
ENDROOT
BRANCH   4  10
ATOM     10  C   UNL     1      -0.401  -4.256  -1.929  0.00  0.00    +0.406 C 
ATOM     11  O   UNL     1      -0.183  -5.456  -1.831  0.00  0.00    -0.239 OA
ATOM     12  O   UNL     1      -1.394  -3.862  -2.523  0.00  0.00    -0.239 OA
ENDBRANCH   4  10
BRANCH   7  13
ATOM     13  N   UNL     1       4.320  -5.940   0.687  0.00  0.00    +0.391 N 
ATOM     14  H   UNL     1       5.236  -5.763   1.073  0.00  0.00    -0.084 HD
ATOM     15  H   UNL     1       3.707  -6.275   1.416  0.00  0.00    -0.084 HD
BRANCH  13  16
ATOM     16  C   UNL     1       4.423  -6.954  -0.371  0.00  0.00    +0.010 C 
ATOM     17  C   UNL     1       5.112  -8.208   0.204  0.00  0.00    -0.003 C 
ATOM     18  C   UNL     1       4.769  -9.384  -0.669  0.00  0.00    -0.001 C 
ATOM     19  C   UNL     1       5.835  -9.645  -1.751  0.00  0.00    -0.000 C 
ATOM     20  C   UNL     1       6.352  -8.350  -2.405  0.00  0.00    -0.000 C 
ATOM     21  C   UNL     1       5.249  -7.366  -2.685  0.00  0.00    -0.001 C 
ATOM     22  C   UNL     1       5.151  -6.387  -1.497  0.00  0.00    -0.003 C 
BRANCH  16  23
ATOM     23  C   UNL     1       3.035  -7.327  -0.825  0.00  0.00    +0.200 C 
ATOM     24  O   UNL     1       2.785  -7.406  -2.009  0.00  0.00    -0.278 OA
ATOM     25  N   UNL     1       2.072  -7.572   0.085  0.00  0.00    -0.330 N 
ATOM     26  H   UNL     1       2.288  -7.580   1.030  0.00  0.00    +0.145 HD
ATOM     27  H   UNL     1       1.162  -7.740  -0.206  0.00  0.00    +0.145 HD
ENDBRANCH  16  23
ENDBRANCH  13  16
ENDBRANCH   7  13
BRANCH   1  28
ATOM     28  C   UNL     1       1.627   0.012  -0.572  0.00  0.00    +0.143 C 
BRANCH  28  30
ATOM     29  C   UNL     1       1.168   1.983   0.893  0.00  0.00    +0.005 C 
ATOM     30  C   UNL     1       0.953   0.478   0.721  0.00  0.00    +0.020 C 
ENDBRANCH  28  30
ENDBRANCH   1  28
TORSDOF 6
