REMARK  Name = ZINC04809607
REMARK  2 active torsions:
REMARK  status: ('A' for Active; 'I' for Inactive)
REMARK    1  A    between atoms: C_10  and  C_26
REMARK    2  A    between atoms: C_16  and  C_21
REMARK                            x       y       z     vdW  Elec       q    Type
REMARK                         _______ _______ _______ _____ _____    ______ ____
ROOT
ATOM      1  C   UNL     1      -7.573   1.304   1.447  0.00  0.00    +0.002 A 
ATOM      2  C   UNL     1      -6.851   0.146   1.216  0.00  0.00    +0.002 A 
ATOM      3  C   UNL     1      -5.518   0.175   0.839  0.00  0.00    +0.028 A 
ATOM      4  C   UNL     1      -4.926   1.424   0.700  0.00  0.00    +0.071 A 
ATOM      5  C   UNL     1      -5.661   2.613   0.936  0.00  0.00    +0.091 A 
ATOM      6  C   UNL     1      -7.007   2.560   1.316  0.00  0.00    +0.030 A 
ATOM      7  N   UNL     1      -4.827   3.651   0.724  0.00  0.00    -0.214 NA
ATOM      8  C   UNL     1      -3.651   3.198   0.384  0.00  0.00    +0.202 A 
ATOM      9  N   UNL     1      -3.667   1.821   0.351  0.00  0.00    -0.299 N 
ATOM     10  C   UNL     1      -2.497   1.025  -0.008  0.00  0.00    +0.162 C 
ATOM     11  C   UNL     1      -1.252   1.882   0.018  0.00  0.00    +0.040 C 
ATOM     12  C   UNL     1      -1.306   3.230   0.061  0.00  0.00    +0.020 C 
ATOM     13  N   UNL     1      -2.502   3.907   0.082  0.00  0.00    -0.288 N 
ATOM     14  C   UNL     1      -0.043   4.058   0.088  0.00  0.00    +0.063 C 
ATOM     15  C   UNL     1       1.069   3.326  -0.667  0.00  0.00    +0.068 C 
ATOM     16  C   UNL     1       1.287   1.964   0.000  0.00  0.00    +0.091 C 
ATOM     17  C   UNL     1      -0.014   1.211   0.009  0.00  0.00    +0.164 C 
ATOM     18  O   UNL     1       0.002  -0.004   0.002  0.00  0.00    -0.292 OA
ATOM     19  H   UNL     1      -2.539   4.858  -0.109  0.00  0.00    +0.155 HD
ENDROOT
BRANCH  15  20
ATOM     20  C   UNL     1       2.341   4.131  -0.606  0.00  0.00    +0.109 A 
ATOM     21  C   UNL     1       3.027   4.599  -1.664  0.00  0.00    +0.045 A 
ATOM     22  C   UNL     1       4.147   5.293  -1.151  0.00  0.00    +0.041 A 
ATOM     23  C   UNL     1       4.078   5.208   0.189  0.00  0.00    +0.195 A 
ATOM     24  O   UNL     1       2.979   4.508   0.514  0.00  0.00    -0.468 OA
ENDBRANCH  15  20
BRANCH  10  25
ATOM     25  C   UNL     1      -2.679   0.467  -1.396  0.00  0.00    +0.017 A 
ATOM     26  C   UNL     1      -2.710  -0.827  -1.798  0.00  0.00    +0.013 A 
ATOM     27  C   UNL     1      -2.892  -1.107  -3.140  0.00  0.00    +0.008 A 
ATOM     28  C   UNL     1      -3.034  -0.080  -4.013  0.00  0.00    +0.045 A 
ATOM     29  S   UNL     1      -2.918   1.339  -2.935  0.00  0.00    -0.099 S 
ENDBRANCH  10  25
TORSDOF 2
