REMARK  Name = ZINC14993017
REMARK  9 active torsions:
REMARK  status: ('A' for Active; 'I' for Inactive)
REMARK    1  A    between atoms: C_4  and  C_7
REMARK    2  A    between atoms: C_9  and  C_13
REMARK    3  A    between atoms: C_13  and  C_14
REMARK    4  A    between atoms: C_14  and  N_15
REMARK    5  A    between atoms: C_16  and  C_22
REMARK    6  A    between atoms: C_22  and  C_23
REMARK    7  A    between atoms: C_23  and  N_58
REMARK    8  A    between atoms: C_24  and  C_25
REMARK    9  A    between atoms: C_24  and  N_58
REMARK                            x       y       z     vdW  Elec       q    Type
REMARK                         _______ _______ _______ _____ _____    ______ ____
ROOT
ATOM      1  N   UNL     1      -4.933   4.857  -2.848  0.00  0.00    -0.298 N 
ATOM      2  C   UNL     1      -5.165   3.409  -2.895  0.00  0.00    +0.075 C 
ATOM      3  C   UNL     1      -5.769   3.133  -4.289  0.00  0.00    +0.031 C 
ATOM      4  C   UNL     1      -6.414   4.497  -4.628  0.00  0.00    +0.098 C 
ATOM      5  C   UNL     1      -5.627   5.494  -3.807  0.00  0.00    +0.216 C 
ATOM      6  O   UNL     1      -5.623   6.693  -3.988  0.00  0.00    -0.276 OA
ENDROOT
BRANCH   1   7
ATOM      7  C   UNL     1      -4.058   5.524  -1.881  0.00  0.00    +0.116 C 
BRANCH   7   8
ATOM      8  C   UNL     1      -2.675   5.729  -2.501  0.00  0.00    +0.094 C 
BRANCH   8  11
ATOM      9  C   UNL     1      -1.006   7.857  -0.086  0.00  0.00    +0.181 A 
ATOM     10  N   UNL     1      -2.023   7.546  -0.902  0.00  0.00    -0.211 NA
ATOM     11  C   UNL     1      -1.774   6.414  -1.506  0.00  0.00    +0.127 A 
ATOM     12  N   UNL     1      -0.579   5.963  -1.083  0.00  0.00    -0.262 N 
ATOM     13  H   UNL     1      -0.138   5.144  -1.358  0.00  0.00    +0.190 HD
ATOM     14  N   UNL     1      -0.095   6.913  -0.168  0.00  0.00    -0.152 NA
BRANCH   9  18
ATOM     15  C   UNL     1      -0.768  11.324   2.365  0.00  0.00    +0.000 A 
ATOM     16  C   UNL     1       0.265  10.404   2.371  0.00  0.00    +0.001 A 
ATOM     17  C   UNL     1       0.193   9.277   1.577  0.00  0.00    +0.011 A 
ATOM     18  C   UNL     1      -0.923   9.067   0.769  0.00  0.00    +0.021 A 
ATOM     19  C   UNL     1      -1.957  10.001   0.763  0.00  0.00    +0.011 A 
ATOM     20  C   UNL     1      -1.878  11.121   1.565  0.00  0.00    +0.001 A 
ENDBRANCH   9  18
ENDBRANCH   8  11
ENDBRANCH   7   8
ENDBRANCH   1   7
BRANCH   2  21
ATOM     21  C   UNL     1      -3.842   2.656  -2.733  0.00  0.00    +0.003 C 
BRANCH  21  22
ATOM     22  C   UNL     1      -4.109   1.149  -2.743  0.00  0.00    -0.080 C 
BRANCH  22  23
ATOM     23  N   UNL     1      -2.821   0.430  -2.701  0.00  0.00    +0.382 N 
ATOM     24  H   UNL     1      -2.317   0.689  -1.845  0.00  0.00    -0.085 HD
ATOM     25  H   UNL     1      -2.261   0.691  -3.521  0.00  0.00    -0.085 HD
BRANCH  23  26
ATOM     26  C   UNL     1      -3.048  -1.027  -2.710  0.00  0.00    -0.045 C 
BRANCH  26  27
ATOM     27  C   UNL     1      -1.718  -1.734  -2.666  0.00  0.00    -0.042 A 
ATOM     28  C   UNL     1      -1.290  -2.328  -1.493  0.00  0.00    +0.052 A 
ATOM     29  C   UNL     1      -0.066  -2.973  -1.448  0.00  0.00    +0.167 A 
ATOM     30  C   UNL     1       0.734  -3.022  -2.588  0.00  0.00    +0.168 A 
ATOM     31  C   UNL     1       0.300  -2.426  -3.761  0.00  0.00    +0.069 A 
ATOM     32  C   UNL     1      -0.925  -1.783  -3.798  0.00  0.00    +0.046 A 
ATOM     33 CL   UNL     1      -1.467  -1.036  -5.269  0.00  0.00    -0.083 Cl
ATOM     34  O   UNL     1       1.877  -3.706  -2.290  0.00  0.00    -0.453 OA
ATOM     35  C   UNL     1       1.590  -4.425  -1.076  0.00  0.00    +0.466 C 
ATOM     36  O   UNL     1       0.578  -3.625  -0.436  0.00  0.00    -0.453 OA
ENDBRANCH  26  27
ENDBRANCH  23  26
ENDBRANCH  22  23
ENDBRANCH  21  22
ENDBRANCH   2  21
TORSDOF 9
