REMARK  Name = ZINC24786695
REMARK  11 active torsions:
REMARK  status: ('A' for Active; 'I' for Inactive)
REMARK    1  A    between atoms: C_1  and  C_2
REMARK    2  A    between atoms: C_2  and  C_3
REMARK    3  A    between atoms: C_2  and  C_4
REMARK    4  A    between atoms: C_4  and  N_5
REMARK    5  A    between atoms: C_6  and  N_33
REMARK    6  A    between atoms: C_7  and  C_14
REMARK    7  A    between atoms: C_14  and  C_16
REMARK    8  A    between atoms: C_16  and  O_17
REMARK    9  A    between atoms: O_17  and  C_18
REMARK   10  A    between atoms: C_21  and  C_24
REMARK   11  A    between atoms: C_24  and  C_26
REMARK                            x       y       z     vdW  Elec       q    Type
REMARK                         _______ _______ _______ _____ _____    ______ ____
ROOT
ATOM      1  C   UNL     1      -0.378   1.514   0.767  0.00  0.00    +0.209 C 
ATOM      2  O   UNL     1      -0.261   0.356   1.114  0.00  0.00    -0.288 OA
ENDROOT
BRANCH   1   5
ATOM      3  N   UNL     1       2.877   2.156  -0.839  0.00  0.00    -0.281 N 
ATOM      4  C   UNL     1       1.870   1.480  -0.211  0.00  0.00    +0.116 A 
ATOM      5  C   UNL     1       0.692   2.170   0.122  0.00  0.00    +0.123 A 
ATOM      6  C   UNL     1       0.613   3.597  -0.216  0.00  0.00    +0.266 A 
ATOM      7  O   UNL     1      -0.381   4.245   0.053  0.00  0.00    -0.267 OA
ATOM      8  N   UNL     1       1.666   4.173  -0.832  0.00  0.00    -0.274 N 
ATOM      9  H   UNL     1       1.631   5.241  -1.097  0.00  0.00    +0.173 HD
ATOM     10  C   UNL     1       2.764   3.461  -1.130  0.00  0.00    +0.331 A 
ATOM     11  O   UNL     1       3.691   4.019  -1.686  0.00  0.00    -0.246 OA
BRANCH   4  12
ATOM     12  N   UNL     1       2.004   0.158   0.083  0.00  0.00    -0.344 N 
ATOM     13  H   UNL     1       1.187  -0.379   0.588  0.00  0.00    +0.144 HD
ATOM     14  H   UNL     1       2.928  -0.375  -0.185  0.00  0.00    +0.144 HD
ENDBRANCH   4  12
BRANCH   3  15
ATOM     15  C   UNL     1       4.107   1.445  -1.194  0.00  0.00    +0.131 C 
BRANCH  15  17
ATOM     16  C   UNL     1       6.335   0.687  -0.355  0.00  0.00    +0.009 C 
ATOM     17  C   UNL     1       5.101   1.533  -0.035  0.00  0.00    +0.003 C 
ATOM     18  C   UNL     1       5.521   2.990   0.168  0.00  0.00    +0.009 C 
ENDBRANCH  15  17
ENDBRANCH   3  15
ENDBRANCH   1   5
BRANCH   1  19
ATOM     19  C   UNL     1      -1.669   2.249   1.021  0.00  0.00    +0.308 C 
BRANCH  19  20
ATOM     20  O   UNL     1      -2.593   1.377   1.675  0.00  0.00    -0.484 OA
BRANCH  20  21
ATOM     21  C   UNL     1      -3.814   1.888   1.977  0.00  0.00    +0.121 A 
ATOM     22  C   UNL     1      -4.113   3.207   1.654  0.00  0.00    +0.046 A 
ATOM     23  C   UNL     1      -5.352   3.727   1.953  0.00  0.00    +0.015 A 
ATOM     24  C   UNL     1      -6.306   2.930   2.594  0.00  0.00    +0.022 A 
ATOM     25  C   UNL     1      -5.999   1.606   2.923  0.00  0.00    +0.015 A 
ATOM     26  C   UNL     1      -4.760   1.092   2.614  0.00  0.00    +0.046 A 
BRANCH  24  27
ATOM     27  C   UNL     1      -7.633   3.485   2.922  0.00  0.00    +0.193 C 
ATOM     28  O   UNL     1      -7.740   4.650   3.252  0.00  0.00    -0.287 OA
BRANCH  27  29
ATOM     29  C   UNL     1      -8.832   2.625   2.848  0.00  0.00    +0.022 A 
ATOM     30  C   UNL     1      -8.731   1.322   2.355  0.00  0.00    +0.013 A 
ATOM     31  C   UNL     1      -9.852   0.522   2.295  0.00  0.00    +0.021 A 
ATOM     32  C   UNL     1     -11.079   1.012   2.711  0.00  0.00    +0.041 A 
ATOM     33  C   UNL     1     -11.187   2.306   3.196  0.00  0.00    +0.021 A 
ATOM     34  C   UNL     1     -10.072   3.113   3.267  0.00  0.00    +0.013 A 
ATOM     35 CL   UNL     1     -12.488   0.001   2.626  0.00  0.00    -0.084 Cl
ENDBRANCH  27  29
ENDBRANCH  24  27
ENDBRANCH  20  21
ENDBRANCH  19  20
ENDBRANCH   1  19
TORSDOF 9
