REMARK  Name = ZINC32652300
REMARK  6 active torsions:
REMARK  status: ('A' for Active; 'I' for Inactive)
REMARK    1  A    between atoms: C_1  and  C_2
REMARK    2  A    between atoms: C_6  and  N_9
REMARK    3  A    between atoms: C_7  and  C_8
REMARK    4  A    between atoms: N_12  and  C_15
REMARK    5  A    between atoms: C_15  and  C_17
REMARK    6  A    between atoms: C_15  and  C_18
REMARK                            x       y       z     vdW  Elec       q    Type
REMARK                         _______ _______ _______ _____ _____    ______ ____
ROOT
ATOM      1  N   UNL     1       3.783  -6.006  -1.381  0.00  0.00    -0.333 N 
ATOM      2  C   UNL     1       3.210  -6.492  -0.118  0.00  0.00    +0.086 C 
ATOM      3  C   UNL     1       1.730  -6.107  -0.051  0.00  0.00    -0.059 C 
ATOM      4  N   UNL     1       1.601  -4.647  -0.158  0.00  0.00    +0.388 N 
ATOM      5  C   UNL     1       2.173  -4.161  -1.421  0.00  0.00    -0.059 C 
ATOM      6  C   UNL     1       3.653  -4.546  -1.488  0.00  0.00    +0.086 C 
ATOM      7  H   UNL     1       2.168  -4.195   0.669  0.00  0.00    -0.081 HD
ENDROOT
BRANCH   1  13
ATOM      8  C   UNL     1       7.249  -8.444  -3.869  0.00  0.00    +0.044 C 
ATOM      9  C   UNL     1       6.825  -7.584  -2.707  0.00  0.00    -0.046 A 
ATOM     10  C   UNL     1       7.758  -7.184  -1.767  0.00  0.00    +0.004 A 
ATOM     11  C   UNL     1       7.373  -6.394  -0.700  0.00  0.00    +0.002 A 
ATOM     12  C   UNL     1       6.055  -6.001  -0.569  0.00  0.00    +0.023 A 
ATOM     13  C   UNL     1       5.116  -6.401  -1.511  0.00  0.00    +0.033 A 
ATOM     14  C   UNL     1       5.505  -7.199  -2.579  0.00  0.00    -0.027 A 
ATOM     15  C   UNL     1       4.489  -7.641  -3.600  0.00  0.00    +0.046 C 
ENDBRANCH   1  13
BRANCH   4  16
ATOM     16  C   UNL     1       0.198  -4.232  -0.021  0.00  0.00    -0.004 C 
ATOM     17  C   UNL     1      -0.612  -4.779  -1.198  0.00  0.00    -0.005 C 
BRANCH  16  18
ATOM     18  C   UNL     1       0.119  -2.727  -0.013  0.00  0.00    +0.096 A 
ATOM     19  N   UNL     1      -1.110  -2.147   0.003  0.00  0.00    -0.312 N 
ATOM     20  C   UNL     1      -1.235  -0.799   0.011  0.00  0.00    +0.259 A 
ATOM     21  O   UNL     1      -2.329  -0.266   0.024  0.00  0.00    -0.267 OA
ATOM     22  C   UNL     1       0.002  -0.004   0.003  0.00  0.00    +0.065 A 
ATOM     23  C   UNL     1      -0.017   1.389   0.009  0.00  0.00    +0.015 A 
ATOM     24  C   UNL     1       1.173   2.084   0.001  0.00  0.00    +0.001 A 
ATOM     25  C   UNL     1       2.386   1.408  -0.016  0.00  0.00    +0.002 A 
ATOM     26  C   UNL     1       2.426   0.032  -0.021  0.00  0.00    +0.028 A 
ATOM     27  C   UNL     1       1.234  -0.695  -0.013  0.00  0.00    +0.078 A 
ATOM     28  N   UNL     1       1.227  -2.051  -0.020  0.00  0.00    -0.235 NA
ATOM     29  H   UNL     1      -2.014  -2.773   0.008  0.00  0.00    +0.170 HD
ENDBRANCH  16  18
ENDBRANCH   4  16
TORSDOF 3
