REMARK  Name = ZINC66303677
REMARK  7 active torsions:
REMARK  status: ('A' for Active; 'I' for Inactive)
REMARK    1  A    between atoms: C_1  and  C_2
REMARK    2  A    between atoms: C_2  and  C_3
REMARK    3  A    between atoms: C_2  and  O_4
REMARK    4  A    between atoms: O_4  and  C_5
REMARK    5  A    between atoms: C_9  and  C_11
REMARK    6  A    between atoms: C_12  and  C_13
REMARK    7  A    between atoms: C_13  and  N_15
REMARK                            x       y       z     vdW  Elec       q    Type
REMARK                         _______ _______ _______ _____ _____    ______ ____
ROOT
ATOM      1  C   UNL     1      -6.097  -5.437  -2.494  0.00  0.00    +0.263 C 
ATOM      2  O   UNL     1      -7.026  -4.836  -1.978  0.00  0.00    -0.269 OA
ENDROOT
BRANCH   1   3
ATOM      3  N   UNL     1      -6.327  -6.559  -3.183  0.00  0.00    -0.141 NA
ATOM      4  C   UNL     1      -7.571  -7.022  -3.306  0.00  0.00    +0.223 A 
ATOM      5  N   UNL     1      -8.684  -6.458  -2.795  0.00  0.00    -0.246 N 
ATOM      6  N   UNL     1      -9.773  -7.263  -3.158  0.00  0.00    -0.153 NA
ATOM      7  C   UNL     1      -9.319  -8.275  -3.863  0.00  0.00    +0.160 A 
ATOM      8  N   UNL     1      -7.949  -8.149  -3.977  0.00  0.00    -0.271 N 
ATOM      9  C   UNL     1      -7.229  -9.082  -4.678  0.00  0.00    +0.096 A 
ATOM     10  C   UNL     1      -7.844 -10.127  -5.263  0.00  0.00    +0.018 A 
ATOM     11  C   UNL     1      -9.241 -10.280  -5.167  0.00  0.00    +0.005 A 
ATOM     12  C   UNL     1      -9.973  -9.374  -4.472  0.00  0.00    +0.048 A 
ATOM     13  H   UNL     1      -8.725  -5.643  -2.272  0.00  0.00    +0.192 HD
ENDBRANCH   1   3
BRANCH   1  15
ATOM     14  C   UNL     1      -4.494  -3.797  -1.664  0.00  0.00    +0.013 C 
ATOM     15  C   UNL     1      -4.726  -4.927  -2.358  0.00  0.00    +0.070 C 
BRANCH  14  20
ATOM     16  C   UNL     1      -1.581  -1.639  -0.686  0.00  0.00    +0.121 A 
ATOM     17  C   UNL     1      -0.529  -2.328  -1.276  0.00  0.00    +0.046 A 
ATOM     18  C   UNL     1      -0.768  -3.490  -1.988  0.00  0.00    +0.004 A 
ATOM     19  C   UNL     1      -2.054  -3.972  -2.118  0.00  0.00    +0.008 A 
ATOM     20  C   UNL     1      -3.119  -3.286  -1.528  0.00  0.00    -0.021 A 
ATOM     21  C   UNL     1      -2.874  -2.116  -0.804  0.00  0.00    +0.053 A 
BRANCH  16  22
ATOM     22  O   UNL     1      -1.339  -0.499   0.012  0.00  0.00    -0.489 OA
BRANCH  22  24
ATOM     23  C   UNL     1      -0.014   1.508   0.257  0.00  0.00    +0.051 C 
ATOM     24  C   UNL     1       0.000   0.001  -0.005  0.00  0.00    +0.167 C 
ATOM     25  C   UNL     1       0.819  -0.698   1.082  0.00  0.00    +0.051 C 
ENDBRANCH  22  24
ENDBRANCH  16  22
ENDBRANCH  14  20
ENDBRANCH   1  15
TORSDOF 5
