REMARK  Name = ZINC48413712
REMARK  5 active torsions:
REMARK  status: ('A' for Active; 'I' for Inactive)
REMARK    1  A    between atoms: C_1  and  C_2
REMARK    2  A    between atoms: C_5  and  C_8
REMARK    3  A    between atoms: C_8  and  C_9
REMARK    4  A    between atoms: C_13  and  C_19
REMARK    5  A    between atoms: C_14  and  C_18
REMARK                            x       y       z     vdW  Elec       q    Type
REMARK                         _______ _______ _______ _____ _____    ______ ____
ROOT
ATOM      1  C   UNL     1       1.198  -5.446  -0.034  0.00  0.00    +0.137 A 
ATOM      2  N   UNL     1       1.775  -5.715  -1.192  0.00  0.00    -0.217 NA
ATOM      3  C   UNL     1       3.017  -6.164  -1.273  0.00  0.00    +0.128 A 
ATOM      4  C   UNL     1       3.760  -6.366  -0.077  0.00  0.00    +0.050 A 
ATOM      5  C   UNL     1       5.120  -6.844   0.101  0.00  0.00    -0.028 A 
ATOM      6  C   UNL     1       5.618  -6.955   1.342  0.00  0.00    -0.008 A 
ATOM      7  S   UNL     1       4.272  -6.417   2.380  0.00  0.00    -0.074 S 
ATOM      8  C   UNL     1       3.078  -6.057   1.119  0.00  0.00    +0.114 A 
ATOM      9  N   UNL     1       1.838  -5.608   1.107  0.00  0.00    -0.224 NA
ATOM     10  C   UNL     1       6.988  -7.423   1.759  0.00  0.00    +0.052 C 
ATOM     11  C   UNL     1       5.963  -7.210  -1.094  0.00  0.00    +0.045 C 
ATOM     12  N   UNL     1       3.585  -6.434  -2.505  0.00  0.00    -0.343 N 
ATOM     13  H   UNL     1       3.018  -6.615  -3.271  0.00  0.00    +0.144 HD
ATOM     14  H   UNL     1       4.550  -6.444  -2.603  0.00  0.00    +0.144 HD
ENDROOT
BRANCH   1  15
ATOM     15  C   UNL     1      -0.220  -4.937  -0.018  0.00  0.00    +0.111 C 
BRANCH  15  20
ATOM     16  C   UNL     1      -0.201   0.835  -0.298  0.00  0.00    +0.044 C 
ATOM     17  C   UNL     1      -0.206  -0.670  -0.225  0.00  0.00    -0.050 A 
ATOM     18  C   UNL     1      -0.242  -1.418  -1.387  0.00  0.00    +0.003 A 
ATOM     19  C   UNL     1      -0.246  -2.799  -1.320  0.00  0.00    +0.004 A 
ATOM     20  C   UNL     1      -0.214  -3.431  -0.091  0.00  0.00    -0.040 A 
ATOM     21  C   UNL     1      -0.178  -2.683   1.071  0.00  0.00    +0.004 A 
ATOM     22  C   UNL     1      -0.169  -1.302   1.003  0.00  0.00    +0.003 A 
ENDBRANCH  15  20
ENDBRANCH   1  15
TORSDOF 2
