REMARK  Name = ZINC12603031
REMARK  8 active torsions:
REMARK  status: ('A' for Active; 'I' for Inactive)
REMARK    1  A    between atoms: C_1  and  C_2
REMARK    2  A    between atoms: C_2  and  C_3
REMARK    3  A    between atoms: C_2  and  N_4
REMARK    4  A    between atoms: N_4  and  C_5
REMARK    5  A    between atoms: C_8  and  C_31
REMARK    6  A    between atoms: C_11  and  C_27
REMARK    7  A    between atoms: C_27  and  O_29
REMARK    8  A    between atoms: O_29  and  C_30
REMARK                            x       y       z     vdW  Elec       q    Type
REMARK                         _______ _______ _______ _____ _____    ______ ____
ROOT
ATOM      1  C   UNL     1      -1.165  -0.693  -0.707  0.00  0.00    -0.068 C 
ATOM      2  C   UNL     1      -0.540  -1.524  -1.831  0.00  0.00    +0.008 C 
ATOM      3  C   UNL     1      -1.083  -2.954  -1.771  0.00  0.00    +0.087 C 
ATOM      4  N   UNL     1      -2.544  -2.924  -1.907  0.00  0.00    -0.274 NA
ATOM      5  C   UNL     1      -3.106  -4.272  -2.041  0.00  0.00    +0.172 C 
ATOM      6  C   UNL     1      -4.545  -4.176  -2.569  0.00  0.00    +0.068 C 
ATOM      7  C   UNL     1      -5.279  -3.146  -1.749  0.00  0.00    -0.016 A 
ATOM      8  C   UNL     1      -6.700  -2.906  -1.639  0.00  0.00    +0.003 A 
ATOM      9  C   UNL     1      -7.815  -3.514  -2.225  0.00  0.00    +0.010 A 
ATOM     10  C   UNL     1      -9.047  -3.014  -1.883  0.00  0.00    +0.001 A 
ATOM     11  C   UNL     1      -9.193  -1.956  -1.000  0.00  0.00    +0.002 A 
ATOM     12  C   UNL     1      -8.108  -1.335  -0.407  0.00  0.00    +0.026 A 
ATOM     13  C   UNL     1      -6.845  -1.822  -0.734  0.00  0.00    +0.047 A 
ATOM     14  N   UNL     1      -5.591  -1.451  -0.340  0.00  0.00    -0.356 N 
ATOM     15  H   UNL     1      -5.391  -0.731   0.279  0.00  0.00    +0.166 HD
ATOM     16  C   UNL     1      -4.659  -2.247  -0.949  0.00  0.00    +0.038 A 
ATOM     17  C   UNL     1      -3.160  -2.186  -0.795  0.00  0.00    +0.103 C 
ATOM     18  C   UNL     1      -2.691  -0.730  -0.837  0.00  0.00    +0.009 C 
ENDROOT
BRANCH   3  19
ATOM     19  C   UNL     1      -0.712  -3.578  -0.450  0.00  0.00    -0.027 A 
ATOM     20  C   UNL     1       0.615  -3.654  -0.070  0.00  0.00    +0.007 A 
ATOM     21  C   UNL     1       0.957  -4.226   1.141  0.00  0.00    +0.023 A 
ATOM     22  C   UNL     1      -0.029  -4.723   1.974  0.00  0.00    +0.076 A 
ATOM     23  C   UNL     1      -1.359  -4.646   1.594  0.00  0.00    +0.142 A 
ATOM     24  C   UNL     1      -1.700  -4.069   0.383  0.00  0.00    +0.045 A 
ATOM     25  F   UNL     1      -2.323  -5.132   2.407  0.00  0.00    -0.204 F 
ATOM     26 CL   UNL     1       0.401  -5.442   3.495  0.00  0.00    -0.081 Cl
ENDBRANCH   3  19
BRANCH   1  27
ATOM     27  N   UNL     1      -0.770  -1.251   0.593  0.00  0.00    +0.383 N 
ATOM     28  H   UNL     1      -0.989  -2.236   0.617  0.00  0.00    -0.085 HD
ATOM     29  H   UNL     1      -1.272  -0.778   1.329  0.00  0.00    -0.085 HD
BRANCH  27  31
ATOM     30  C   UNL     1       1.018   0.420   0.667  0.00  0.00    -0.014 C 
ATOM     31  C   UNL     1       0.674  -1.066   0.787  0.00  0.00    -0.078 C 
ATOM     32  C   UNL     1       1.071  -1.570   2.176  0.00  0.00    -0.014 C 
ENDBRANCH  27  31
ENDBRANCH   1  27
BRANCH   5  33
ATOM     33  C   UNL     1      -2.269  -5.072  -3.006  0.00  0.00    +0.325 C 
ATOM     34  O   UNL     1      -2.117  -6.258  -2.834  0.00  0.00    -0.249 OA
BRANCH  33  35
ATOM     35  O   UNL     1      -1.694  -4.467  -4.056  0.00  0.00    -0.467 OA
ATOM     36  C   UNL     1      -0.914  -5.286  -4.930  0.00  0.00    +0.280 C 
ENDBRANCH  33  35
ENDBRANCH   5  33
TORSDOF 5
