REMARK  Name = ZINC00390649
REMARK  5 active torsions:
REMARK  status: ('A' for Active; 'I' for Inactive)
REMARK    1  A    between atoms: C_1  and  C_2
REMARK    2  A    between atoms: C_2  and  C_3
REMARK    3  A    between atoms: C_3  and  C_4
REMARK    4  A    between atoms: C_6  and  S_10
REMARK    5  A    between atoms: N_8  and  N_9
REMARK                            x       y       z     vdW  Elec       q    Type
REMARK                         _______ _______ _______ _____ _____    ______ ____
ROOT
ATOM      1  C   UNL     1      -2.057   1.761  -1.048  0.00  0.00    +0.149 A 
ATOM      2  N   UNL     1      -2.376   2.208  -2.236  0.00  0.00    -0.204 NA
ATOM      3  C   UNL     1      -1.290   2.238  -3.015  0.00  0.00    +0.208 A 
ATOM      4  N   UNL     1      -0.261   1.811  -2.321  0.00  0.00    -0.125 NA
ATOM      5  N   UNL     1      -0.741   1.490  -1.041  0.00  0.00    -0.170 N 
ENDROOT
BRANCH   5   6
ATOM      6  N   UNL     1      -0.012   1.005   0.008  0.00  0.00    -0.281 N 
ATOM      7  H   UNL     1       0.002  -0.004   0.002  0.00  0.00    +0.164 HD
ATOM      8  H   UNL     1       0.925   1.379   0.001  0.00  0.00    +0.164 HD
ENDBRANCH   5   6
BRANCH   3   9
ATOM      9  S   UNL     1      -1.246   2.770  -4.694  0.00  0.00    -0.102 S 
ATOM     10  H   UNL     1      -0.989   4.088  -4.611  0.00  0.00    +0.110 HD
ENDBRANCH   3   9
BRANCH   1  11
ATOM     11  C   UNL     1      -3.002   1.579   0.111  0.00  0.00    +0.077 C 
BRANCH  11  13
ATOM     12  C   UNL     1      -4.008   2.682   2.115  0.00  0.00    +0.004 C 
ATOM     13  C   UNL     1      -3.048   2.866   0.938  0.00  0.00    +0.004 C 
ENDBRANCH  11  13
ENDBRANCH   1  11
TORSDOF 4
