REMARK  Name = ZINC39259983
REMARK  9 active torsions:
REMARK  status: ('A' for Active; 'I' for Inactive)
REMARK    1  A    between atoms: C_1  and  C_2
REMARK    2  A    between atoms: C_4  and  N_8
REMARK    3  A    between atoms: N_5  and  C_7
REMARK    4  A    between atoms: C_9  and  C_11
REMARK    5  A    between atoms: C_11  and  S_12
REMARK    6  A    between atoms: S_12  and  C_13
REMARK    7  A    between atoms: C_16  and  C_26
REMARK    8  A    between atoms: N_17  and  C_18
REMARK    9  A    between atoms: C_18  and  C_19
REMARK                            x       y       z     vdW  Elec       q    Type
REMARK                         _______ _______ _______ _____ _____    ______ ____
ROOT
ATOM      1  C   UNL     1      -0.027  -4.912  -6.273  0.00  0.00    +0.193 A 
ATOM      2  N   UNL     1       0.432  -5.966  -5.637  0.00  0.00    -0.122 NA
ATOM      3  N   UNL     1       0.363  -7.003  -6.393  0.00  0.00    -0.128 NA
ATOM      4  C   UNL     1      -0.144  -6.674  -7.559  0.00  0.00    +0.165 A 
ATOM      5  N   UNL     1      -0.415  -5.326  -7.515  0.00  0.00    -0.298 N 
ENDROOT
BRANCH   4   6
ATOM      6  C   UNL     1      -0.385  -7.583  -8.700  0.00  0.00    +0.019 A 
ATOM      7  C   UNL     1      -0.243  -7.117 -10.008  0.00  0.00    +0.011 A 
ATOM      8  C   UNL     1      -0.469  -7.971 -11.068  0.00  0.00    +0.001 A 
ATOM      9  C   UNL     1      -0.835  -9.285 -10.837  0.00  0.00    +0.000 A 
ATOM     10  C   UNL     1      -0.978  -9.752  -9.543  0.00  0.00    +0.001 A 
ATOM     11  C   UNL     1      -0.750  -8.911  -8.473  0.00  0.00    +0.011 A 
ENDBRANCH   4   6
BRANCH   1  12
ATOM     12  S   UNL     1      -0.130  -3.271  -5.639  0.00  0.00    -0.077 S 
BRANCH  12  13
ATOM     13  C   UNL     1       0.542  -3.407  -3.959  0.00  0.00    +0.173 C 
BRANCH  13  15
ATOM     14  N   UNL     1       0.964  -1.912  -2.034  0.00  0.00    -0.270 N 
ATOM     15  C   UNL     1       0.511  -2.054  -3.296  0.00  0.00    +0.229 C 
ATOM     16  O   UNL     1       0.079  -1.093  -3.896  0.00  0.00    -0.275 OA
ATOM     17  H   UNL     1       1.309  -2.681  -1.553  0.00  0.00    +0.156 HD
BRANCH  14  21
ATOM     18  C   UNL     1       0.253   2.959  -1.213  0.00  0.00    +0.067 C 
ATOM     19  C   UNL     1       0.629   1.512  -1.024  0.00  0.00    +0.062 A 
ATOM     20  C   UNL     1       0.480   0.497  -1.972  0.00  0.00    +0.068 A 
ATOM     21  C   UNL     1       0.936  -0.661  -1.419  0.00  0.00    +0.123 A 
ATOM     22  N   UNL     1       1.356  -0.376  -0.166  0.00  0.00    -0.253 N 
ATOM     23  N   UNL     1       1.157   0.992   0.055  0.00  0.00    -0.175 NA
ATOM     24  C   UNL     1       1.923  -1.331   0.791  0.00  0.00    +0.174 C 
ENDBRANCH  14  21
ENDBRANCH  13  15
ENDBRANCH  12  13
ENDBRANCH   1  12
BRANCH   5  25
ATOM     25  C   UNL     1      -0.996  -4.505  -8.581  0.00  0.00    +0.161 C 
BRANCH  25  26
ATOM     26  C   UNL     1      -2.498  -4.607  -8.531  0.00  0.00    -0.028 A 
ATOM     27  C   UNL     1      -3.155  -5.524  -9.332  0.00  0.00    +0.007 A 
ATOM     28  C   UNL     1      -4.533  -5.618  -9.287  0.00  0.00    +0.020 A 
ATOM     29  C   UNL     1      -5.256  -4.795  -8.441  0.00  0.00    +0.041 A 
ATOM     30  C   UNL     1      -4.598  -3.878  -7.640  0.00  0.00    +0.020 A 
ATOM     31  C   UNL     1      -3.219  -3.789  -7.682  0.00  0.00    +0.007 A 
ATOM     32 CL   UNL     1      -6.987  -4.912  -8.384  0.00  0.00    -0.084 Cl
ENDBRANCH  25  26
ENDBRANCH   5  25
TORSDOF 7
