REMARK  Name = ZINC06651632
REMARK  7 active torsions:
REMARK  status: ('A' for Active; 'I' for Inactive)
REMARK    1  A    between atoms: C_1  and  C_2
REMARK    2  A    between atoms: C_6  and  O_8
REMARK    3  A    between atoms: O_8  and  C_9
REMARK    4  A    between atoms: C_9  and  C_11
REMARK    5  A    between atoms: C_9  and  C_12
REMARK    6  A    between atoms: N_14  and  C_15
REMARK    7  A    between atoms: C_20  and  C_21
REMARK                            x       y       z     vdW  Elec       q    Type
REMARK                         _______ _______ _______ _____ _____    ______ ____
ROOT
ATOM      1  C   UNL     1      -5.846   2.129   1.106  0.00  0.00    +0.044 A 
ATOM      2  C   UNL     1      -5.874   3.511   0.990  0.00  0.00    +0.024 A 
ATOM      3  C   UNL     1      -6.958   4.224   1.465  0.00  0.00    +0.002 A 
ATOM      4  C   UNL     1      -8.022   3.567   2.060  0.00  0.00    +0.001 A 
ATOM      5  C   UNL     1      -8.009   2.193   2.184  0.00  0.00    +0.013 A 
ATOM      6  C   UNL     1      -6.924   1.460   1.703  0.00  0.00    +0.038 A 
ENDROOT
BRANCH   6   7
ATOM      7  C   UNL     1      -6.908  -0.012   1.827  0.00  0.00    +0.141 A 
ATOM      8  N   UNL     1      -7.943  -0.774   2.299  0.00  0.00    -0.338 N 
ATOM      9  H   UNL     1      -8.831  -0.439   2.615  0.00  0.00    +0.167 HD
ATOM     10  C   UNL     1      -7.533  -2.092   2.255  0.00  0.00    +0.066 A 
ATOM     11  C   UNL     1      -8.130  -3.299   2.594  0.00  0.00    +0.028 A 
ATOM     12  C   UNL     1      -7.433  -4.477   2.426  0.00  0.00    +0.002 A 
ATOM     13  C   UNL     1      -6.141  -4.464   1.921  0.00  0.00    +0.002 A 
ATOM     14  C   UNL     1      -5.537  -3.287   1.581  0.00  0.00    +0.030 A 
ATOM     15  C   UNL     1      -6.224  -2.079   1.743  0.00  0.00    +0.089 A 
ATOM     16  N   UNL     1      -5.902  -0.786   1.497  0.00  0.00    -0.228 NA
ENDBRANCH   6   7
BRANCH   1  19
ATOM     17  C   UNL     1      -3.547   2.001   0.520  0.00  0.00    +0.258 C 
ATOM     18  O   UNL     1      -3.388   3.129   0.936  0.00  0.00    -0.271 OA
ATOM     19  N   UNL     1      -4.753   1.407   0.626  0.00  0.00    -0.282 N 
ATOM     20  H   UNL     1      -4.860   0.478   0.368  0.00  0.00    +0.155 HD
BRANCH  17  21
ATOM     21  C   UNL     1      -2.397   1.263  -0.115  0.00  0.00    +0.256 C 
ATOM     22  C   UNL     1      -2.707   1.009  -1.592  0.00  0.00    +0.062 C 
BRANCH  21  23
ATOM     23  O   UNL     1      -1.209   2.049  -0.006  0.00  0.00    -0.480 OA
BRANCH  23  29
ATOM     24  C   UNL     1       1.218  -2.185  -0.114  0.00  0.00    +0.044 C 
ATOM     25  C   UNL     1       1.199  -0.678  -0.087  0.00  0.00    -0.047 A 
ATOM     26  C   UNL     1       2.387   0.028  -0.087  0.00  0.00    +0.003 A 
ATOM     27  C   UNL     1       2.373   1.410  -0.062  0.00  0.00    +0.004 A 
ATOM     28  C   UNL     1       1.170   2.089  -0.036  0.00  0.00    +0.046 A 
ATOM     29  C   UNL     1      -0.024   1.383  -0.036  0.00  0.00    +0.122 A 
ATOM     30  C   UNL     1      -0.007  -0.004  -0.062  0.00  0.00    +0.049 A 
ENDBRANCH  23  29
ENDBRANCH  21  23
ENDBRANCH  17  21
ENDBRANCH   1  19
TORSDOF 5
