REMARK  Name = ZINC08632851
REMARK  8 active torsions:
REMARK  status: ('A' for Active; 'I' for Inactive)
REMARK    1  A    between atoms: C_1  and  C_2
REMARK    2  A    between atoms: N_13  and  C_31
REMARK    3  A    between atoms: C_14  and  S_16
REMARK    4  A    between atoms: S_16  and  C_17
REMARK    5  A    between atoms: C_17  and  C_18
REMARK    6  A    between atoms: N_20  and  C_21
REMARK    7  A    between atoms: N_25  and  C_26
REMARK    8  A    between atoms: C_31  and  C_32
REMARK                            x       y       z     vdW  Elec       q    Type
REMARK                         _______ _______ _______ _____ _____    ______ ____
ROOT
ATOM      1  C   UNL     1      -0.325  14.052  -0.014  0.00  0.00    +0.008 C 
ATOM      2  C   UNL     1      -0.886  12.659  -0.304  0.00  0.00    -0.009 C 
ATOM      3  C   UNL     1      -2.144  12.422   0.537  0.00  0.00    +0.008 C 
ATOM      4  C   UNL     1      -2.846  11.145   0.075  0.00  0.00    +0.037 C 
ATOM      5  C   UNL     1      -1.835  10.002   0.064  0.00  0.00    -0.023 A 
ATOM      6  C   UNL     1      -0.511  10.254   0.060  0.00  0.00    -0.004 A 
ATOM      7  S   UNL     1       0.262   8.659   0.049  0.00  0.00    -0.073 S 
ATOM      8  C   UNL     1      -1.201   7.654   0.050  0.00  0.00    +0.117 A 
ATOM      9  C   UNL     1      -2.244   8.596   0.059  0.00  0.00    +0.076 A 
ATOM     10  C   UNL     1      -3.570   8.058   0.063  0.00  0.00    +0.263 A 
ATOM     11  O   UNL     1      -4.537   8.799   0.072  0.00  0.00    -0.267 OA
ATOM     12  N   UNL     1      -3.733   6.722   0.056  0.00  0.00    -0.283 N 
ATOM     13  C   UNL     1      -2.662   5.877   0.047  0.00  0.00    +0.173 A 
ATOM     14  N   UNL     1      -1.430   6.346   0.049  0.00  0.00    -0.216 NA
ATOM     15  C   UNL     1       0.159  11.595   0.063  0.00  0.00    +0.046 C 
ENDROOT
BRANCH  13  16
ATOM     16  S   UNL     1      -2.928   4.135   0.038  0.00  0.00    -0.078 S 
BRANCH  16  17
ATOM     17  C   UNL     1      -1.214   3.555   0.027  0.00  0.00    +0.173 C 
BRANCH  17  18
ATOM     18  C   UNL     1      -1.193   2.049   0.019  0.00  0.00    +0.229 C 
ATOM     19  O   UNL     1      -2.235   1.428   0.020  0.00  0.00    -0.275 OA
ATOM     20  N   UNL     1      -0.017   1.391   0.010  0.00  0.00    -0.270 N 
ATOM     21  H   UNL     1       0.817   1.887   0.004  0.00  0.00    +0.156 HD
BRANCH  20  22
ATOM     22  C   UNL     1       0.002  -0.004   0.002  0.00  0.00    +0.123 A 
ATOM     23  C   UNL     1      -1.085  -0.823   0.014  0.00  0.00    +0.065 A 
ATOM     24  C   UNL     1      -0.626  -2.143  -0.002  0.00  0.00    +0.136 A 
ATOM     25  N   UNL     1       0.682  -2.124  -0.015  0.00  0.00    -0.178 NA
ATOM     26  N   UNL     1       1.104  -0.788  -0.013  0.00  0.00    -0.247 N 
BRANCH  26  27
ATOM     27  C   UNL     1       2.493  -0.323  -0.024  0.00  0.00    +0.109 C 
ATOM     28  C   UNL     1       3.227  -0.879  -1.261  0.00  0.00    +0.027 C 
ATOM     29  C   UNL     1       4.657  -1.184  -0.749  0.00  0.00    +0.002 C 
ATOM     30  C   UNL     1       4.401  -1.727   0.679  0.00  0.00    +0.002 C 
ATOM     31  C   UNL     1       3.239  -0.862   1.210  0.00  0.00    +0.027 C 
ENDBRANCH  26  27
ENDBRANCH  20  22
ENDBRANCH  17  18
ENDBRANCH  16  17
ENDBRANCH  13  16
BRANCH  12  32
ATOM     32  C   UNL     1      -5.088   6.164   0.060  0.00  0.00    +0.154 C 
BRANCH  32  33
ATOM     33  C   UNL     1      -5.545   5.966   1.482  0.00  0.00    -0.013 C 
ATOM     34  C   UNL     1      -6.667   6.506   1.891  0.00  0.00    +0.005 C 
ENDBRANCH  32  33
ENDBRANCH  12  32
TORSDOF 7
