REMARK  Name = ZINC06122345
REMARK  7 active torsions:
REMARK  status: ('A' for Active; 'I' for Inactive)
REMARK    1  A    between atoms: C_1  and  C_2
REMARK    2  A    between atoms: C_2  and  C_3
REMARK    3  A    between atoms: C_10  and  N_15
REMARK    4  A    between atoms: C_11  and  C_12
REMARK    5  A    between atoms: C_16  and  C_18
REMARK    6  A    between atoms: C_23  and  O_24
REMARK    7  A    between atoms: O_24  and  C_25
REMARK                            x       y       z     vdW  Elec       q    Type
REMARK                         _______ _______ _______ _____ _____    ______ ____
ROOT
ATOM      1  C   UNL     1       9.076   7.188  -0.428  0.00  0.00    -0.006 C 
ATOM      2  C   UNL     1       9.458   5.957   0.399  0.00  0.00    +0.008 C 
ATOM      3  C   UNL     1       8.635   4.749  -0.055  0.00  0.00    +0.037 C 
ATOM      4  C   UNL     1       7.159   5.127  -0.040  0.00  0.00    -0.023 A 
ATOM      5  C   UNL     1       6.773   6.421  -0.030  0.00  0.00    -0.004 A 
ATOM      6  S   UNL     1       5.003   6.365  -0.013  0.00  0.00    -0.077 S 
ATOM      7  C   UNL     1       4.778   4.648  -0.020  0.00  0.00    +0.085 A 
ATOM      8  C   UNL     1       6.077   4.158  -0.029  0.00  0.00    +0.068 A 
ATOM      9  C   UNL     1       7.659   7.629  -0.033  0.00  0.00    +0.046 C 
ENDROOT
BRANCH   8  10
ATOM     10  C   UNL     1       6.346   2.717  -0.033  0.00  0.00    +0.244 C 
ATOM     11  O   UNL     1       6.451   2.120  -1.088  0.00  0.00    -0.270 OA
ATOM     12  N   UNL     1       6.478   2.053   1.133  0.00  0.00    -0.325 N 
ATOM     13  H   UNL     1       6.394   2.529   1.974  0.00  0.00    +0.145 HD
ATOM     14  H   UNL     1       6.656   1.100   1.131  0.00  0.00    +0.145 HD
ENDBRANCH   8  10
BRANCH   7  15
ATOM     15  N   UNL     1       3.590   3.935  -0.012  0.00  0.00    -0.275 N 
ATOM     16  C   UNL     1       2.412   4.590   0.003  0.00  0.00    +0.252 C 
ATOM     17  O   UNL     1       2.392   5.806   0.009  0.00  0.00    -0.270 OA
ATOM     18  H   UNL     1       3.605   2.965  -0.017  0.00  0.00    +0.156 HD
BRANCH  16  19
ATOM     19  C   UNL     1       1.147   3.832   0.011  0.00  0.00    +0.080 A 
ATOM     20  C   UNL     1       1.165   2.434   0.004  0.00  0.00    +0.036 A 
ATOM     21  C   UNL     1      -0.021   1.732   0.012  0.00  0.00    +0.042 A 
ATOM     22  C   UNL     1      -1.233   2.406   0.021  0.00  0.00    +0.023 A 
ATOM     23  C   UNL     1      -1.264   3.786   0.034  0.00  0.00    +0.048 A 
ATOM     24  C   UNL     1      -0.081   4.508   0.026  0.00  0.00    +0.132 A 
ATOM     25 CL   UNL     1       0.002  -0.004   0.002  0.00  0.00    -0.084 Cl
BRANCH  24  26
ATOM     26  O   UNL     1      -0.111   5.865   0.033  0.00  0.00    -0.494 OA
ATOM     27  C   UNL     1      -1.398   6.485   0.048  0.00  0.00    +0.277 C 
ENDBRANCH  24  26
ENDBRANCH  16  19
ENDBRANCH   7  15
BRANCH   1  29
ATOM     28  C   UNL     1       9.758   9.505  -1.067  0.00  0.00    +0.004 C 
ATOM     29  C   UNL     1      10.066   8.320  -0.148  0.00  0.00    +0.000 C 
ENDBRANCH   1  29
TORSDOF 5
