REMARK  Name = ZINC09108680
REMARK  10 active torsions:
REMARK  status: ('A' for Active; 'I' for Inactive)
REMARK    1  A    between atoms: C_1  and  C_2
REMARK    2  A    between atoms: C_7  and  O_8
REMARK    3  A    between atoms: O_8  and  C_9
REMARK    4  A    between atoms: C_9  and  C_10
REMARK    5  A    between atoms: C_10  and  C_12
REMARK    6  A    between atoms: C_10  and  O_38
REMARK    7  A    between atoms: C_12  and  N_13
REMARK    8  A    between atoms: N_18  and  N_19
REMARK    9  A    between atoms: N_30  and  C_37
REMARK   10  A    between atoms: N_33  and  C_36
REMARK                            x       y       z     vdW  Elec       q    Type
REMARK                         _______ _______ _______ _____ _____    ______ ____
ROOT
ATOM      1  N   UNL     1       0.316   0.158   7.224  0.00  0.00    -0.302 N 
ATOM      2  C   UNL     1       1.488   0.675   7.751  0.00  0.00    +0.153 A 
ATOM      3  C   UNL     1       1.116   1.462   8.836  0.00  0.00    +0.170 A 
ATOM      4  N   UNL     1      -0.212   1.406   8.937  0.00  0.00    -0.195 NA
ATOM      5  C   UNL     1      -0.703   0.640   7.984  0.00  0.00    +0.218 A 
ATOM      6  N   UNL     1      -2.041   0.367   7.790  0.00  0.00    -0.206 N 
ATOM      7  N   UNL     1       2.104   2.111   9.560  0.00  0.00    -0.280 N 
ATOM      8  C   UNL     1       3.397   1.975   9.209  0.00  0.00    +0.333 A 
ATOM      9  O   UNL     1       4.250   2.551   9.855  0.00  0.00    -0.246 OA
ATOM     10  N   UNL     1       3.768   1.217   8.163  0.00  0.00    -0.262 N 
ATOM     11  C   UNL     1       2.852   0.561   7.420  0.00  0.00    +0.282 A 
ATOM     12  O   UNL     1       3.201  -0.123   6.474  0.00  0.00    -0.265 OA
ATOM     13  C   UNL     1       5.188   1.101   7.823  0.00  0.00    +0.157 C 
ATOM     14  C   UNL     1       1.742   2.946  10.707  0.00  0.00    +0.155 C 
ATOM     15  H   UNL     1      -2.318  -0.211   7.063  0.00  0.00    +0.177 HD
ENDROOT
BRANCH   6  16
ATOM     16  N   UNL     1      -2.925   0.882   8.576  0.00  0.00    -0.174 NA
ATOM     17  C   UNL     1      -4.199   0.622   8.392  0.00  0.00    +0.153 C 
ATOM     18  C   UNL     1      -5.345   1.124   9.184  0.00  0.00    +0.028 A 
ATOM     19  C   UNL     1      -5.446   1.962  10.289  0.00  0.00    +0.012 A 
ATOM     20  C   UNL     1      -6.687   2.253  10.818  0.00  0.00    +0.001 A 
ATOM     21  C   UNL     1      -7.828   1.711  10.249  0.00  0.00    +0.002 A 
ATOM     22  C   UNL     1      -7.738   0.877   9.152  0.00  0.00    +0.024 A 
ATOM     23  C   UNL     1      -6.496   0.574   8.606  0.00  0.00    +0.043 A 
ATOM     24  N   UNL     1      -6.131  -0.222   7.525  0.00  0.00    -0.280 N 
ATOM     25  C   UNL     1      -4.799  -0.227   7.348  0.00  0.00    +0.269 C 
ATOM     26  O   UNL     1      -4.195  -0.830   6.479  0.00  0.00    -0.268 OA
ATOM     27  H   UNL     1      -6.759  -0.708   6.968  0.00  0.00    +0.155 HD
ENDBRANCH   6  16
BRANCH   1  28
ATOM     28  C   UNL     1       0.196  -0.732   6.066  0.00  0.00    +0.160 C 
BRANCH  28  29
ATOM     29  C   UNL     1       0.047   0.104   4.793  0.00  0.00    +0.172 C 
BRANCH  29  30
ATOM     30  O   UNL     1      -1.183   0.829   4.841  0.00  0.00    -0.387 OA
ATOM     31  H   UNL     1      -1.968   0.268   4.908  0.00  0.00    +0.210 HD
ENDBRANCH  29  30
BRANCH  29  32
ATOM     32  C   UNL     1       0.048  -0.820   3.574  0.00  0.00    +0.262 C 
BRANCH  32  33
ATOM     33  O   UNL     1       0.025  -0.033   2.381  0.00  0.00    -0.489 OA
BRANCH  33  40
ATOM     34  C   UNL     1      -0.018   1.503   0.010  0.00  0.00    +0.047 C 
ATOM     35  C   UNL     1       0.002  -0.004   0.002  0.00  0.00    -0.009 A 
ATOM     36  C   UNL     1       0.006  -0.689  -1.198  0.00  0.00    +0.007 A 
ATOM     37  C   UNL     1       0.024  -2.071  -1.206  0.00  0.00    +0.000 A 
ATOM     38  C   UNL     1       0.039  -2.772  -0.014  0.00  0.00    +0.004 A 
ATOM     39  C   UNL     1       0.036  -2.092   1.188  0.00  0.00    +0.046 A 
ATOM     40  C   UNL     1       0.023  -0.705   1.199  0.00  0.00    +0.124 A 
ENDBRANCH  33  40
ENDBRANCH  32  33
ENDBRANCH  29  32
ENDBRANCH  28  29
ENDBRANCH   1  28
TORSDOF 7
