REMARK  Name = ZINC35914975
REMARK  6 active torsions:
REMARK  status: ('A' for Active; 'I' for Inactive)
REMARK    1  A    between atoms: C_1  and  C_2
REMARK    2  A    between atoms: C_2  and  C_3
REMARK    3  A    between atoms: C_2  and  N_4
REMARK    4  A    between atoms: C_9  and  C_25
REMARK    5  A    between atoms: C_12  and  C_15
REMARK    6  A    between atoms: N_17  and  C_18
REMARK                            x       y       z     vdW  Elec       q    Type
REMARK                         _______ _______ _______ _____ _____    ______ ____
ROOT
ATOM      1  N   UNL     1      -1.837  -0.687  -2.776  0.00  0.00    -0.297 N 
ATOM      2  C   UNL     1      -2.305  -0.898  -1.530  0.00  0.00    +0.302 C 
ATOM      3  O   UNL     1      -1.572  -0.750  -0.572  0.00  0.00    -0.253 OA
ATOM      4  N   UNL     1      -3.587  -1.273  -1.347  0.00  0.00    -0.284 N 
ATOM      5  C   UNL     1      -4.451  -1.572  -2.497  0.00  0.00    +0.117 C 
ATOM      6  C   UNL     1      -5.060  -2.965  -2.307  0.00  0.00    +0.037 C 
ATOM      7  C   UNL     1      -5.771  -3.026  -0.953  0.00  0.00    +0.024 C 
ATOM      8  C   UNL     1      -4.758  -2.784   0.169  0.00  0.00    +0.093 C 
ATOM      9  C   UNL     1      -4.145  -1.395   0.007  0.00  0.00    +0.122 C 
ATOM     10  H   UNL     1      -2.399  -0.873  -3.544  0.00  0.00    +0.150 HD
ENDROOT
BRANCH   6  11
ATOM     11  C   UNL     1      -6.051  -3.236  -3.409  0.00  0.00    -0.043 A 
ATOM     12  C   UNL     1      -7.146  -2.408  -3.573  0.00  0.00    +0.004 A 
ATOM     13  C   UNL     1      -8.055  -2.656  -4.584  0.00  0.00    +0.000 A 
ATOM     14  C   UNL     1      -7.869  -3.732  -5.432  0.00  0.00    +0.000 A 
ATOM     15  C   UNL     1      -6.774  -4.559  -5.269  0.00  0.00    +0.000 A 
ATOM     16  C   UNL     1      -5.862  -4.309  -4.260  0.00  0.00    +0.004 A 
ENDBRANCH   6  11
BRANCH   8  17
ATOM     17  C   UNL     1      -3.669  -3.823   0.096  0.00  0.00    +0.222 C 
ATOM     18  O   UNL     1      -3.700  -4.674  -0.768  0.00  0.00    -0.275 OA
ATOM     19  N   UNL     1      -2.662  -3.807   0.991  0.00  0.00    -0.285 N 
ATOM     20  H   UNL     1      -2.675  -3.174   1.726  0.00  0.00    +0.155 HD
BRANCH  19  21
ATOM     21  C   UNL     1      -1.595  -4.704   0.860  0.00  0.00    +0.033 A 
ATOM     22  C   UNL     1      -0.967  -5.208   1.992  0.00  0.00    +0.025 A 
ATOM     23  C   UNL     1       0.085  -6.093   1.860  0.00  0.00    +0.022 A 
ATOM     24  C   UNL     1       0.513  -6.478   0.602  0.00  0.00    +0.041 A 
ATOM     25  C   UNL     1      -0.111  -5.978  -0.527  0.00  0.00    +0.022 A 
ATOM     26  C   UNL     1      -1.167  -5.097  -0.401  0.00  0.00    +0.025 A 
ATOM     27 CL   UNL     1       1.837  -7.590   0.440  0.00  0.00    -0.084 Cl
ENDBRANCH  19  21
ENDBRANCH   8  17
BRANCH   1  29
ATOM     28  C   UNL     1       0.513  -1.343  -2.954  0.00  0.00    +0.027 C 
ATOM     29  C   UNL     1      -0.477  -0.176  -2.971  0.00  0.00    +0.068 C 
ATOM     30  C   UNL     1      -0.392   0.546  -4.317  0.00  0.00    +0.027 C 
ENDBRANCH   1  29
TORSDOF 4
