REMARK  Name = ZINC50362165
REMARK  8 active torsions:
REMARK  status: ('A' for Active; 'I' for Inactive)
REMARK    1  A    between atoms: C_1  and  C_2
REMARK    2  A    between atoms: C_2  and  N_3
REMARK    3  A    between atoms: N_3  and  C_4
REMARK    4  A    between atoms: N_3  and  C_10
REMARK    5  A    between atoms: C_4  and  C_5
REMARK    6  A    between atoms: C_10  and  C_12
REMARK    7  A    between atoms: C_10  and  C_14
REMARK    8  A    between atoms: C_12  and  N_13
REMARK                            x       y       z     vdW  Elec       q    Type
REMARK                         _______ _______ _______ _____ _____    ______ ____
ROOT
ATOM      1  C   UNL     1       2.174   0.150  -0.989  0.00  0.00    -0.018 C 
ENDROOT
BRANCH   1   2
ATOM      2  C   UNL     1       3.125   0.155  -2.158  0.00  0.00    +0.092 A 
ATOM      3  C   UNL     1       4.109   1.047  -2.367  0.00  0.00    +0.059 A 
ATOM      4  C   UNL     1       4.749   0.677  -3.573  0.00  0.00    +0.070 A 
ATOM      5  C   UNL     1       4.117  -0.421  -4.029  0.00  0.00    +0.184 A 
ATOM      6  O   UNL     1       3.137  -0.735  -3.165  0.00  0.00    -0.454 OA
ATOM      7 BR   UNL     1       4.540  -1.364  -5.612  0.00  0.00    -0.007 Br
ATOM      8 BR   UNL     1       6.211   1.556  -4.388  0.00  0.00    -0.046 Br
ENDBRANCH   1   2
BRANCH   1   9
ATOM      9  N   UNL     1       0.839  -0.260  -1.446  0.00  0.00    +0.388 N 
ATOM     10  H   UNL     1       0.647   0.160  -2.343  0.00  0.00    -0.080 HD
BRANCH   9  12
ATOM     11  C   UNL     1      -0.173   1.711  -0.403  0.00  0.00    -0.017 C 
ATOM     12  C   UNL     1      -0.169   0.183  -0.473  0.00  0.00    -0.081 C 
ENDBRANCH   9  12
BRANCH   9  13
ATOM     13  C   UNL     1       0.791  -1.723  -1.569  0.00  0.00    -0.035 C 
BRANCH  13  14
ATOM     14  C   UNL     1      -0.541  -2.136  -2.141  0.00  0.00    -0.027 A 
ATOM     15  C   UNL     1      -0.897  -2.306  -3.438  0.00  0.00    +0.009 A 
ATOM     16  C   UNL     1      -2.191  -2.694  -3.732  0.00  0.00    +0.008 A 
ATOM     17  C   UNL     1      -3.065  -2.893  -2.716  0.00  0.00    +0.045 A 
ATOM     18  S   UNL     1      -2.056  -2.535  -1.286  0.00  0.00    -0.103 S 
ENDBRANCH  13  14
ENDBRANCH   9  13
ENDBRANCH   1   9
BRANCH   1  19
ATOM     19  C   UNL     1       2.674  -0.833   0.071  0.00  0.00    -0.094 C 
BRANCH  19  20
ATOM     20  N   UNL     1       1.843  -0.717   1.277  0.00  0.00    +0.377 N 
ATOM     21  H   UNL     1       0.957  -1.175   1.121  0.00  0.00    -0.090 HD
ATOM     22  H   UNL     1       2.315  -1.155   2.054  0.00  0.00    -0.090 HD
ATOM     23  H   UNL     1       1.686   0.258   1.485  0.00  0.00    -0.090 HD
ENDBRANCH  19  20
ENDBRANCH   1  19
TORSDOF 7
