REMARK  Name = ZINC35597824
REMARK  7 active torsions:
REMARK  status: ('A' for Active; 'I' for Inactive)
REMARK    1  A    between atoms: C_1  and  C_2
REMARK    2  A    between atoms: N_12  and  C_13
REMARK    3  A    between atoms: C_15  and  C_17
REMARK    4  A    between atoms: C_17  and  C_18
REMARK    5  A    between atoms: C_18  and  C_19
REMARK    6  A    between atoms: C_18  and  C_20
REMARK    7  A    between atoms: C_18  and  C_21
REMARK                            x       y       z     vdW  Elec       q    Type
REMARK                         _______ _______ _______ _____ _____    ______ ____
ROOT
ATOM      1  C   UNL     1       0.004   1.537   0.007  0.00  0.00    +0.013 C 
ATOM      2  C   UNL     1       0.020   0.007  -0.006  0.00  0.00    +0.031 C 
ATOM      3  C   UNL     1       0.645  -0.491  -1.313  0.00  0.00    +0.104 C 
ATOM      4  C   UNL     1       1.040  -1.937  -1.210  0.00  0.00    +0.219 C 
ATOM      5  O   UNL     1       0.878  -2.660  -2.170  0.00  0.00    -0.275 OA
ATOM      6  N   UNL     1       1.570  -2.457  -0.083  0.00  0.00    -0.270 N 
ATOM      7  C   UNL     1       1.567  -1.669   1.069  0.00  0.00    +0.128 A 
ATOM      8  C   UNL     1       0.853  -0.502   1.142  0.00  0.00    +0.037 A 
ATOM      9  C   UNL     1       1.058   0.048   2.405  0.00  0.00    +0.152 A 
ATOM     10  N   UNL     1       1.848  -0.761   3.079  0.00  0.00    -0.154 NA
ATOM     11  N   UNL     1       2.174  -1.853   2.256  0.00  0.00    -0.251 N 
ATOM     12  C   UNL     1       3.019  -2.991   2.626  0.00  0.00    +0.174 C 
ATOM     13  N   UNL     1       0.518   1.252   2.875  0.00  0.00    -0.269 N 
ATOM     14  C   UNL     1       0.884   1.729   4.081  0.00  0.00    +0.219 C 
ATOM     15  O   UNL     1       1.681   1.116   4.760  0.00  0.00    -0.275 OA
ATOM     16  H   UNL     1       1.942  -3.353  -0.073  0.00  0.00    +0.156 HD
ATOM     17  H   UNL     1      -0.119   1.742   2.333  0.00  0.00    +0.156 HD
ENDROOT
BRANCH  14  18
ATOM     18  C   UNL     1       0.303   3.024   4.587  0.00  0.00    +0.102 C 
BRANCH  18  19
ATOM     19  C   UNL     1       0.880   3.337   5.970  0.00  0.00    -0.029 C 
ATOM     20  C   UNL     1       2.402   3.464   5.870  0.00  0.00    +0.011 C 
ATOM     21  C   UNL     1       0.290   4.652   6.483  0.00  0.00    +0.011 C 
ATOM     22  C   UNL     1       0.525   2.206   6.937  0.00  0.00    +0.011 C 
ENDBRANCH  18  19
ENDBRANCH  14  18
TORSDOF 2
