REMARK  Name = ZINC16388291
REMARK  7 active torsions:
REMARK  status: ('A' for Active; 'I' for Inactive)
REMARK    1  A    between atoms: C_1  and  C_2
REMARK    2  A    between atoms: C_5  and  C_8
REMARK    3  A    between atoms: C_10  and  C_13
REMARK    4  A    between atoms: C_13  and  N_41
REMARK    5  A    between atoms: C_14  and  N_41
REMARK    6  A    between atoms: C_15  and  C_16
REMARK    7  A    between atoms: C_15  and  N_41
REMARK                            x       y       z     vdW  Elec       q    Type
REMARK                         _______ _______ _______ _____ _____    ______ ____
ROOT
ATOM      1  C   UNL     1       4.659   4.382  -1.378  0.00  0.00    +0.202 A 
ATOM      2  N   UNL     1       3.378   4.009  -1.601  0.00  0.00    -0.193 NA
ATOM      3  C   UNL     1       2.868   3.779  -0.417  0.00  0.00    +0.211 A 
ATOM      4  O   UNL     1       3.830   4.018   0.479  0.00  0.00    -0.340 OA
ATOM      5  N   UNL     1       4.849   4.356  -0.085  0.00  0.00    -0.056 NA
ENDROOT
BRANCH   1  10
ATOM      6  C   UNL     1       8.550   5.809  -5.378  0.00  0.00    +0.044 C 
ATOM      7  C   UNL     1       7.532   5.436  -4.331  0.00  0.00    -0.050 A 
ATOM      8  C   UNL     1       7.880   5.457  -2.993  0.00  0.00    +0.004 A 
ATOM      9  C   UNL     1       6.952   5.115  -2.030  0.00  0.00    +0.012 A 
ATOM     10  C   UNL     1       5.662   4.750  -2.409  0.00  0.00    +0.022 A 
ATOM     11  C   UNL     1       5.318   4.726  -3.759  0.00  0.00    +0.012 A 
ATOM     12  C   UNL     1       6.253   5.074  -4.713  0.00  0.00    +0.004 A 
ENDBRANCH   1  10
BRANCH   3  13
ATOM     13  C   UNL     1       1.459   3.334  -0.121  0.00  0.00    +0.022 C 
BRANCH  13  15
ATOM     14  C   UNL     1       2.182   1.317   1.005  0.00  0.00    -0.095 C 
ATOM     15  N   UNL     1       1.412   1.857  -0.135  0.00  0.00    +0.386 N 
ATOM     16  H   UNL     1       1.830   1.518  -1.010  0.00  0.00    -0.081 HD
BRANCH  15  17
ATOM     17  C   UNL     1       0.010   1.395  -0.062  0.00  0.00    -0.042 C 
BRANCH  17  18
ATOM     18  C   UNL     1      -0.040  -0.062  -0.445  0.00  0.00    -0.050 A 
ATOM     19  C   UNL     1      -0.235  -1.026   0.527  0.00  0.00    +0.003 A 
ATOM     20  C   UNL     1      -0.286  -2.361   0.175  0.00  0.00    +0.000 A 
ATOM     21  C   UNL     1      -0.132  -2.735  -1.147  0.00  0.00    +0.001 A 
ATOM     22  C   UNL     1       0.069  -1.772  -2.119  0.00  0.00    +0.015 A 
ATOM     23  C   UNL     1       0.115  -0.435  -1.768  0.00  0.00    +0.019 A 
ATOM     24 BR   UNL     1       0.390   0.882  -3.096  0.00  0.00    -0.050 Br
ENDBRANCH  17  18
ENDBRANCH  15  17
ENDBRANCH  13  15
ENDBRANCH   3  13
TORSDOF 5
