REMARK  Name = ZINC18256825
REMARK  9 active torsions:
REMARK  status: ('A' for Active; 'I' for Inactive)
REMARK    1  A    between atoms: C_1  and  C_2
REMARK    2  A    between atoms: C_5  and  S_8
REMARK    3  A    between atoms: S_8  and  N_11
REMARK    4  A    between atoms: N_11  and  C_12
REMARK    5  A    between atoms: N_11  and  C_13
REMARK    6  A    between atoms: C_13  and  C_14
REMARK    7  A    between atoms: C_14  and  O_16
REMARK    8  A    between atoms: O_16  and  C_17
REMARK    9  A    between atoms: C_17  and  C_18
REMARK                            x       y       z     vdW  Elec       q    Type
REMARK                         _______ _______ _______ _____ _____    ______ ____
ROOT
ATOM      1  C   UNL     1       4.390  -6.020  -2.837  0.00  0.00    +0.308 C 
ENDROOT
BRANCH   1   2
ATOM      2  C   UNL     1       5.655  -6.501  -3.501  0.00  0.00    +0.170 A 
ATOM      3  N   UNL     1       5.627  -6.832  -4.779  0.00  0.00    -0.214 NA
ATOM      4  C   UNL     1       6.705  -7.256  -5.421  0.00  0.00    +0.128 A 
ATOM      5  C   UNL     1       7.932  -7.370  -4.711  0.00  0.00    +0.051 A 
ATOM      6  C   UNL     1       9.237  -7.814  -5.204  0.00  0.00    -0.025 A 
ATOM      7  C   UNL     1      10.253  -7.830  -4.317  0.00  0.00    -0.004 A 
ATOM      8  S   UNL     1       9.545  -7.263  -2.793  0.00  0.00    -0.073 S 
ATOM      9  C   UNL     1       7.882  -7.004  -3.352  0.00  0.00    +0.114 A 
ATOM     10  N   UNL     1       6.763  -6.586  -2.791  0.00  0.00    -0.221 NA
ATOM     11  C   UNL     1      11.672  -8.240  -4.569  0.00  0.00    +0.043 C 
ATOM     12  C   UNL     1      11.728  -8.997  -5.904  0.00  0.00    +0.005 C 
ATOM     13  C   UNL     1      10.957  -8.195  -6.956  0.00  0.00    +0.005 C 
ATOM     14  C   UNL     1       9.459  -8.244  -6.652  0.00  0.00    +0.037 C 
ATOM     15  N   UNL     1       6.636  -7.588  -6.762  0.00  0.00    -0.343 N 
ATOM     16  H   UNL     1       7.345  -8.111  -7.169  0.00  0.00    +0.144 HD
ATOM     17  H   UNL     1       5.880  -7.298  -7.296  0.00  0.00    +0.144 HD
ENDBRANCH   1   2
BRANCH   1  18
ATOM     18  O   UNL     1       4.298  -4.577  -2.959  0.00  0.00    -0.456 OA
BRANCH  18  19
ATOM     19  C   UNL     1       3.221  -3.987  -2.416  0.00  0.00    +0.323 C 
ATOM     20  O   UNL     1       2.384  -4.655  -1.857  0.00  0.00    -0.249 OA
BRANCH  19  21
ATOM     21  C   UNL     1       3.057  -2.491  -2.504  0.00  0.00    +0.229 C 
BRANCH  21  22
ATOM     22  N   UNL     1       1.812  -2.097  -1.841  0.00  0.00    -0.169 NA
ATOM     23  C   UNL     1       0.545  -2.138  -2.576  0.00  0.00    +0.132 C 
BRANCH  22  24
ATOM     24  S   UNL     1       1.835  -1.605  -0.260  0.00  0.00    +0.061 S 
ATOM     25  O   UNL     1       2.996  -2.178   0.327  0.00  0.00    -0.153 OA
ATOM     26  O   UNL     1       0.530  -1.831   0.256  0.00  0.00    -0.153 OA
BRANCH  24  31
ATOM     27  C   UNL     1       2.675   4.370  -0.260  0.00  0.00    +0.044 C 
ATOM     28  C   UNL     1       2.466   2.878  -0.260  0.00  0.00    -0.050 A 
ATOM     29  C   UNL     1       1.184   2.360  -0.295  0.00  0.00    +0.005 A 
ATOM     30  C   UNL     1       0.992   0.991  -0.295  0.00  0.00    +0.029 A 
ATOM     31  C   UNL     1       2.081   0.140  -0.261  0.00  0.00    +0.105 A 
ATOM     32  C   UNL     1       3.362   0.658  -0.226  0.00  0.00    +0.029 A 
ATOM     33  C   UNL     1       3.554   2.027  -0.227  0.00  0.00    +0.005 A 
ENDBRANCH  24  31
ENDBRANCH  22  24
ENDBRANCH  21  22
ENDBRANCH  19  21
ENDBRANCH  18  19
ENDBRANCH   1  18
TORSDOF 7
