REMARK  Name = ZINC08812192
REMARK  12 active torsions:
REMARK  status: ('A' for Active; 'I' for Inactive)
REMARK    1  A    between atoms: C_1  and  C_2
REMARK    2  A    between atoms: C_2  and  C_3
REMARK    3  A    between atoms: N_9  and  C_10
REMARK    4  A    between atoms: C_10  and  C_11
REMARK    5  A    between atoms: C_11  and  C_12
REMARK    6  A    between atoms: C_12  and  N_13
REMARK    7  A    between atoms: C_14  and  C_16
REMARK    8  A    between atoms: N_21  and  S_23
REMARK    9  A    between atoms: S_23  and  N_26
REMARK   10  A    between atoms: C_32  and  O_34
REMARK   11  A    between atoms: O_34  and  C_35
REMARK   12  A    between atoms: C_35  and  C_36
REMARK                            x       y       z     vdW  Elec       q    Type
REMARK                         _______ _______ _______ _____ _____    ______ ____
ROOT
ATOM      1  C   UNL     1      -4.230   4.756  -6.128  0.00  0.00    +0.091 C 
ATOM      2  C   UNL     1      -3.417   4.107  -7.251  0.00  0.00    +0.015 C 
ATOM      3  C   UNL     1      -4.096   4.376  -8.595  0.00  0.00    +0.018 C 
ATOM      4  C   UNL     1      -4.146   5.887  -8.845  0.00  0.00    +0.110 C 
ATOM      5  N   UNL     1      -4.799   6.534  -7.699  0.00  0.00    -0.166 NA
ATOM      6  C   UNL     1      -4.282   6.271  -6.349  0.00  0.00    +0.123 C 
ENDROOT
BRANCH   1   8
ATOM      7  N   UNL     1      -3.423   3.189  -4.393  0.00  0.00    -0.315 N 
ATOM      8  C   UNL     1      -3.578   4.464  -4.801  0.00  0.00    +0.217 C 
ATOM      9  O   UNL     1      -3.194   5.376  -4.100  0.00  0.00    -0.275 OA
ATOM     10  H   UNL     1      -3.730   2.459  -4.954  0.00  0.00    +0.149 HD
BRANCH   7  11
ATOM     11  C   UNL     1      -2.789   2.905  -3.103  0.00  0.00    +0.102 C 
BRANCH  11  12
ATOM     12  C   UNL     1      -2.736   1.391  -2.884  0.00  0.00    +0.000 C 
BRANCH  12  13
ATOM     13  C   UNL     1      -2.074   1.094  -1.537  0.00  0.00    -0.077 C 
BRANCH  13  19
ATOM     14  C   UNL     1      -1.287  -0.646  -0.089  0.00  0.00    -0.069 C 
ATOM     15  C   UNL     1      -1.161  -2.161   0.093  0.00  0.00    -0.015 C 
ATOM     16  C   UNL     1      -2.561  -2.777   0.175  0.00  0.00    -0.003 C 
ATOM     17  C   UNL     1      -3.345  -2.408  -1.087  0.00  0.00    -0.019 C 
ATOM     18  C   UNL     1      -3.390  -0.884  -1.225  0.00  0.00    -0.078 C 
ATOM     19  N   UNL     1      -2.023  -0.358  -1.326  0.00  0.00    +0.382 N 
ATOM     20  H   UNL     1      -1.553  -0.793  -2.105  0.00  0.00    -0.081 HD
BRANCH  14  22
ATOM     21  C   UNL     1       0.845  -0.248   1.152  0.00  0.00    +0.002 C 
ATOM     22  C   UNL     1       0.109  -0.025  -0.171  0.00  0.00    -0.019 C 
ENDBRANCH  14  22
ENDBRANCH  13  19
ENDBRANCH  12  13
ENDBRANCH  11  12
ENDBRANCH   7  11
ENDBRANCH   1   8
BRANCH   5  23
ATOM     23  S   UNL     1      -6.093   7.542  -7.925  0.00  0.00    +0.100 S 
ATOM     24  O   UNL     1      -6.135   8.408  -6.798  0.00  0.00    -0.141 OA
ATOM     25  O   UNL     1      -6.002   8.029  -9.257  0.00  0.00    -0.141 OA
BRANCH  23  26
ATOM     26  N   UNL     1      -7.459   6.608  -7.855  0.00  0.00    -0.163 NA
ATOM     27  C   UNL     1      -8.005   5.989  -9.071  0.00  0.00    +0.129 C 
ATOM     28  C   UNL     1      -8.126   4.478  -8.840  0.00  0.00    +0.128 C 
ATOM     29  N   UNL     1      -8.814   4.253  -7.561  0.00  0.00    -0.265 N 
ATOM     30  C   UNL     1      -8.269   4.872  -6.345  0.00  0.00    +0.128 C 
ATOM     31  C   UNL     1      -8.144   6.378  -6.575  0.00  0.00    +0.129 C 
ATOM     32  C   UNL     1      -9.926   3.493  -7.504  0.00  0.00    +0.403 C 
ATOM     33  O   UNL     1     -10.368   2.986  -8.516  0.00  0.00    -0.226 OA
BRANCH  32  34
ATOM     34  O   UNL     1     -10.546   3.294  -6.326  0.00  0.00    -0.451 OA
BRANCH  34  35
ATOM     35  C   UNL     1     -11.719   2.478  -6.340  0.00  0.00    +0.230 C 
ATOM     36  C   UNL     1     -12.281   2.368  -4.921  0.00  0.00    +0.048 C 
ENDBRANCH  34  35
ENDBRANCH  32  34
ENDBRANCH  23  26
ENDBRANCH   5  23
TORSDOF 10
