REMARK  Name = ZINC19526403
REMARK  10 active torsions:
REMARK  status: ('A' for Active; 'I' for Inactive)
REMARK    1  A    between atoms: C_1  and  C_2
REMARK    2  A    between atoms: C_2  and  N_3
REMARK    3  A    between atoms: N_3  and  C_4
REMARK    4  A    between atoms: N_3  and  C_6
REMARK    5  A    between atoms: C_4  and  C_5
REMARK    6  A    between atoms: C_6  and  C_7
REMARK    7  A    between atoms: C_7  and  N_8
REMARK    8  A    between atoms: C_9  and  C_11
REMARK    9  A    between atoms: C_11  and  N_12
REMARK   10  A    between atoms: C_25  and  C_27
REMARK                            x       y       z     vdW  Elec       q    Type
REMARK                         _______ _______ _______ _____ _____    ______ ____
ROOT
ATOM      1  N   UNL     1      -0.755   1.746   0.994  0.00  0.00    -0.179 N 
ATOM      2  C   UNL     1      -0.071   1.241  -0.036  0.00  0.00    +0.283 C 
ATOM      3  O   UNL     1       0.849   1.883  -0.508  0.00  0.00    -0.267 OA
ATOM      4  C   UNL     1      -0.400  -0.070  -0.612  0.00  0.00    +0.108 A 
ATOM      5  C   UNL     1      -0.298  -0.437  -1.914  0.00  0.00    +0.041 A 
ATOM      6  C   UNL     1      -0.676  -1.799  -2.009  0.00  0.00    +0.001 A 
ATOM      7  C   UNL     1      -0.760  -2.701  -3.078  0.00  0.00    +0.010 A 
ATOM      8  C   UNL     1      -1.157  -3.986  -2.852  0.00  0.00    +0.001 A 
ATOM      9  C   UNL     1      -1.481  -4.412  -1.570  0.00  0.00    +0.002 A 
ATOM     10  C   UNL     1      -1.410  -3.544  -0.504  0.00  0.00    +0.026 A 
ATOM     11  C   UNL     1      -1.012  -2.225  -0.709  0.00  0.00    +0.050 A 
ATOM     12  N   UNL     1      -0.855  -1.149   0.128  0.00  0.00    -0.330 N 
ATOM     13  C   UNL     1      -1.129  -1.102   1.569  0.00  0.00    +0.180 C 
ATOM     14  C   UNL     1      -2.142  -0.014   1.820  0.00  0.00    +0.086 C 
ATOM     15  N   UNL     1      -1.904   1.217   1.542  0.00  0.00    -0.179 NA
ENDROOT
BRANCH  14  16
ATOM     16  C   UNL     1      -3.448  -0.375   2.401  0.00  0.00    -0.000 A 
ATOM     17  C   UNL     1      -4.354   0.624   2.766  0.00  0.00    +0.010 A 
ATOM     18  C   UNL     1      -5.576   0.279   3.304  0.00  0.00    +0.001 A 
ATOM     19  C   UNL     1      -5.902  -1.052   3.493  0.00  0.00    +0.000 A 
ATOM     20  C   UNL     1      -5.007  -2.047   3.139  0.00  0.00    +0.001 A 
ATOM     21  C   UNL     1      -3.784  -1.717   2.595  0.00  0.00    +0.010 A 
ENDBRANCH  14  16
BRANCH   1  22
ATOM     22  C   UNL     1      -0.238   2.978   1.595  0.00  0.00    +0.231 C 
BRANCH  22  24
ATOM     23  N   UNL     1      -0.514   5.417   1.288  0.00  0.00    -0.316 N 
ATOM     24  C   UNL     1      -0.846   4.170   0.900  0.00  0.00    +0.232 C 
ATOM     25  O   UNL     1      -1.634   4.006  -0.007  0.00  0.00    -0.274 OA
ATOM     26  H   UNL     1       0.200   5.566   2.111  0.00  0.00    +0.149 HD
BRANCH  23  27
ATOM     27  C   UNL     1      -1.105   6.575   0.613  0.00  0.00    +0.086 C 
BRANCH  27  28
ATOM     28  C   UNL     1      -0.565   7.862   1.241  0.00  0.00    -0.060 C 
BRANCH  28  29
ATOM     29  N   UNL     1      -1.157   9.023   0.564  0.00  0.00    +0.380 N 
ATOM     30  H   UNL     1      -1.004   8.898  -0.518  0.00  0.00    -0.082 HD
BRANCH  29  32
ATOM     31  C   UNL     1      -2.862   9.159   2.317  0.00  0.00    -0.017 C 
ATOM     32  C   UNL     1      -2.604   9.095   0.811  0.00  0.00    -0.082 C 
ENDBRANCH  29  32
BRANCH  29  33
ATOM     33  C   UNL     1      -0.492  10.267   0.974  0.00  0.00    -0.082 C 
ATOM     34  C   UNL     1      -0.848  11.384  -0.010  0.00  0.00    -0.017 C 
ENDBRANCH  29  33
ENDBRANCH  28  29
ENDBRANCH  27  28
ENDBRANCH  23  27
ENDBRANCH  22  24
ENDBRANCH   1  22
TORSDOF 8
