REMARK  Name = ZINC64143958
REMARK  5 active torsions:
REMARK  status: ('A' for Active; 'I' for Inactive)
REMARK    1  A    between atoms: C_7  and  C_10
REMARK    2  A    between atoms: C_16  and  C_18
REMARK    3  A    between atoms: C_18  and  C_19
REMARK    4  A    between atoms: C_19  and  C_20
REMARK    5  A    between atoms: C_23  and  C_26
REMARK                            x       y       z     vdW  Elec       q    Type
REMARK                         _______ _______ _______ _____ _____    ______ ____
ROOT
ATOM      1  C   UNL     1       0.669  -3.134  -0.022  0.00  0.00    +0.079 A 
ATOM      2  C   UNL     1       1.141  -4.440  -0.030  0.00  0.00    +0.076 A 
ATOM      3  S   UNL     1      -0.282  -5.339  -0.023  0.00  0.00    -0.060 S 
ATOM      4  C   UNL     1      -1.446  -3.989  -0.011  0.00  0.00    +0.165 A 
ATOM      5  N   UNL     1      -0.655  -2.938  -0.008  0.00  0.00    -0.225 NA
ATOM      6  N   UNL     1      -2.832  -4.034  -0.003  0.00  0.00    -0.265 N 
ATOM      7  C   UNL     1      -3.467  -5.223  -0.003  0.00  0.00    +0.219 C 
ATOM      8  O   UNL     1      -2.827  -6.253  -0.010  0.00  0.00    -0.275 OA
ATOM      9  H   UNL     1      -3.345  -3.211   0.003  0.00  0.00    +0.157 HD
ENDROOT
BRANCH   1  16
ATOM     10  C   UNL     1      -0.016   1.353   0.009  0.00  0.00    +0.001 A 
ATOM     11  C   UNL     1       1.163   2.101   0.002  0.00  0.00    +0.002 A 
ATOM     12  C   UNL     1       2.384   1.511  -0.013  0.00  0.00    +0.026 A 
ATOM     13  C   UNL     1       2.484   0.096  -0.022  0.00  0.00    +0.043 A 
ATOM     14  N   UNL     1       3.532  -0.704  -0.037  0.00  0.00    -0.380 N 
ATOM     15  C   UNL     1       3.075  -2.097  -0.041  0.00  0.00    +0.151 C 
ATOM     16  C   UNL     1       1.563  -2.041  -0.025  0.00  0.00    +0.007 C 
ATOM     17  C   UNL     1       1.238  -0.688  -0.013  0.00  0.00    +0.005 A 
ATOM     18  C   UNL     1       0.002  -0.004   0.002  0.00  0.00    +0.010 A 
ATOM     19  H   UNL     1       4.458  -0.417  -0.045  0.00  0.00    +0.160 HD
ENDBRANCH   1  16
BRANCH   7  20
ATOM     20  C   UNL     1      -4.973  -5.273   0.006  0.00  0.00    +0.101 C 
BRANCH  20  21
ATOM     21  C   UNL     1      -5.436  -6.732   0.005  0.00  0.00    +0.077 C 
BRANCH  21  22
ATOM     22  C   UNL     1      -6.965  -6.782   0.014  0.00  0.00    +0.292 C 
ATOM     23  N   UNL     1      -7.433  -8.175  -0.068  0.00  0.00    -0.289 N 
ATOM     24  C   UNL     1      -8.155  -8.422   1.087  0.00  0.00    +0.174 C 
ATOM     25  N   UNL     1      -8.188  -7.376   1.851  0.00  0.00    -0.066 NA
ATOM     26  O   UNL     1      -7.474  -6.300   1.267  0.00  0.00    -0.369 OA
ATOM     27  H   UNL     1      -7.266  -8.799  -0.791  0.00  0.00    +0.151 HD
BRANCH  24  28
ATOM     28  C   UNL     1      -8.803  -9.706   1.405  0.00  0.00    +0.055 A 
ATOM     29  C   UNL     1      -9.541 -10.052   2.508  0.00  0.00    +0.019 A 
ATOM     30  C   UNL     1     -10.052 -11.326   2.588  0.00  0.00    +0.008 A 
ATOM     31  C   UNL     1      -9.813 -12.201   1.575  0.00  0.00    +0.046 A 
ATOM     32  S   UNL     1      -8.838 -11.215   0.451  0.00  0.00    -0.094 S 
ENDBRANCH  24  28
ENDBRANCH  21  22
ENDBRANCH  20  21
ENDBRANCH   7  20
TORSDOF 5
