REMARK  Name = ZINC46875832
REMARK  6 active torsions:
REMARK  status: ('A' for Active; 'I' for Inactive)
REMARK    1  A    between atoms: C_1  and  C_2
REMARK    2  A    between atoms: C_11  and  N_30
REMARK    3  A    between atoms: C_13  and  C_15
REMARK    4  A    between atoms: C_15  and  N_16
REMARK    5  A    between atoms: N_21  and  C_26
REMARK    6  A    between atoms: N_24  and  C_25
REMARK                            x       y       z     vdW  Elec       q    Type
REMARK                         _______ _______ _______ _____ _____    ______ ____
ROOT
ATOM      1  C   UNL     1      -1.001  -0.434  -2.481  0.00  0.00    +0.008 C 
ATOM      2  C   UNL     1      -0.526  -1.848  -2.140  0.00  0.00    -0.009 C 
ATOM      3  C   UNL     1       0.678  -2.210  -3.014  0.00  0.00    +0.008 C 
ATOM      4  C   UNL     1       1.003  -3.696  -2.860  0.00  0.00    +0.037 C 
ATOM      5  C   UNL     1       1.151  -4.018  -1.375  0.00  0.00    -0.025 A 
ATOM      6  C   UNL     1       0.642  -3.188  -0.438  0.00  0.00    -0.004 A 
ATOM      7  S   UNL     1       1.040  -3.941   1.120  0.00  0.00    -0.073 S 
ATOM      8  C   UNL     1       1.888  -5.364   0.516  0.00  0.00    +0.114 A 
ATOM      9  C   UNL     1       1.834  -5.207  -0.892  0.00  0.00    +0.051 A 
ATOM     10  C   UNL     1       2.450  -6.224  -1.677  0.00  0.00    +0.128 A 
ATOM     11  N   UNL     1       3.015  -7.220  -0.997  0.00  0.00    -0.215 NA
ATOM     12  C   UNL     1       3.026  -7.299   0.319  0.00  0.00    +0.152 A 
ATOM     13  N   UNL     1       2.471  -6.387   1.109  0.00  0.00    -0.223 NA
ATOM     14  C   UNL     1      -0.104  -1.908  -0.666  0.00  0.00    +0.046 C 
ENDROOT
BRANCH  10  15
ATOM     15  N   UNL     1       2.460  -6.180  -3.060  0.00  0.00    -0.343 N 
ATOM     16  H   UNL     1       3.070  -6.746  -3.558  0.00  0.00    +0.144 HD
ATOM     17  H   UNL     1       1.858  -5.583  -3.530  0.00  0.00    +0.144 HD
ENDBRANCH  10  15
BRANCH  12  18
ATOM     18  C   UNL     1       3.702  -8.484   0.959  0.00  0.00    +0.201 C 
BRANCH  18  19
ATOM     19  N   UNL     1       5.113  -8.171   1.198  0.00  0.00    -0.297 N 
ATOM     20  C   UNL     1       5.649  -7.714   2.361  0.00  0.00    +0.151 A 
ATOM     21  C   UNL     1       7.010  -7.557   2.132  0.00  0.00    +0.172 A 
ATOM     22  C   UNL     1       7.847  -7.070   3.229  0.00  0.00    +0.284 A 
ATOM     23  O   UNL     1       9.045  -6.917   3.077  0.00  0.00    -0.265 OA
ATOM     24  N   UNL     1       7.260  -6.794   4.414  0.00  0.00    -0.262 N 
ATOM     25  C   UNL     1       5.939  -6.962   4.585  0.00  0.00    +0.333 A 
ATOM     26  O   UNL     1       5.449  -6.702   5.668  0.00  0.00    -0.246 OA
ATOM     27  N   UNL     1       5.137  -7.407   3.601  0.00  0.00    -0.281 N 
ATOM     28  C   UNL     1       3.703  -7.568   3.853  0.00  0.00    +0.155 C 
ATOM     29  C   UNL     1       8.077  -6.306   5.528  0.00  0.00    +0.157 C 
ATOM     30  N   UNL     1       7.250  -7.923   0.849  0.00  0.00    -0.214 NA
ATOM     31  C   UNL     1       6.130  -8.291   0.295  0.00  0.00    +0.180 A 
ATOM     32 BR   UNL     1       5.941  -8.896  -1.487  0.00  0.00    -0.008 Br
ENDBRANCH  18  19
ENDBRANCH  12  18
TORSDOF 3
