REMARK  Name = ZINC64126660
REMARK  3 active torsions:
REMARK  status: ('A' for Active; 'I' for Inactive)
REMARK    1  A    between atoms: C_8  and  C_9
REMARK    2  A    between atoms: N_14  and  C_17
REMARK    3  A    between atoms: C_17  and  C_18
REMARK                            x       y       z     vdW  Elec       q    Type
REMARK                         _______ _______ _______ _____ _____    ______ ____
ROOT
ATOM      1  C   UNL     1      -1.114  -0.695  -0.160  0.00  0.00    +0.252 C 
ATOM      2  O   UNL     1      -2.171  -0.113  -0.012  0.00  0.00    -0.270 OA
ATOM      3  N   UNL     1      -1.089  -2.041  -0.222  0.00  0.00    -0.295 N 
ATOM      4  C   UNL     1       0.187  -2.771  -0.271  0.00  0.00    +0.123 C 
ATOM      5  C   UNL     1       0.143  -3.750  -1.449  0.00  0.00    +0.103 C 
ATOM      6  N   UNL     1      -1.052  -4.596  -1.335  0.00  0.00    -0.299 NA
ATOM      7  C   UNL     1      -2.281  -3.796  -1.422  0.00  0.00    +0.103 C 
ATOM      8  C   UNL     1      -2.336  -2.819  -0.237  0.00  0.00    +0.123 C 
ENDROOT
BRANCH   1  16
ATOM      9  C   UNL     1       0.765   0.239  -1.497  0.00  0.00    +0.031 A 
ATOM     10  C   UNL     1       1.964   0.982  -1.554  0.00  0.00    +0.037 A 
ATOM     11  C   UNL     1       2.505   1.539  -0.408  0.00  0.00    +0.030 A 
ATOM     12  N   UNL     1       1.901   1.370   0.785  0.00  0.00    -0.325 N 
ATOM     13  H   UNL     1       2.302   1.764   1.576  0.00  0.00    +0.169 HD
ATOM     14  C   UNL     1       0.759   0.675   0.912  0.00  0.00    +0.261 A 
ATOM     15  O   UNL     1       0.240   0.546   2.006  0.00  0.00    -0.267 OA
ATOM     16  C   UNL     1       0.139   0.070  -0.270  0.00  0.00    +0.102 A 
ATOM     17  C   UNL     1       3.773   2.352  -0.454  0.00  0.00    +0.054 C 
ATOM     18  C   UNL     1       4.616   2.000  -1.676  0.00  0.00    +0.014 C 
ATOM     19  C   UNL     1       3.762   2.160  -2.941  0.00  0.00    +0.080 C 
ATOM     20  C   UNL     1       2.636   1.152  -2.854  0.00  0.00    +0.165 C 
ATOM     21  O   UNL     1       2.299   0.505  -3.823  0.00  0.00    -0.292 OA
ENDBRANCH   1  16
BRANCH   6  22
ATOM     22  C   UNL     1      -1.043  -5.660  -2.347  0.00  0.00    +0.088 C 
BRANCH  22  23
ATOM     23  C   UNL     1      -0.051  -6.749  -1.933  0.00  0.00    +0.003 C 
ATOM     24  C   UNL     1      -0.512  -7.387  -0.621  0.00  0.00    +0.005 C 
ATOM     25  C   UNL     1       0.480  -8.476  -0.208  0.00  0.00    +0.000 C 
ATOM     26  C   UNL     1       0.548  -9.546  -1.299  0.00  0.00    +0.000 C 
ATOM     27  C   UNL     1       1.009  -8.908  -2.611  0.00  0.00    +0.000 C 
ATOM     28  C   UNL     1       0.016  -7.819  -3.025  0.00  0.00    +0.005 C 
ENDBRANCH  22  23
ENDBRANCH   6  22
TORSDOF 3
