REMARK  Name = ZINC43732437
REMARK  11 active torsions:
REMARK  status: ('A' for Active; 'I' for Inactive)
REMARK    1  A    between atoms: C_1  and  O_2
REMARK    2  A    between atoms: O_2  and  C_3
REMARK    3  A    between atoms: C_6  and  C_11
REMARK    4  A    between atoms: C_7  and  O_9
REMARK    5  A    between atoms: O_9  and  C_10
REMARK    6  A    between atoms: C_15  and  C_17
REMARK    7  A    between atoms: C_17  and  C_19
REMARK    8  A    between atoms: C_22  and  O_27
REMARK    9  A    between atoms: C_24  and  O_25
REMARK   10  A    between atoms: O_25  and  C_26
REMARK   11  A    between atoms: O_27  and  C_28
REMARK                            x       y       z     vdW  Elec       q    Type
REMARK                         _______ _______ _______ _____ _____    ______ ____
ROOT
ATOM      1  C   UNL     1      -5.049  -2.596  -0.027  0.00  0.00    +0.083 C 
ATOM      2  N   UNL     1      -6.259  -1.978   0.156  0.00  0.00    -0.263 N 
ATOM      3  O   UNL     1      -7.301  -2.936   0.211  0.00  0.00    -0.248 OA
ATOM      4  C   UNL     1      -6.694  -4.216   0.052  0.00  0.00    +0.229 C 
ATOM      5  C   UNL     1      -5.219  -3.962  -0.106  0.00  0.00    +0.073 C 
ATOM      6  H   UNL     1      -6.384  -1.019   0.236  0.00  0.00    +0.194 HD
ATOM      7  C   UNL     1      -6.980  -5.115   1.225  0.00  0.00    +0.021 A 
ATOM      8  C   UNL     1      -6.723  -5.019   2.574  0.00  0.00    +0.009 A 
ATOM      9  C   UNL     1      -7.120  -6.033   3.428  0.00  0.00    +0.000 A 
ATOM     10  C   UNL     1      -7.774  -7.142   2.922  0.00  0.00    +0.002 A 
ATOM     11  C   UNL     1      -8.031  -7.242   1.571  0.00  0.00    +0.024 A 
ATOM     12  C   UNL     1      -7.635  -6.226   0.704  0.00  0.00    +0.040 A 
ATOM     13  N   UNL     1      -7.778  -6.099  -0.679  0.00  0.00    -0.282 N 
ATOM     14  C   UNL     1      -7.252  -4.949  -1.140  0.00  0.00    +0.261 C 
ATOM     15  O   UNL     1      -7.230  -4.574  -2.293  0.00  0.00    -0.271 OA
ATOM     16  H   UNL     1      -8.207  -6.762  -1.242  0.00  0.00    +0.155 HD
ENDROOT
BRANCH   1  20
ATOM     17  C   UNL     1      -1.315  -0.591  -0.324  0.00  0.00    +0.124 A 
ATOM     18  C   UNL     1      -1.501  -1.580   0.637  0.00  0.00    +0.046 A 
ATOM     19  C   UNL     1      -2.708  -2.232   0.738  0.00  0.00    +0.017 A 
ATOM     20  C   UNL     1      -3.755  -1.900  -0.130  0.00  0.00    +0.042 A 
ATOM     21  C   UNL     1      -3.566  -0.903  -1.099  0.00  0.00    +0.133 A 
ATOM     22  C   UNL     1      -2.348  -0.251  -1.186  0.00  0.00    +0.092 A 
BRANCH  17  24
ATOM     23  C   UNL     1       0.899  -0.351   0.502  0.00  0.00    +0.277 C 
ATOM     24  O   UNL     1      -0.121   0.047  -0.415  0.00  0.00    -0.495 OA
ENDBRANCH  17  24
BRANCH  21  25
ATOM     25  O   UNL     1      -4.575  -0.575  -1.945  0.00  0.00    -0.494 OA
ATOM     26  C   UNL     1      -4.280   0.375  -2.970  0.00  0.00    +0.277 C 
ENDBRANCH  21  25
ENDBRANCH   1  20
BRANCH   5  27
ATOM     27  C   UNL     1      -4.214  -4.927  -0.295  0.00  0.00    +0.198 C 
ATOM     28  O   UNL     1      -3.826  -5.596   0.649  0.00  0.00    -0.287 OA
BRANCH  27  29
ATOM     29  C   UNL     1      -3.627  -5.130  -1.634  0.00  0.00    +0.064 A 
ATOM     30  C   UNL     1      -3.984  -4.287  -2.691  0.00  0.00    +0.019 A 
ATOM     31  C   UNL     1      -3.436  -4.479  -3.938  0.00  0.00    +0.046 A 
ATOM     32  C   UNL     1      -2.526  -5.510  -4.152  0.00  0.00    +0.124 A 
ATOM     33  C   UNL     1      -2.166  -6.352  -3.111  0.00  0.00    +0.092 A 
ATOM     34  C   UNL     1      -2.706  -6.164  -1.850  0.00  0.00    +0.134 A 
BRANCH  34  35
ATOM     35  O   UNL     1      -2.349  -6.982  -0.828  0.00  0.00    -0.494 OA
ATOM     36  C   UNL     1      -1.406  -8.014  -1.121  0.00  0.00    +0.277 C 
ENDBRANCH  34  35
BRANCH  32  37
ATOM     37  O   UNL     1      -1.990  -5.693  -5.386  0.00  0.00    -0.495 OA
ATOM     38  C   UNL     1      -2.405  -4.792  -6.414  0.00  0.00    +0.277 C 
ENDBRANCH  32  37
ENDBRANCH  27  29
ENDBRANCH   5  27
TORSDOF 7
