REMARK  Name = ZINC12466818
REMARK  15 active torsions:
REMARK  status: ('A' for Active; 'I' for Inactive)
REMARK    1  A    between atoms: C_1  and  C_2
REMARK    2  A    between atoms: C_5  and  N_8
REMARK    3  A    between atoms: C_9  and  C_29
REMARK    4  A    between atoms: C_12  and  S_13
REMARK    5  A    between atoms: S_13  and  C_14
REMARK    6  A    between atoms: C_14  and  C_15
REMARK    7  A    between atoms: N_17  and  N_18
REMARK    8  A    between atoms: C_19  and  C_20
REMARK    9  A    between atoms: C_23  and  C_26
REMARK   10  A    between atoms: C_26  and  C_27
REMARK   11  A    between atoms: C_26  and  C_28
REMARK   12  A    between atoms: C_32  and  C_35
REMARK   13  A    between atoms: C_35  and  C_36
REMARK   14  A    between atoms: C_35  and  C_37
REMARK   15  A    between atoms: C_35  and  C_38
REMARK                            x       y       z     vdW  Elec       q    Type
REMARK                         _______ _______ _______ _____ _____    ______ ____
ROOT
ATOM      1  N   UNL     1      -3.980   0.449  -3.848  0.00  0.00    -0.270 N 
ATOM      2  C   UNL     1      -3.008  -0.368  -4.383  0.00  0.00    +0.169 A 
ATOM      3  N   UNL     1      -3.322  -1.601  -4.060  0.00  0.00    -0.128 NA
ATOM      4  N   UNL     1      -4.408  -1.614  -3.374  0.00  0.00    -0.122 NA
ATOM      5  C   UNL     1      -4.858  -0.389  -3.216  0.00  0.00    +0.197 A 
ENDROOT
BRANCH   1  10
ATOM      6  C   UNL     1      -4.285   6.106  -4.200  0.00  0.00    +0.044 C 
ATOM      7  C   UNL     1      -4.204   4.604  -4.106  0.00  0.00    -0.050 A 
ATOM      8  C   UNL     1      -5.160   3.821  -4.728  0.00  0.00    +0.005 A 
ATOM      9  C   UNL     1      -5.088   2.444  -4.644  0.00  0.00    +0.026 A 
ATOM     10  C   UNL     1      -4.055   1.846  -3.934  0.00  0.00    +0.051 A 
ATOM     11  C   UNL     1      -3.101   2.635  -3.307  0.00  0.00    +0.026 A 
ATOM     12  C   UNL     1      -3.174   4.011  -3.399  0.00  0.00    +0.005 A 
ENDBRANCH   1  10
BRANCH   2  13
ATOM     13  C   UNL     1      -1.832   0.063  -5.167  0.00  0.00    +0.020 A 
ATOM     14  C   UNL     1      -1.801   1.335  -5.742  0.00  0.00    +0.012 A 
ATOM     15  C   UNL     1      -0.697   1.733  -6.468  0.00  0.00    +0.005 A 
ATOM     16  C   UNL     1       0.374   0.873  -6.632  0.00  0.00    -0.042 A 
ATOM     17  C   UNL     1       0.348  -0.390  -6.068  0.00  0.00    +0.005 A 
ATOM     18  C   UNL     1      -0.749  -0.801  -5.340  0.00  0.00    +0.012 A 
BRANCH  16  19
ATOM     19  C   UNL     1       1.576   1.315  -7.427  0.00  0.00    -0.013 C 
ATOM     20  C   UNL     1       2.191   2.555  -6.775  0.00  0.00    +0.015 C 
ATOM     21  C   UNL     1       2.611   0.188  -7.455  0.00  0.00    +0.015 C 
ATOM     22  C   UNL     1       1.147   1.650  -8.857  0.00  0.00    +0.015 C 
ENDBRANCH  16  19
ENDBRANCH   2  13
BRANCH   5  23
ATOM     23  S   UNL     1      -6.315   0.086  -2.347  0.00  0.00    -0.076 S 
BRANCH  23  24
ATOM     24  C   UNL     1      -6.904  -1.539  -1.810  0.00  0.00    +0.174 C 
BRANCH  24  25
ATOM     25  C   UNL     1      -8.180  -1.377  -1.024  0.00  0.00    +0.242 C 
ATOM     26  O   UNL     1      -8.645  -0.271  -0.844  0.00  0.00    -0.273 OA
ATOM     27  N   UNL     1      -8.804  -2.460  -0.520  0.00  0.00    -0.206 N 
ATOM     28  H   UNL     1      -8.432  -3.344  -0.664  0.00  0.00    +0.177 HD
BRANCH  27  29
ATOM     29  N   UNL     1      -9.989  -2.309   0.211  0.00  0.00    -0.188 NA
ATOM     30  C   UNL     1     -10.512  -3.329   0.818  0.00  0.00    +0.138 C 
BRANCH  30  31
ATOM     31  C   UNL     1      -9.709  -4.548   1.037  0.00  0.00    -0.005 A 
ATOM     32  C   UNL     1     -10.341  -5.770   1.276  0.00  0.00    +0.010 A 
ATOM     33  C   UNL     1      -9.584  -6.907   1.474  0.00  0.00    +0.004 A 
ATOM     34  C   UNL     1      -8.202  -6.835   1.448  0.00  0.00    -0.045 A 
ATOM     35  C   UNL     1      -7.570  -5.625   1.217  0.00  0.00    +0.004 A 
ATOM     36  C   UNL     1      -8.314  -4.482   1.012  0.00  0.00    +0.010 A 
BRANCH  34  37
ATOM     37  C   UNL     1      -7.382  -8.079   1.671  0.00  0.00    +0.013 C 
ATOM     38  C   UNL     1      -7.698  -8.658   3.051  0.00  0.00    +0.012 C 
ATOM     39  C   UNL     1      -7.721  -9.113   0.595  0.00  0.00    +0.012 C 
ENDBRANCH  34  37
ENDBRANCH  30  31
ENDBRANCH  27  29
ENDBRANCH  24  25
ENDBRANCH  23  24
ENDBRANCH   5  23
TORSDOF 9
