REMARK  Name = ZINC12329230
REMARK  8 active torsions:
REMARK  status: ('A' for Active; 'I' for Inactive)
REMARK    1  A    between atoms: C_1  and  C_2
REMARK    2  A    between atoms: C_8  and  O_32
REMARK    3  A    between atoms: C_17  and  C_18
REMARK    4  A    between atoms: C_17  and  N_63
REMARK    5  A    between atoms: C_18  and  C_20
REMARK    6  A    between atoms: C_18  and  O_31
REMARK    7  A    between atoms: C_21  and  C_30
REMARK    8  A    between atoms: N_22  and  C_29
REMARK                            x       y       z     vdW  Elec       q    Type
REMARK                         _______ _______ _______ _____ _____    ______ ____
ROOT
ATOM      1  C   UNL     1     -10.457   6.886  -1.225  0.00  0.00    +0.044 C 
ATOM      2  C   UNL     1      -9.220   7.054  -0.382  0.00  0.00    -0.050 A 
ATOM      3  C   UNL     1      -8.659   5.959   0.250  0.00  0.00    +0.007 A 
ATOM      4  C   UNL     1      -7.526   6.114   1.021  0.00  0.00    +0.046 A 
ATOM      5  C   UNL     1      -6.944   7.370   1.167  0.00  0.00    +0.127 A 
ATOM      6  C   UNL     1      -7.506   8.463   0.532  0.00  0.00    +0.023 A 
ATOM      7  C   UNL     1      -8.644   8.302  -0.241  0.00  0.00    +0.013 A 
ATOM      8  C   UNL     1      -6.903   9.839   0.656  0.00  0.00    +0.152 C 
ATOM      9  C   UNL     1      -5.963   9.883   1.864  0.00  0.00    +0.084 C 
ATOM     10  C   UNL     1      -5.040   8.662   1.800  0.00  0.00    +0.110 C 
ATOM     11  O   UNL     1      -5.831   7.483   1.938  0.00  0.00    -0.485 OA
ATOM     12  C   UNL     1      -4.016   8.736   2.934  0.00  0.00    +0.029 C 
ATOM     13  C   UNL     1      -3.054   7.551   2.827  0.00  0.00    -0.075 C 
ATOM     14  C   UNL     1      -3.339   7.460   0.423  0.00  0.00    -0.075 C 
ATOM     15  C   UNL     1      -4.309   8.643   0.456  0.00  0.00    +0.029 C 
ATOM     16  N   UNL     1      -2.362   7.610   1.522  0.00  0.00    +0.382 N 
ATOM     17  H   UNL     1      -1.898   8.521   1.433  0.00  0.00    -0.082 HD
ENDROOT
BRANCH   8  18
ATOM     18  O   UNL     1      -7.946  10.801   0.831  0.00  0.00    -0.387 OA
ATOM     19  H   UNL     1      -8.579  10.832   0.101  0.00  0.00    +0.210 HD
ENDBRANCH   8  18
BRANCH  16  20
ATOM     20  C   UNL     1      -1.344   6.543   1.442  0.00  0.00    -0.042 C 
BRANCH  20  21
ATOM     21  C   UNL     1      -0.226   6.852   2.440  0.00  0.00    +0.130 C 
BRANCH  21  22
ATOM     22  C   UNL     1       0.841   5.792   2.344  0.00  0.00    +0.007 A 
ATOM     23  C   UNL     1       1.059   4.798   3.219  0.00  0.00    +0.022 A 
ATOM     24  N   UNL     1       2.113   4.031   2.801  0.00  0.00    -0.347 N 
ATOM     25  C   UNL     1       2.610   4.526   1.616  0.00  0.00    +0.049 A 
ATOM     26  C   UNL     1       1.835   5.650   1.278  0.00  0.00    +0.006 A 
ATOM     27  C   UNL     1       2.115   6.363   0.110  0.00  0.00    +0.010 A 
ATOM     28  C   UNL     1       3.145   5.968  -0.696  0.00  0.00    +0.001 A 
ATOM     29  C   UNL     1       3.909   4.856  -0.369  0.00  0.00    +0.002 A 
ATOM     30  C   UNL     1       3.650   4.138   0.778  0.00  0.00    +0.026 A 
ATOM     31  C   UNL     1       2.634   2.859   3.508  0.00  0.00    +0.149 C 
ATOM     32  C   UNL     1       0.262   4.561   4.476  0.00  0.00    +0.064 C 
ENDBRANCH  21  22
BRANCH  21  33
ATOM     33  O   UNL     1       0.342   8.128   2.138  0.00  0.00    -0.389 OA
ATOM     34  H   UNL     1       0.726   8.188   1.252  0.00  0.00    +0.210 HD
ENDBRANCH  21  33
ENDBRANCH  20  21
ENDBRANCH  16  20
TORSDOF 5
