REMARK  Name = ZINC43527847
REMARK  10 active torsions:
REMARK  status: ('A' for Active; 'I' for Inactive)
REMARK    1  A    between atoms: C_1  and  C_2
REMARK    2  A    between atoms: C_2  and  C_3
REMARK    3  A    between atoms: C_3  and  C_4
REMARK    4  A    between atoms: C_3  and  C_6
REMARK    5  A    between atoms: C_4  and  C_5
REMARK    6  A    between atoms: C_8  and  C_18
REMARK    7  A    between atoms: C_10  and  C_12
REMARK    8  A    between atoms: C_27  and  C_29
REMARK    9  A    between atoms: C_29  and  N_30
REMARK   10  A    between atoms: C_31  and  C_33
REMARK                            x       y       z     vdW  Elec       q    Type
REMARK                         _______ _______ _______ _____ _____    ______ ____
ROOT
ATOM      1  C   UNL     1      -1.103  -5.101  -2.054  0.00  0.00    +0.024 C 
ATOM      2  C   UNL     1      -1.810  -4.473  -3.257  0.00  0.00    -0.068 C 
ATOM      3  N   UNL     1      -0.847  -4.231  -4.334  0.00  0.00    +0.383 N 
ATOM      4  C   UNL     1       0.192  -3.296  -3.897  0.00  0.00    -0.078 C 
ATOM      5  C   UNL     1       0.965  -3.885  -2.715  0.00  0.00    -0.015 C 
ATOM      6  C   UNL     1       0.386  -5.270  -2.383  0.00  0.00    -0.007 C 
ATOM      7  C   UNL     1       0.509  -6.156  -3.629  0.00  0.00    -0.010 C 
ATOM      8  C   UNL     1      -0.250  -5.491  -4.784  0.00  0.00    -0.051 C 
ATOM      9  H   UNL     1      -1.335  -3.814  -5.112  0.00  0.00    -0.081 HD
ENDROOT
BRANCH   1  12
ATOM     10  C   UNL     1      -1.414  -2.036   0.129  0.00  0.00    +0.048 A 
ATOM     11  C   UNL     1      -1.270  -2.825  -1.003  0.00  0.00    +0.047 A 
ATOM     12  C   UNL     1      -1.257  -4.204  -0.852  0.00  0.00    +0.047 A 
ATOM     13  N   UNL     1      -1.381  -4.721   0.358  0.00  0.00    -0.232 NA
ATOM     14  C   UNL     1      -1.517  -3.939   1.419  0.00  0.00    +0.160 A 
ATOM     15  N   UNL     1      -1.528  -2.618   1.310  0.00  0.00    -0.232 NA
BRANCH  14  16
ATOM     16  C   UNL     1      -1.653  -4.556   2.761  0.00  0.00    +0.022 A 
ATOM     17  C   UNL     1      -1.635  -5.944   2.918  0.00  0.00    +0.031 A 
ATOM     18  C   UNL     1      -1.765  -6.477   4.185  0.00  0.00    +0.111 A 
ATOM     19  N   UNL     1      -1.905  -5.694   5.237  0.00  0.00    -0.263 NA
ATOM     20  C   UNL     1      -1.928  -4.380   5.133  0.00  0.00    +0.111 A 
ATOM     21  C   UNL     1      -1.798  -3.765   3.904  0.00  0.00    +0.031 A 
ENDBRANCH  14  16
BRANCH  10  22
ATOM     22  C   UNL     1      -1.433  -0.534   0.013  0.00  0.00    +0.037 C 
BRANCH  22  24
ATOM     23  C   UNL     1      -0.019   1.526   0.010  0.00  0.00    +0.004 C 
ATOM     24  C   UNL     1       0.002  -0.004   0.002  0.00  0.00    +0.006 C 
ENDBRANCH  22  24
BRANCH  22  25
ATOM     25  C   UNL     1      -2.135  -0.131  -1.286  0.00  0.00    +0.006 C 
ATOM     26  C   UNL     1      -3.605  -0.552  -1.222  0.00  0.00    +0.004 C 
ENDBRANCH  22  25
ENDBRANCH  10  22
ENDBRANCH   1  12
BRANCH   8  27
ATOM     27  C   UNL     1       0.719  -5.212  -5.935  0.00  0.00    +0.089 C 
BRANCH  27  28
ATOM     28  N   UNL     1       0.019  -4.483  -6.996  0.00  0.00    -0.310 N 
ATOM     29  C   UNL     1       0.678  -4.127  -8.116  0.00  0.00    +0.279 C 
ATOM     30  O   UNL     1       1.855  -4.411  -8.246  0.00  0.00    -0.267 OA
ATOM     31  H   UNL     1      -0.918  -4.257  -6.892  0.00  0.00    +0.149 HD
BRANCH  29  32
ATOM     32  C   UNL     1      -0.022  -3.398  -9.179  0.00  0.00    +0.189 A 
ATOM     33  C   UNL     1       0.522  -2.984 -10.361  0.00  0.00    +0.054 A 
ATOM     34  C   UNL     1      -0.500  -2.332 -11.069  0.00  0.00    +0.042 A 
ATOM     35  C   UNL     1      -1.609  -2.377 -10.298  0.00  0.00    +0.196 A 
ATOM     36  O   UNL     1      -1.318  -3.024  -9.162  0.00  0.00    -0.458 OA
ENDBRANCH  29  32
ENDBRANCH  27  28
ENDBRANCH   8  27
TORSDOF 8
