REMARK  Name = ZINC35807764
REMARK  11 active torsions:
REMARK  status: ('A' for Active; 'I' for Inactive)
REMARK    1  A    between atoms: C_1  and  C_2
REMARK    2  A    between atoms: C_2  and  C_3
REMARK    3  A    between atoms: C_2  and  N_4
REMARK    4  A    between atoms: N_4  and  C_5
REMARK    5  A    between atoms: C_5  and  C_6
REMARK    6  A    between atoms: C_11  and  C_14
REMARK    7  A    between atoms: C_14  and  C_15
REMARK    8  A    between atoms: N_17  and  C_18
REMARK    9  A    between atoms: C_18  and  C_19
REMARK   10  A    between atoms: C_18  and  C_25
REMARK   11  A    between atoms: C_31  and  C_33
REMARK                            x       y       z     vdW  Elec       q    Type
REMARK                         _______ _______ _______ _____ _____    ______ ____
ROOT
ATOM      1  C   UNL     1      -1.621  -2.959  -0.117  0.00  0.00    +0.236 C 
ATOM      2  O   UNL     1      -0.840  -3.081   0.803  0.00  0.00    -0.274 OA
ATOM      3  N   UNL     1      -2.091  -4.051  -0.751  0.00  0.00    -0.263 N 
ATOM      4  C   UNL     1      -1.681  -5.317  -0.351  0.00  0.00    +0.165 A 
ATOM      5  N   UNL     1      -2.027  -6.484  -0.851  0.00  0.00    -0.229 NA
ATOM      6  C   UNL     1      -1.545  -7.609  -0.354  0.00  0.00    +0.059 A 
ATOM      7  C   UNL     1      -0.684  -7.503   0.688  0.00  0.00    +0.072 A 
ATOM      8  S   UNL     1      -0.617  -5.730   0.885  0.00  0.00    -0.060 S 
ATOM      9  H   UNL     1      -2.716  -3.954  -1.487  0.00  0.00    +0.157 HD
ENDROOT
BRANCH   1  10
ATOM     10  C   UNL     1      -2.066  -1.586  -0.551  0.00  0.00    +0.204 C 
BRANCH  10  11
ATOM     11  N   UNL     1      -1.418  -0.575   0.288  0.00  0.00    -0.284 N 
ATOM     12  C   UNL     1      -1.958  -0.240   1.477  0.00  0.00    +0.283 C 
ATOM     13  O   UNL     1      -1.472   0.663   2.133  0.00  0.00    -0.267 OA
BRANCH  12  14
ATOM     14  C   UNL     1      -3.129  -0.965   1.981  0.00  0.00    +0.189 A 
ATOM     15  C   UNL     1      -3.835  -0.662   3.110  0.00  0.00    +0.054 A 
ATOM     16  C   UNL     1      -4.867  -1.609   3.206  0.00  0.00    +0.042 A 
ATOM     17  C   UNL     1      -4.746  -2.438   2.146  0.00  0.00    +0.196 A 
ATOM     18  O   UNL     1      -3.701  -2.043   1.407  0.00  0.00    -0.458 OA
ENDBRANCH  12  14
BRANCH  11  20
ATOM     19  C   UNL     1      -0.425   1.575  -0.324  0.00  0.00    +0.028 C 
ATOM     20  C   UNL     1      -0.184   0.072  -0.165  0.00  0.00    +0.071 C 
ATOM     21  C   UNL     1       0.922  -0.160   0.867  0.00  0.00    +0.028 C 
ENDBRANCH  11  20
ENDBRANCH  10  11
ENDBRANCH   1  10
BRANCH   6  22
ATOM     22  C   UNL     1      -1.936  -8.950  -0.919  0.00  0.00    +0.151 C 
BRANCH  22  23
ATOM     23  C   UNL     1      -3.437  -9.081  -0.911  0.00  0.00    +0.220 C 
ATOM     24  O   UNL     1      -4.122  -8.174  -0.487  0.00  0.00    -0.275 OA
ATOM     25  N   UNL     1      -4.018 -10.205  -1.374  0.00  0.00    -0.304 N 
ATOM     26  H   UNL     1      -3.470 -10.930  -1.712  0.00  0.00    +0.150 HD
BRANCH  25  27
ATOM     27  C   UNL     1      -5.477 -10.333  -1.365  0.00  0.00    +0.134 C 
BRANCH  27  28
ATOM     28  C   UNL     1      -6.044  -9.700  -2.610  0.00  0.00    -0.023 A 
ATOM     29  C   UNL     1      -5.403  -9.867  -3.824  0.00  0.00    +0.006 A 
ATOM     30  C   UNL     1      -5.923  -9.287  -4.965  0.00  0.00    +0.000 A 
ATOM     31  C   UNL     1      -7.083  -8.539  -4.894  0.00  0.00    +0.000 A 
ATOM     32  C   UNL     1      -7.725  -8.373  -3.681  0.00  0.00    +0.000 A 
ATOM     33  C   UNL     1      -7.207  -8.957  -2.540  0.00  0.00    +0.006 A 
ENDBRANCH  27  28
BRANCH  27  34
ATOM     34  C   UNL     1      -5.854 -11.791  -1.327  0.00  0.00    -0.023 A 
ATOM     35  C   UNL     1      -5.138 -12.710  -2.072  0.00  0.00    +0.006 A 
ATOM     36  C   UNL     1      -5.484 -14.048  -2.037  0.00  0.00    +0.000 A 
ATOM     37  C   UNL     1      -6.545 -14.467  -1.257  0.00  0.00    +0.000 A 
ATOM     38  C   UNL     1      -7.261 -13.549  -0.511  0.00  0.00    +0.000 A 
ATOM     39  C   UNL     1      -6.912 -12.211  -0.543  0.00  0.00    +0.006 A 
ENDBRANCH  27  34
ENDBRANCH  25  27
ENDBRANCH  22  23
ENDBRANCH   6  22
TORSDOF 9
