REMARK  Name = ZINC06443089
REMARK  12 active torsions:
REMARK  status: ('A' for Active; 'I' for Inactive)
REMARK    1  A    between atoms: C_1  and  C_2
REMARK    2  A    between atoms: C_6  and  N_9
REMARK    3  A    between atoms: C_7  and  C_8
REMARK    4  A    between atoms: C_14  and  C_16
REMARK    5  A    between atoms: C_14  and  C_30
REMARK    6  A    between atoms: C_14  and  N_74
REMARK    7  A    between atoms: C_20  and  C_29
REMARK    8  A    between atoms: C_22  and  C_28
REMARK    9  A    between atoms: N_34  and  C_35
REMARK   10  A    between atoms: C_35  and  C_36
REMARK   11  A    between atoms: C_35  and  C_37
REMARK   12  A    between atoms: C_35  and  C_38
REMARK                            x       y       z     vdW  Elec       q    Type
REMARK                         _______ _______ _______ _____ _____    ______ ____
ROOT
ATOM      1  C   UNL     1       1.183   3.725   0.046  0.00  0.00    +0.039 C 
ENDROOT
BRANCH   1   2
ATOM      2  C   UNL     1       1.398   2.243   0.213  0.00  0.00    +0.011 A 
ATOM      3  C   UNL     1       0.333   1.405   0.243  0.00  0.00    +0.017 A 
ATOM      4  C   UNL     1       0.575  -0.029   0.406  0.00  0.00    -0.001 A 
ATOM      5  C   UNL     1      -0.483  -0.943   0.444  0.00  0.00    +0.013 A 
ATOM      6  C   UNL     1      -0.223  -2.275   0.597  0.00  0.00    -0.050 A 
ATOM      7  C   UNL     1       1.083  -2.731   0.715  0.00  0.00    +0.008 A 
ATOM      8  C   UNL     1       2.141  -1.849   0.681  0.00  0.00    -0.026 A 
ATOM      9  C   UNL     1       1.901  -0.487   0.526  0.00  0.00    +0.052 A 
ATOM     10  N   UNL     1       2.941   0.417   0.487  0.00  0.00    -0.322 N 
ATOM     11  H   UNL     1       3.853   0.099   0.570  0.00  0.00    +0.169 HD
ATOM     12  C   UNL     1       2.708   1.732   0.337  0.00  0.00    +0.251 A 
ATOM     13  O   UNL     1       3.651   2.503   0.308  0.00  0.00    -0.268 OA
ATOM     14  C   UNL     1       3.554  -2.358   0.810  0.00  0.00    +0.046 C 
ATOM     15  C   UNL     1      -1.364  -3.259   0.638  0.00  0.00    +0.044 C 
ENDBRANCH   1   2
BRANCH   1  21
ATOM     16  N   UNL     1       1.920   6.130   3.440  0.00  0.00    -0.333 N 
ATOM     17  C   UNL     1       2.408   6.607   2.139  0.00  0.00    +0.086 C 
ATOM     18  C   UNL     1       1.647   5.894   1.019  0.00  0.00    -0.058 C 
ATOM     19  C   UNL     1       1.348   3.965   2.450  0.00  0.00    -0.058 C 
ATOM     20  C   UNL     1       2.109   4.679   3.570  0.00  0.00    +0.086 C 
ATOM     21  N   UNL     1       1.864   4.438   1.148  0.00  0.00    +0.391 N 
ATOM     22  H   UNL     1       2.871   4.245   1.098  0.00  0.00    -0.080 HD
BRANCH  16  28
ATOM     23  C   UNL     1       1.574   9.020   7.401  0.00  0.00    +0.044 C 
ATOM     24  C   UNL     1       2.398   8.221   6.424  0.00  0.00    -0.046 A 
ATOM     25  C   UNL     1       3.773   8.163   6.566  0.00  0.00    +0.004 A 
ATOM     26  C   UNL     1       4.533   7.432   5.672  0.00  0.00    +0.002 A 
ATOM     27  C   UNL     1       3.922   6.756   4.634  0.00  0.00    +0.023 A 
ATOM     28  C   UNL     1       2.542   6.812   4.489  0.00  0.00    +0.033 A 
ATOM     29  C   UNL     1       1.781   7.553   5.385  0.00  0.00    -0.027 A 
ATOM     30  C   UNL     1       0.284   7.622   5.228  0.00  0.00    +0.046 C 
ENDBRANCH  16  28
ENDBRANCH   1  21
BRANCH   1  31
ATOM     31  C   UNL     1       1.774   4.174  -1.265  0.00  0.00    +0.143 A 
ATOM     32  N   UNL     1       3.048   4.240  -1.568  0.00  0.00    -0.115 NA
ATOM     33  N   UNL     1       3.148   4.667  -2.779  0.00  0.00    -0.023 NA
ATOM     34  N   UNL     1       1.971   4.882  -3.255  0.00  0.00    -0.043 NA
ATOM     35  N   UNL     1       1.097   4.590  -2.352  0.00  0.00    -0.225 N 
BRANCH  35  36
ATOM     36  C   UNL     1      -0.358   4.692  -2.484  0.00  0.00    +0.059 C 
ATOM     37  C   UNL     1      -0.892   5.712  -1.477  0.00  0.00    +0.036 C 
ATOM     38  C   UNL     1      -0.711   5.143  -3.903  0.00  0.00    +0.036 C 
ATOM     39  C   UNL     1      -0.992   3.326  -2.211  0.00  0.00    +0.036 C 
ENDBRANCH  35  36
ENDBRANCH   1  31
TORSDOF 5
