REMARK  Name = ZINC67590033
REMARK  11 active torsions:
REMARK  status: ('A' for Active; 'I' for Inactive)
REMARK    1  A    between atoms: C_1  and  C_2
REMARK    2  A    between atoms: C_5  and  C_30
REMARK    3  A    between atoms: C_6  and  C_8
REMARK    4  A    between atoms: C_8  and  C_10
REMARK    5  A    between atoms: C_8  and  N_11
REMARK    6  A    between atoms: N_14  and  C_15
REMARK    7  A    between atoms: C_15  and  C_16
REMARK    8  A    between atoms: C_16  and  C_18
REMARK    9  A    between atoms: C_16  and  O_29
REMARK   10  A    between atoms: C_18  and  O_19
REMARK   11  A    between atoms: O_19  and  C_20
REMARK                            x       y       z     vdW  Elec       q    Type
REMARK                         _______ _______ _______ _____ _____    ______ ____
ROOT
ATOM      1  N   UNL     1      -0.535  -2.018   3.545  0.00  0.00    -0.293 N 
ATOM      2  C   UNL     1      -1.089  -2.601   4.627  0.00  0.00    +0.300 C 
ATOM      3  O   UNL     1      -1.099  -3.812   4.726  0.00  0.00    -0.253 OA
ATOM      4  N   UNL     1      -1.631  -1.840   5.599  0.00  0.00    -0.297 N 
ATOM      5  H   UNL     1      -0.527  -1.051   3.466  0.00  0.00    +0.151 HD
ATOM      6  H   UNL     1      -1.623  -0.874   5.519  0.00  0.00    +0.150 HD
ENDROOT
BRANCH   1   7
ATOM      7  C   UNL     1       0.054  -2.845   2.489  0.00  0.00    +0.102 C 
ATOM      8  C   UNL     1       1.497  -3.192   2.858  0.00  0.00    +0.033 C 
BRANCH   7  14
ATOM      9  C   UNL     1      -0.018   1.503   0.010  0.00  0.00    +0.044 C 
ATOM     10  C   UNL     1       0.002  -0.004   0.002  0.00  0.00    -0.050 A 
ATOM     11  C   UNL     1       0.006  -0.689  -1.199  0.00  0.00    +0.003 A 
ATOM     12  C   UNL     1       0.025  -2.071  -1.207  0.00  0.00    +0.004 A 
ATOM     13  C   UNL     1       0.040  -2.768  -0.013  0.00  0.00    -0.046 A 
ATOM     14  C   UNL     1       0.037  -2.084   1.188  0.00  0.00    -0.024 A 
ATOM     15  C   UNL     1       0.023  -0.702   1.195  0.00  0.00    +0.009 A 
ATOM     16  C   UNL     1       0.059  -4.275  -0.021  0.00  0.00    +0.044 C 
ENDBRANCH   7  14
ENDBRANCH   1   7
BRANCH   4  17
ATOM     17  C   UNL     1      -2.232  -2.474   6.774  0.00  0.00    +0.140 C 
BRANCH  17  18
ATOM     18  C   UNL     1      -2.770  -1.394   7.716  0.00  0.00    +0.169 C 
BRANCH  18  19
ATOM     19  O   UNL     1      -1.697  -0.545   8.129  0.00  0.00    -0.387 OA
ATOM     20  H   UNL     1      -0.988  -1.007   8.599  0.00  0.00    +0.210 HD
ENDBRANCH  18  19
BRANCH  18  21
ATOM     21  C   UNL     1      -3.398  -2.056   8.945  0.00  0.00    +0.261 C 
BRANCH  21  22
ATOM     22  O   UNL     1      -4.002  -1.056   9.768  0.00  0.00    -0.489 OA
BRANCH  22  23
ATOM     23  C   UNL     1      -4.610  -1.479  10.908  0.00  0.00    +0.124 A 
ATOM     24  C   UNL     1      -4.618  -2.829  11.229  0.00  0.00    +0.049 A 
ATOM     25  C   UNL     1      -5.235  -3.261  12.388  0.00  0.00    +0.053 A 
ATOM     26  C   UNL     1      -5.847  -2.349  13.231  0.00  0.00    +0.166 A 
ATOM     27  C   UNL     1      -5.840  -0.993  12.911  0.00  0.00    +0.170 A 
ATOM     28  C   UNL     1      -5.216  -0.561  11.752  0.00  0.00    +0.095 A 
ATOM     29  O   UNL     1      -6.501  -0.310  13.890  0.00  0.00    -0.452 OA
ATOM     30  C   UNL     1      -7.265  -1.301  14.603  0.00  0.00    +0.466 C 
ATOM     31  O   UNL     1      -6.513  -2.514  14.413  0.00  0.00    -0.453 OA
ENDBRANCH  22  23
ENDBRANCH  21  22
ENDBRANCH  18  21
ENDBRANCH  17  18
ENDBRANCH   4  17
TORSDOF 8
