REMARK  Name = ZINC60355018
REMARK  12 active torsions:
REMARK  status: ('A' for Active; 'I' for Inactive)
REMARK    1  A    between atoms: C_1  and  C_2
REMARK    2  A    between atoms: C_2  and  O_3
REMARK    3  A    between atoms: O_3  and  C_4
REMARK    4  A    between atoms: C_6  and  C_18
REMARK    5  A    between atoms: C_8  and  C_12
REMARK    6  A    between atoms: C_9  and  O_10
REMARK    7  A    between atoms: O_10  and  C_11
REMARK    8  A    between atoms: N_20  and  C_21
REMARK    9  A    between atoms: C_21  and  C_22
REMARK   10  A    between atoms: C_22  and  C_24
REMARK   11  A    between atoms: C_22  and  N_30
REMARK   12  A    between atoms: C_27  and  C_29
REMARK                            x       y       z     vdW  Elec       q    Type
REMARK                         _______ _______ _______ _____ _____    ______ ____
ROOT
ATOM      1  C   UNL     1       0.632  -4.939  -0.250  0.00  0.00    +0.244 C 
ATOM      2  O   UNL     1       0.494  -6.120  -0.503  0.00  0.00    -0.270 OA
ATOM      3  N   UNL     1       1.868  -4.422  -0.102  0.00  0.00    -0.312 N 
ATOM      4  H   UNL     1       1.978  -3.479   0.100  0.00  0.00    +0.149 HD
ENDROOT
BRANCH   1   7
ATOM      5  C   UNL     1      -1.503  -1.899   0.317  0.00  0.00    +0.163 A 
ATOM      6  C   UNL     1      -0.395  -2.713   0.183  0.00  0.00    +0.062 A 
ATOM      7  C   UNL     1      -0.553  -4.071  -0.107  0.00  0.00    +0.041 A 
ATOM      8  C   UNL     1      -1.832  -4.606  -0.262  0.00  0.00    +0.025 A 
ATOM      9  C   UNL     1      -2.946  -3.787  -0.127  0.00  0.00    +0.028 A 
ATOM     10  C   UNL     1      -2.782  -2.429   0.169  0.00  0.00    +0.169 A 
BRANCH   9  11
ATOM     11  C   UNL     1      -4.308  -4.352  -0.290  0.00  0.00    -0.014 A 
ATOM     12  C   UNL     1      -5.288  -4.104   0.669  0.00  0.00    +0.008 A 
ATOM     13  C   UNL     1      -6.553  -4.632   0.512  0.00  0.00    +0.001 A 
ATOM     14  C   UNL     1      -6.850  -5.406  -0.595  0.00  0.00    +0.000 A 
ATOM     15  C   UNL     1      -5.881  -5.655  -1.551  0.00  0.00    +0.001 A 
ATOM     16  C   UNL     1      -4.614  -5.127  -1.407  0.00  0.00    +0.008 A 
ENDBRANCH   9  11
BRANCH  10  17
ATOM     17  O   UNL     1      -3.869  -1.628   0.307  0.00  0.00    -0.491 OA
ATOM     18  C   UNL     1      -4.353  -0.983  -0.873  0.00  0.00    +0.277 C 
ENDBRANCH  10  17
BRANCH   5  19
ATOM     19  O   UNL     1      -1.345  -0.578   0.599  0.00  0.00    -0.489 OA
BRANCH  19  21
ATOM     20  C   UNL     1      -0.028   1.397   1.051  0.00  0.00    +0.048 C 
ATOM     21  C   UNL     1      -0.005  -0.100   0.737  0.00  0.00    +0.226 C 
ENDBRANCH  19  21
ENDBRANCH   5  19
ENDBRANCH   1   7
BRANCH   3  22
ATOM     22  C   UNL     1       3.045  -5.283  -0.244  0.00  0.00    +0.097 C 
BRANCH  22  23
ATOM     23  C   UNL     1       4.313  -4.432  -0.162  0.00  0.00    +0.016 C 
BRANCH  23  24
ATOM     24  C   UNL     1       4.369  -3.499  -1.344  0.00  0.00    +0.093 A 
ATOM     25  C   UNL     1       4.032  -2.197  -1.336  0.00  0.00    +0.043 A 
ATOM     26  C   UNL     1       4.237  -1.713  -2.648  0.00  0.00    +0.044 A 
ATOM     27  C   UNL     1       4.686  -2.748  -3.380  0.00  0.00    +0.102 A 
ATOM     28  O   UNL     1       4.770  -3.826  -2.584  0.00  0.00    -0.466 OA
ATOM     29  C   UNL     1       5.041  -2.704  -4.844  0.00  0.00    +0.086 C 
ENDBRANCH  23  24
BRANCH  23  30
ATOM     30  N   UNL     1       5.492  -5.307  -0.172  0.00  0.00    +0.387 N 
ATOM     31  C   UNL     1       6.734  -4.496  -0.086  0.00  0.00    -0.078 C 
ATOM     32  C   UNL     1       7.780  -5.505   0.451  0.00  0.00    -0.020 C 
ATOM     33  C   UNL     1       6.963  -6.348   1.456  0.00  0.00    -0.020 C 
ATOM     34  C   UNL     1       5.494  -6.175   1.026  0.00  0.00    -0.078 C 
ATOM     35  H   UNL     1       5.501  -5.871  -1.009  0.00  0.00    -0.081 HD
ENDBRANCH  23  30
ENDBRANCH  22  23
ENDBRANCH   3  22
TORSDOF 9
