REMARK  Name = ZINC62777466
REMARK  5 active torsions:
REMARK  status: ('A' for Active; 'I' for Inactive)
REMARK    1  A    between atoms: C_1  and  C_2
REMARK    2  A    between atoms: C_2  and  C_3
REMARK    3  A    between atoms: C_4  and  C_12
REMARK    4  A    between atoms: C_12  and  C_14
REMARK    5  A    between atoms: C_12  and  N_20
REMARK                            x       y       z     vdW  Elec       q    Type
REMARK                         _______ _______ _______ _____ _____    ______ ____
ROOT
ATOM      1  C   UNL     1       0.707  -0.490  -1.238  0.00  0.00    +0.108 A 
ATOM      2  C   UNL     1       2.022  -0.733  -1.327  0.00  0.00    -0.007 A 
ATOM      3  C   UNL     1       2.263  -1.183  -2.703  0.00  0.00    +0.022 A 
ATOM      4  C   UNL     1       3.393  -1.581  -3.415  0.00  0.00    +0.012 A 
ATOM      5  C   UNL     1       3.273  -1.953  -4.726  0.00  0.00    +0.001 A 
ATOM      6  C   UNL     1       2.034  -1.936  -5.350  0.00  0.00    +0.004 A 
ATOM      7  C   UNL     1       0.905  -1.545  -4.662  0.00  0.00    +0.047 A 
ATOM      8  C   UNL     1       1.005  -1.164  -3.329  0.00  0.00    +0.135 A 
ATOM      9  O   UNL     1       0.108  -0.749  -2.413  0.00  0.00    -0.459 OA
ENDROOT
BRANCH   1  11
ATOM     10  C   UNL     1      -0.019   1.526   0.010  0.00  0.00    +0.012 C 
ATOM     11  C   UNL     1       0.002  -0.004   0.002  0.00  0.00    +0.071 C 
ENDBRANCH   1  11
BRANCH   2  12
ATOM     12  C   UNL     1       3.048  -0.574  -0.234  0.00  0.00    +0.011 C 
BRANCH  12  13
ATOM     13  C   UNL     1       3.866   0.665  -0.490  0.00  0.00    +0.053 A 
ATOM     14  C   UNL     1       4.056   1.722   0.407  0.00  0.00    +0.042 A 
ATOM     15  C   UNL     1       4.850   2.639  -0.192  0.00  0.00    +0.105 A 
ATOM     16  N   UNL     1       5.151   2.180  -1.425  0.00  0.00    -0.285 N 
ATOM     17  N   UNL     1       4.527   0.936  -1.586  0.00  0.00    -0.180 NA
ATOM     18  H   UNL     1       5.706   2.630  -2.082  0.00  0.00    +0.188 HD
ENDBRANCH  12  13
BRANCH  12  19
ATOM     19  N   UNL     1       3.930  -1.748  -0.217  0.00  0.00    +0.386 N 
ATOM     20  H   UNL     1       3.382  -2.578  -0.046  0.00  0.00    -0.089 HD
ATOM     21  H   UNL     1       4.398  -1.831  -1.108  0.00  0.00    -0.089 HD
ATOM     22  H   UNL     1       4.617  -1.642   0.514  0.00  0.00    -0.089 HD
ENDBRANCH  12  19
ENDBRANCH   2  12
TORSDOF 4
