REMARK  Name = ZINC16606604
REMARK  8 active torsions:
REMARK  status: ('A' for Active; 'I' for Inactive)
REMARK    1  A    between atoms: C_1  and  C_2
REMARK    2  A    between atoms: C_2  and  C_3
REMARK    3  A    between atoms: C_3  and  C_5
REMARK    4  A    between atoms: C_3  and  C_6
REMARK    5  A    between atoms: C_6  and  C_8
REMARK    6  A    between atoms: C_6  and  N_23
REMARK    7  A    between atoms: C_14  and  C_16
REMARK    8  A    between atoms: C_24  and  C_26
REMARK                            x       y       z     vdW  Elec       q    Type
REMARK                         _______ _______ _______ _____ _____    ______ ____
ROOT
ATOM      1  C   UNL     1       7.722  -1.682   3.766  0.00  0.00    +0.162 C 
ENDROOT
BRANCH   1   2
ATOM      2  C   UNL     1       8.263  -3.088   3.725  0.00  0.00    +0.239 C 
ATOM      3  O   UNL     1       7.824  -3.884   2.922  0.00  0.00    -0.273 OA
ATOM      4  N   UNL     1       9.235  -3.461   4.582  0.00  0.00    -0.262 N 
ATOM      5  C   UNL     1       9.808  -4.722   4.476  0.00  0.00    +0.188 A 
ATOM      6  N   UNL     1       9.552  -5.706   3.624  0.00  0.00    -0.125 NA
ATOM      7  N   UNL     1      10.176  -6.801   3.662  0.00  0.00    -0.140 NA
ATOM      8  C   UNL     1      11.119  -7.039   4.566  0.00  0.00    +0.134 A 
ATOM      9  S   UNL     1      11.098  -5.485   5.455  0.00  0.00    -0.030 S 
ATOM     10  H   UNL     1       9.534  -2.848   5.272  0.00  0.00    +0.157 HD
BRANCH   8  11
ATOM     11  C   UNL     1      11.949  -8.244   4.778  0.00  0.00    +0.009 A 
ATOM     12  C   UNL     1      12.897  -8.270   5.802  0.00  0.00    +0.013 A 
ATOM     13  C   UNL     1      13.665  -9.399   5.999  0.00  0.00    +0.039 A 
ATOM     14  C   UNL     1      13.504 -10.501   5.175  0.00  0.00    +0.123 A 
ATOM     15  C   UNL     1      12.569 -10.479   4.153  0.00  0.00    +0.039 A 
ATOM     16  C   UNL     1      11.792  -9.357   3.951  0.00  0.00    +0.013 A 
ATOM     17  F   UNL     1      14.263 -11.602   5.369  0.00  0.00    -0.205 F 
ENDBRANCH   8  11
ENDBRANCH   1   2
BRANCH   1  18
ATOM     18  N   UNL     1       6.693  -1.526   2.735  0.00  0.00    -0.300 N 
ATOM     19  C   UNL     1       6.597  -0.370   2.048  0.00  0.00    +0.245 C 
ATOM     20  O   UNL     1       7.308   0.572   2.341  0.00  0.00    -0.270 OA
ATOM     21  H   UNL     1       6.080  -2.254   2.547  0.00  0.00    +0.150 HD
BRANCH  19  22
ATOM     22  C   UNL     1       5.629  -0.248   0.940  0.00  0.00    +0.040 A 
ATOM     23  C   UNL     1       4.812  -1.329   0.602  0.00  0.00    +0.017 A 
ATOM     24  C   UNL     1       3.909  -1.213  -0.433  0.00  0.00    +0.050 A 
ATOM     25  C   UNL     1       3.809  -0.024  -1.142  0.00  0.00    +0.166 A 
ATOM     26  C   UNL     1       4.622   1.060  -0.809  0.00  0.00    +0.167 A 
ATOM     27  C   UNL     1       5.529   0.950   0.227  0.00  0.00    +0.062 A 
ATOM     28  O   UNL     1       4.331   2.097  -1.648  0.00  0.00    -0.453 OA
ATOM     29  C   UNL     1       3.052   1.775  -2.226  0.00  0.00    +0.466 C 
ATOM     30  O   UNL     1       3.011   0.337  -2.188  0.00  0.00    -0.453 OA
ENDBRANCH  19  22
ENDBRANCH   1  18
BRANCH   1  31
ATOM     31  C   UNL     1       7.111  -1.410   5.142  0.00  0.00    +0.015 C 
ATOM     32  C   UNL     1       6.702   0.061   5.236  0.00  0.00    +0.010 C 
BRANCH  31  34
ATOM     33  C   UNL     1       6.314  -3.758   5.446  0.00  0.00    +0.004 C 
ATOM     34  C   UNL     1       5.879  -2.296   5.337  0.00  0.00    +0.002 C 
ENDBRANCH  31  34
ENDBRANCH   1  31
TORSDOF 6
