REMARK  Name = ZINC14273206
REMARK  6 active torsions:
REMARK  status: ('A' for Active; 'I' for Inactive)
REMARK    1  A    between atoms: C_1  and  C_2
REMARK    2  A    between atoms: C_2  and  C_4
REMARK    3  A    between atoms: C_2  and  N_14
REMARK    4  A    between atoms: C_15  and  C_17
REMARK    5  A    between atoms: C_18  and  C_19
REMARK    6  A    between atoms: C_22  and  C_24
REMARK                            x       y       z     vdW  Elec       q    Type
REMARK                         _______ _______ _______ _____ _____    ______ ____
ROOT
ATOM      1  N   UNL     1       4.964  -3.511  -0.065  0.00  0.00    -0.309 N 
ATOM      2  C   UNL     1       3.636  -3.277  -0.051  0.00  0.00    +0.237 C 
ATOM      3  O   UNL     1       2.854  -4.210  -0.049  0.00  0.00    -0.271 OA
ATOM      4  H   UNL     1       5.587  -2.768  -0.067  0.00  0.00    +0.149 HD
ENDROOT
BRANCH   1   6
ATOM      5  C   UNL     1       5.535  -5.418   1.356  0.00  0.00    +0.028 C 
ATOM      6  C   UNL     1       5.465  -4.887  -0.077  0.00  0.00    +0.076 C 
BRANCH   6   7
ATOM      7  C   UNL     1       6.862  -4.915  -0.701  0.00  0.00    -0.010 C 
ATOM      8  C   UNL     1       7.806  -4.037   0.123  0.00  0.00    +0.012 C 
ATOM      9  C   UNL     1       9.203  -4.065  -0.500  0.00  0.00    -0.010 C 
ATOM     10  C   UNL     1       9.726  -5.502  -0.513  0.00  0.00    +0.007 C 
ATOM     11  C   UNL     1       8.783  -6.381  -1.337  0.00  0.00    -0.010 C 
ATOM     12  C   UNL     1       7.386  -6.353  -0.714  0.00  0.00    +0.012 C 
ATOM     13  C   UNL     1       8.713  -5.851  -2.770  0.00  0.00    +0.007 C 
ATOM     14  C   UNL     1       8.189  -4.413  -2.757  0.00  0.00    -0.010 C 
ATOM     15  C   UNL     1       9.133  -3.534  -1.933  0.00  0.00    +0.007 C 
ATOM     16  C   UNL     1       6.792  -4.385  -2.134  0.00  0.00    +0.012 C 
ENDBRANCH   6   7
ENDBRANCH   1   6
BRANCH   2  17
ATOM     17  C   UNL     1       3.152  -1.948  -0.039  0.00  0.00    +0.071 C 
ATOM     18  C   UNL     1       1.815  -1.713  -0.025  0.00  0.00    +0.051 C 
BRANCH  18  19
ATOM     19  C   UNL     1       1.331  -0.384  -0.013  0.00  0.00    +0.129 A 
ATOM     20  C   UNL     1       0.002  -0.004   0.002  0.00  0.00    +0.050 A 
ATOM     21  C   UNL     1      -0.017   1.393   0.010  0.00  0.00    +0.050 A 
ATOM     22  C   UNL     1       1.283   1.813  -0.001  0.00  0.00    +0.136 A 
ATOM     23  O   UNL     1       2.086   0.735  -0.014  0.00  0.00    -0.455 OA
BRANCH  22  24
ATOM     24  C   UNL     1       1.732   3.220   0.002  0.00  0.00    +0.020 A 
ATOM     25  C   UNL     1       0.795   4.255   0.010  0.00  0.00    +0.031 A 
ATOM     26  C   UNL     1       1.222   5.568   0.017  0.00  0.00    +0.043 A 
ATOM     27  C   UNL     1       2.576   5.859   0.006  0.00  0.00    +0.040 A 
ATOM     28  C   UNL     1       3.510   4.837  -0.007  0.00  0.00    +0.043 A 
ATOM     29  C   UNL     1       3.096   3.520  -0.009  0.00  0.00    +0.031 A 
ATOM     30 CL   UNL     1       5.205   5.213  -0.021  0.00  0.00    -0.083 Cl
ATOM     31 CL   UNL     1       0.059   6.857   0.033  0.00  0.00    -0.083 Cl
ENDBRANCH  22  24
ENDBRANCH  18  19
ENDBRANCH   2  17
TORSDOF 5
