REMARK  Name = ZINC35662443
REMARK  5 active torsions:
REMARK  status: ('A' for Active; 'I' for Inactive)
REMARK    1  A    between atoms: C_1  and  C_2
REMARK    2  A    between atoms: C_2  and  C_4
REMARK    3  A    between atoms: C_2  and  O_10
REMARK    4  A    between atoms: O_10  and  C_11
REMARK    5  A    between atoms: C_12  and  C_19
REMARK                            x       y       z     vdW  Elec       q    Type
REMARK                         _______ _______ _______ _____ _____    ______ ____
ROOT
ATOM      1  O   UNL     1       0.371  -0.431   0.912  0.00  0.00    -0.478 OA
ENDROOT
BRANCH   1   2
ATOM      2  C   UNL     1      -0.080  -0.773   2.144  0.00  0.00    +0.154 A 
ATOM      3  C   UNL     1      -0.244  -2.124   2.485  0.00  0.00    +0.108 A 
ATOM      4  C   UNL     1      -0.709  -2.464   3.760  0.00  0.00    +0.039 A 
ATOM      5  C   UNL     1      -1.003  -1.472   4.671  0.00  0.00    +0.043 A 
ATOM      6  C   UNL     1      -0.840  -0.138   4.330  0.00  0.00    +0.043 A 
ATOM      7  C   UNL     1      -0.376   0.212   3.077  0.00  0.00    +0.085 A 
ATOM      8 CL   UNL     1      -0.169   1.885   2.665  0.00  0.00    -0.080 Cl
ATOM      9 CL   UNL     1      -1.580  -1.895   6.253  0.00  0.00    -0.083 Cl
BRANCH   3  10
ATOM     10  C   UNL     1       0.071  -3.178   1.507  0.00  0.00    +0.390 C 
ATOM     11  O   UNL     1      -0.177  -4.347   1.766  0.00  0.00    -0.240 OA
ATOM     12  O   UNL     1       0.582  -2.884   0.435  0.00  0.00    -0.240 OA
ENDBRANCH   3  10
ENDBRANCH   1   2
BRANCH   1  14
ATOM     13  C   UNL     1      -1.263   1.027  -0.112  0.00  0.00    +0.062 C 
ATOM     14  C   UNL     1      -0.599  -0.351  -0.135  0.00  0.00    +0.256 C 
BRANCH  14  15
ATOM     15  C   UNL     1       0.078  -0.560  -1.464  0.00  0.00    +0.261 C 
ATOM     16  O   UNL     1       1.285  -0.668  -1.520  0.00  0.00    -0.271 OA
ATOM     17  N   UNL     1      -0.657  -0.628  -2.592  0.00  0.00    -0.237 N 
ATOM     18  C   UNL     1      -0.051  -0.816  -3.781  0.00  0.00    +0.303 C 
ATOM     19  O   UNL     1       1.159  -0.923  -3.837  0.00  0.00    -0.253 OA
ATOM     20  N   UNL     1      -0.786  -0.883  -4.909  0.00  0.00    -0.313 N 
ATOM     21  H   UNL     1      -1.622  -0.543  -2.548  0.00  0.00    +0.159 HD
ATOM     22  H   UNL     1      -1.751  -0.798  -4.864  0.00  0.00    +0.146 HD
ATOM     23  H   UNL     1      -0.350  -1.018  -5.765  0.00  0.00    +0.146 HD
ENDBRANCH  14  15
ENDBRANCH   1  14
TORSDOF 4
