REMARK  Name = ZINC36208015
REMARK  14 active torsions:
REMARK  status: ('A' for Active; 'I' for Inactive)
REMARK    1  A    between atoms: C_1  and  C_2
REMARK    2  A    between atoms: C_15  and  C_17
REMARK    3  A    between atoms: C_17  and  N_18
REMARK    4  A    between atoms: N_18  and  C_19
REMARK    5  A    between atoms: N_18  and  C_23
REMARK    6  A    between atoms: C_19  and  C_20
REMARK    7  A    between atoms: C_20  and  O_21
REMARK    8  A    between atoms: O_21  and  C_22
REMARK    9  A    between atoms: C_23  and  C_24
REMARK   10  A    between atoms: C_24  and  C_26
REMARK   11  A    between atoms: C_24  and  O_34
REMARK   12  A    between atoms: C_26  and  O_27
REMARK   13  A    between atoms: O_27  and  C_28
REMARK   14  A    between atoms: C_28  and  C_29
REMARK                            x       y       z     vdW  Elec       q    Type
REMARK                         _______ _______ _______ _____ _____    ______ ____
ROOT
ATOM      1  N   UNL     1       2.887  -8.314   2.518  0.00  0.00    +0.388 N 
ATOM      2  H   UNL     1       3.673  -7.945   3.031  0.00  0.00    -0.081 HD
ENDROOT
BRANCH   1   3
ATOM      3  C   UNL     1       2.797  -7.646   1.213  0.00  0.00    -0.003 C 
BRANCH   3  17
ATOM      4  C   UNL     1       2.672   2.050   3.473  0.00  0.00    +0.008 C 
ATOM      5  C   UNL     1       2.373   0.636   2.972  0.00  0.00    -0.009 C 
ATOM      6  C   UNL     1       3.140   0.379   1.671  0.00  0.00    +0.008 C 
ATOM      7  C   UNL     1       2.660  -0.926   1.035  0.00  0.00    +0.037 C 
ATOM      8  C   UNL     1       2.742  -2.041   2.073  0.00  0.00    -0.023 A 
ATOM      9  C   UNL     1       2.815  -1.748   3.393  0.00  0.00    -0.004 A 
ATOM     10  S   UNL     1       2.892  -3.320   4.214  0.00  0.00    -0.073 S 
ATOM     11  C   UNL     1       2.827  -4.363   2.792  0.00  0.00    +0.116 A 
ATOM     12  C   UNL     1       2.747  -3.449   1.718  0.00  0.00    +0.075 A 
ATOM     13  C   UNL     1       2.680  -4.002   0.395  0.00  0.00    +0.260 A 
ATOM     14  O   UNL     1       2.607  -3.300  -0.599  0.00  0.00    -0.267 OA
ATOM     15  N   UNL     1       2.701  -5.354   0.322  0.00  0.00    -0.312 N 
ATOM     16  H   UNL     1       2.658  -5.771  -0.553  0.00  0.00    +0.170 HD
ATOM     17  C   UNL     1       2.781  -6.152   1.414  0.00  0.00    +0.094 A 
ATOM     18  N   UNL     1       2.843  -5.684   2.641  0.00  0.00    -0.229 NA
ATOM     19  C   UNL     1       2.823  -0.389   4.022  0.00  0.00    +0.046 C 
ENDBRANCH   3  17
ENDBRANCH   1   3
BRANCH   1  20
ATOM     20  C   UNL     1       1.651  -8.076   3.276  0.00  0.00    -0.050 C 
BRANCH  20  21
ATOM     21  C   UNL     1       1.792  -8.669   4.679  0.00  0.00    +0.141 C 
BRANCH  21  22
ATOM     22  O   UNL     1       2.827  -7.982   5.385  0.00  0.00    -0.385 OA
ATOM     23  C   UNL     1       3.041  -8.461   6.714  0.00  0.00    +0.193 C 
ENDBRANCH  21  22
ENDBRANCH  20  21
ENDBRANCH   1  20
BRANCH   1  24
ATOM     24  C   UNL     1       3.067  -9.758   2.317  0.00  0.00    -0.044 C 
BRANCH  24  25
ATOM     25  C   UNL     1       4.447 -10.020   1.708  0.00  0.00    +0.124 C 
BRANCH  25  26
ATOM     26  O   UNL     1       4.463  -9.569   0.352  0.00  0.00    -0.391 OA
ATOM     27  H   UNL     1       3.813 -10.006  -0.215  0.00  0.00    +0.210 HD
ENDBRANCH  25  26
BRANCH  25  28
ATOM     28  C   UNL     1       4.747 -11.520   1.750  0.00  0.00    +0.189 C 
BRANCH  28  29
ATOM     29  O   UNL     1       6.080 -11.752   1.290  0.00  0.00    -0.370 OA
BRANCH  29  30
ATOM     30  C   UNL     1       6.463 -13.129   1.290  0.00  0.00    +0.234 C 
BRANCH  30  31
ATOM     31  C   UNL     1       7.878 -13.256   0.789  0.00  0.00    +0.130 A 
ATOM     32  C   UNL     1       8.987 -13.225   1.550  0.00  0.00    +0.047 A 
ATOM     33  C   UNL     1      10.088 -13.379   0.675  0.00  0.00    +0.041 A 
ATOM     34  C   UNL     1       9.585 -13.495  -0.567  0.00  0.00    +0.195 A 
ATOM     35  O   UNL     1       8.246 -13.425  -0.491  0.00  0.00    -0.465 OA
ENDBRANCH  30  31
ENDBRANCH  29  30
ENDBRANCH  28  29
ENDBRANCH  25  28
ENDBRANCH  24  25
ENDBRANCH   1  24
TORSDOF 12
