REMARK  Name = ZINC25015921
REMARK  11 active torsions:
REMARK  status: ('A' for Active; 'I' for Inactive)
REMARK    1  A    between atoms: C_1  and  C_2
REMARK    2  A    between atoms: C_2  and  C_4
REMARK    3  A    between atoms: C_2  and  N_14
REMARK    4  A    between atoms: C_7  and  C_10
REMARK    5  A    between atoms: C_10  and  C_11
REMARK    6  A    between atoms: C_11  and  C_12
REMARK    7  A    between atoms: C_11  and  C_13
REMARK    8  A    between atoms: C_15  and  C_17
REMARK    9  A    between atoms: C_17  and  N_18
REMARK   10  A    between atoms: C_21  and  C_25
REMARK   11  A    between atoms: C_21  and  C_26
REMARK                            x       y       z     vdW  Elec       q    Type
REMARK                         _______ _______ _______ _____ _____    ______ ____
ROOT
ATOM      1  N   UNL     1      -0.150  -1.201   4.706  0.00  0.00    -0.215 N 
ATOM      2  C   UNL     1      -0.377  -0.185   5.562  0.00  0.00    +0.251 C 
ATOM      3  O   UNL     1       0.131   0.916   5.543  0.00  0.00    -0.272 OA
ATOM      4  C   UNL     1      -1.399  -0.705   6.553  0.00  0.00    +0.135 C 
ATOM      5  N   UNL     1      -1.654  -2.082   6.098  0.00  0.00    -0.281 N 
ATOM      6  C   UNL     1      -0.883  -2.277   5.013  0.00  0.00    +0.310 C 
ATOM      7  O   UNL     1      -0.854  -3.316   4.383  0.00  0.00    -0.252 OA
ATOM      8  C   UNL     1      -0.824  -0.704   7.971  0.00  0.00    +0.047 C 
ATOM      9  H   UNL     1      -2.261  -2.723   6.500  0.00  0.00    +0.152 HD
ENDROOT
BRANCH   4  10
ATOM     10  C   UNL     1      -2.662   0.116   6.492  0.00  0.00    -0.012 A 
ATOM     11  C   UNL     1      -2.599   1.450   6.136  0.00  0.00    +0.010 A 
ATOM     12  C   UNL     1      -3.754   2.210   6.078  0.00  0.00    +0.050 A 
ATOM     13  C   UNL     1      -4.975   1.627   6.376  0.00  0.00    +0.162 A 
ATOM     14  C   UNL     1      -5.037   0.288   6.732  0.00  0.00    +0.162 A 
ATOM     15  C   UNL     1      -3.880  -0.470   6.786  0.00  0.00    +0.055 A 
ATOM     16  O   UNL     1      -6.245  -0.277   7.023  0.00  0.00    -0.488 OA
ATOM     17  C   UNL     1      -6.876   0.180   8.222  0.00  0.00    +0.232 C 
ATOM     18  C   UNL     1      -7.660   1.457   7.965  0.00  0.00    +0.082 C 
ATOM     19  C   UNL     1      -6.762   2.619   7.572  0.00  0.00    +0.232 C 
ATOM     20  O   UNL     1      -6.122   2.365   6.320  0.00  0.00    -0.488 OA
ENDBRANCH   4  10
BRANCH   1  21
ATOM     21  C   UNL     1       0.780  -1.133   3.576  0.00  0.00    +0.213 C 
BRANCH  21  23
ATOM     22  N   UNL     1       0.711  -0.489   1.189  0.00  0.00    -0.307 N 
ATOM     23  C   UNL     1       0.051  -0.633   2.355  0.00  0.00    +0.231 C 
ATOM     24  O   UNL     1      -1.129  -0.361   2.423  0.00  0.00    -0.274 OA
ATOM     25  H   UNL     1       1.654  -0.707   1.135  0.00  0.00    +0.149 HD
BRANCH  22  27
ATOM     26  C   UNL     1      -0.019   1.526   0.010  0.00  0.00    +0.033 C 
ATOM     27  C   UNL     1       0.002  -0.004   0.002  0.00  0.00    +0.100 C 
BRANCH  27  28
ATOM     28  C   UNL     1       0.707  -0.490  -1.238  0.00  0.00    -0.027 A 
ATOM     29  C   UNL     1       2.089  -0.511  -1.284  0.00  0.00    +0.006 A 
ATOM     30  C   UNL     1       2.736  -0.957  -2.421  0.00  0.00    +0.004 A 
ATOM     31  C   UNL     1       2.002  -1.382  -3.512  0.00  0.00    -0.047 A 
ATOM     32  C   UNL     1       0.620  -1.362  -3.466  0.00  0.00    +0.004 A 
ATOM     33  C   UNL     1      -0.027  -0.920  -2.327  0.00  0.00    +0.006 A 
BRANCH  31  34
ATOM     34  C   UNL     1       2.707  -1.867  -4.753  0.00  0.00    +0.038 C 
BRANCH  34  35
ATOM     35  C   UNL     1       2.944  -3.375  -4.647  0.00  0.00    -0.013 C 
ATOM     36  C   UNL     1       1.599  -4.104  -4.636  0.00  0.00    +0.007 C 
ATOM     37  C   UNL     1       3.769  -3.846  -5.847  0.00  0.00    +0.007 C 
ENDBRANCH  34  35
ENDBRANCH  31  34
ENDBRANCH  27  28
ENDBRANCH  22  27
ENDBRANCH  21  23
ENDBRANCH   1  21
TORSDOF 7
