REMARK  Name = ZINC01749706
REMARK  13 active torsions:
REMARK  status: ('A' for Active; 'I' for Inactive)
REMARK    1  A    between atoms: C_1  and  C_2
REMARK    2  A    between atoms: C_2  and  C_3
REMARK    3  A    between atoms: C_2  and  C_4
REMARK    4  A    between atoms: C_2  and  C_5
REMARK    5  A    between atoms: C_8  and  C_11
REMARK    6  A    between atoms: C_14  and  S_24
REMARK    7  A    between atoms: N_15  and  C_16
REMARK    8  A    between atoms: C_19  and  O_22
REMARK    9  A    between atoms: O_22  and  C_23
REMARK   10  A    between atoms: S_24  and  C_25
REMARK   11  A    between atoms: C_25  and  C_26
REMARK   12  A    between atoms: N_28  and  N_29
REMARK   13  A    between atoms: C_30  and  C_31
REMARK                            x       y       z     vdW  Elec       q    Type
REMARK                         _______ _______ _______ _____ _____    ______ ____
ROOT
ATOM      1  C   UNL     1       2.047   0.585  -0.041  0.00  0.00    +0.169 A 
ATOM      2  N   UNL     1       1.214  -0.430  -0.030  0.00  0.00    -0.128 NA
ATOM      3  N   UNL     1       0.002  -0.004  -0.015  0.00  0.00    -0.122 NA
ATOM      4  C   UNL     1      -0.016   1.310  -0.016  0.00  0.00    +0.197 A 
ATOM      5  N   UNL     1       1.285   1.733  -0.033  0.00  0.00    -0.270 N 
ENDROOT
BRANCH   1   9
ATOM      6  C   UNL     1       6.289   0.372  -0.092  0.00  0.00    -0.042 A 
ATOM      7  C   UNL     1       5.539  -0.752  -0.393  0.00  0.00    +0.005 A 
ATOM      8  C   UNL     1       4.161  -0.689  -0.378  0.00  0.00    +0.012 A 
ATOM      9  C   UNL     1       3.523   0.511  -0.059  0.00  0.00    +0.020 A 
ATOM     10  C   UNL     1       4.285   1.642   0.238  0.00  0.00    +0.012 A 
ATOM     11  C   UNL     1       5.663   1.564   0.225  0.00  0.00    +0.005 A 
BRANCH   6  13
ATOM     12  C   UNL     1       8.267  -0.103  -1.510  0.00  0.00    +0.015 C 
ATOM     13  C   UNL     1       7.793   0.296  -0.111  0.00  0.00    -0.013 C 
ATOM     14  C   UNL     1       8.377   1.662   0.255  0.00  0.00    +0.015 C 
ATOM     15  C   UNL     1       8.264  -0.748   0.904  0.00  0.00    +0.015 C 
ENDBRANCH   6  13
ENDBRANCH   1   9
BRANCH   5  16
ATOM     16  C   UNL     1       1.746   3.058  -0.040  0.00  0.00    +0.051 A 
ATOM     17  C   UNL     1       2.446   3.544  -1.136  0.00  0.00    +0.030 A 
ATOM     18  C   UNL     1       2.894   4.849  -1.145  0.00  0.00    +0.047 A 
ATOM     19  C   UNL     1       2.657   5.673  -0.054  0.00  0.00    +0.120 A 
ATOM     20  C   UNL     1       1.964   5.186   1.044  0.00  0.00    +0.047 A 
ATOM     21  C   UNL     1       1.509   3.882   1.052  0.00  0.00    +0.030 A 
BRANCH  19  22
ATOM     22  O   UNL     1       3.104   6.956  -0.061  0.00  0.00    -0.495 OA
ATOM     23  C   UNL     1       3.810   7.391  -1.225  0.00  0.00    +0.277 C 
ENDBRANCH  19  22
ENDBRANCH   5  16
BRANCH   4  24
ATOM     24  S   UNL     1      -1.448   2.337  -0.005  0.00  0.00    -0.076 S 
BRANCH  24  25
ATOM     25  C   UNL     1      -2.742   1.071   0.007  0.00  0.00    +0.174 C 
BRANCH  25  26
ATOM     26  C   UNL     1      -4.095   1.734   0.017  0.00  0.00    +0.242 C 
ATOM     27  O   UNL     1      -4.176   2.945   0.017  0.00  0.00    -0.273 OA
ATOM     28  N   UNL     1      -5.214   0.984   0.027  0.00  0.00    -0.206 N 
ATOM     29  H   UNL     1      -5.149   0.016   0.028  0.00  0.00    +0.177 HD
BRANCH  28  30
ATOM     30  N   UNL     1      -6.471   1.601   0.037  0.00  0.00    -0.188 NA
ATOM     31  C   UNL     1      -7.550   0.877   0.046  0.00  0.00    +0.139 C 
BRANCH  31  32
ATOM     32  C   UNL     1      -8.871   1.525   0.057  0.00  0.00    +0.002 A 
ATOM     33  C   UNL     1     -10.033   0.770  -0.045  0.00  0.00    +0.010 A 
ATOM     34  C   UNL     1     -11.277   1.385  -0.035  0.00  0.00    +0.001 A 
ATOM     35  C   UNL     1     -11.411   2.735   0.073  0.00  0.00    +0.008 A 
ATOM     36  C   UNL     1     -10.279   3.561   0.180  0.00  0.00    -0.017 A 
ATOM     37  C   UNL     1      -8.989   2.977   0.180  0.00  0.00    -0.009 A 
ATOM     38  C   UNL     1      -7.858   3.797   0.281  0.00  0.00    +0.009 A 
ATOM     39  C   UNL     1      -8.013   5.147   0.388  0.00  0.00    +0.001 A 
ATOM     40  C   UNL     1      -9.281   5.724   0.393  0.00  0.00    +0.001 A 
ATOM     41  C   UNL     1     -10.401   4.957   0.292  0.00  0.00    +0.008 A 
ENDBRANCH  31  32
ENDBRANCH  28  30
ENDBRANCH  25  26
ENDBRANCH  24  25
ENDBRANCH   4  24
TORSDOF 9
