REMARK  Name = ZINC04357293
REMARK  11 active torsions:
REMARK  status: ('A' for Active; 'I' for Inactive)
REMARK    1  A    between atoms: C_1  and  O_2
REMARK    2  A    between atoms: O_2  and  C_3
REMARK    3  A    between atoms: C_6  and  C_9
REMARK    4  A    between atoms: C_12  and  S_17
REMARK    5  A    between atoms: N_13  and  C_14
REMARK    6  A    between atoms: C_14  and  C_15
REMARK    7  A    between atoms: S_17  and  C_18
REMARK    8  A    between atoms: C_18  and  C_19
REMARK    9  A    between atoms: C_22  and  C_24
REMARK   10  A    between atoms: C_24  and  O_26
REMARK   11  A    between atoms: O_26  and  C_27
REMARK                            x       y       z     vdW  Elec       q    Type
REMARK                         _______ _______ _______ _____ _____    ______ ____
ROOT
ATOM      1  C   UNL     1      -6.922  -0.112   1.710  0.00  0.00    +0.165 A 
ATOM      2  N   UNL     1      -6.688  -0.003   0.422  0.00  0.00    -0.128 NA
ATOM      3  N   UNL     1      -5.495   0.433   0.228  0.00  0.00    -0.122 NA
ATOM      4  C   UNL     1      -4.891   0.621   1.380  0.00  0.00    +0.193 A 
ATOM      5  N   UNL     1      -5.778   0.284   2.362  0.00  0.00    -0.298 N 
ENDROOT
BRANCH   1   9
ATOM      6  C   UNL     1     -10.531  -1.439   3.517  0.00  0.00    +0.120 A 
ATOM      7  C   UNL     1      -9.619  -0.697   4.256  0.00  0.00    +0.046 A 
ATOM      8  C   UNL     1      -8.447  -0.265   3.673  0.00  0.00    +0.015 A 
ATOM      9  C   UNL     1      -8.177  -0.574   2.338  0.00  0.00    +0.020 A 
ATOM     10  C   UNL     1      -9.100  -1.316   1.598  0.00  0.00    +0.015 A 
ATOM     11  C   UNL     1     -10.267  -1.749   2.189  0.00  0.00    +0.046 A 
BRANCH   6  13
ATOM     12  C   UNL     1     -12.580  -2.621   3.278  0.00  0.00    +0.277 C 
ATOM     13  O   UNL     1     -11.686  -1.862   4.095  0.00  0.00    -0.495 OA
ENDBRANCH   6  13
ENDBRANCH   1   9
BRANCH   5  14
ATOM     14  C   UNL     1      -5.557   0.334   3.810  0.00  0.00    +0.152 C 
BRANCH  14  15
ATOM     15  C   UNL     1      -5.815   1.732   4.309  0.00  0.00    -0.013 C 
ATOM     16  C   UNL     1      -6.645   1.930   5.303  0.00  0.00    +0.005 C 
ENDBRANCH  14  15
ENDBRANCH   5  14
BRANCH   4  17
ATOM     17  S   UNL     1      -3.245   1.206   1.613  0.00  0.00    -0.078 S 
BRANCH  17  18
ATOM     18  C   UNL     1      -2.740   1.420  -0.112  0.00  0.00    +0.151 C 
BRANCH  18  19
ATOM     19  C   UNL     1      -1.323   1.929  -0.161  0.00  0.00    +0.116 A 
ATOM     20  C   UNL     1      -0.211   1.161  -0.207  0.00  0.00    +0.046 A 
ATOM     21  C   UNL     1       0.890   2.029  -0.248  0.00  0.00    +0.057 A 
ATOM     22  C   UNL     1       0.390   3.300  -0.220  0.00  0.00    +0.212 A 
ATOM     23  O   UNL     1      -0.956   3.217  -0.164  0.00  0.00    -0.452 OA
BRANCH  22  24
ATOM     24  C   UNL     1       1.176   4.535  -0.245  0.00  0.00    +0.375 C 
ATOM     25  O   UNL     1       2.390   4.482  -0.296  0.00  0.00    -0.241 OA
BRANCH  24  26
ATOM     26  O   UNL     1       0.554   5.732  -0.212  0.00  0.00    -0.462 OA
ATOM     27  C   UNL     1       1.396   6.914  -0.241  0.00  0.00    +0.280 C 
ENDBRANCH  24  26
ENDBRANCH  22  24
ENDBRANCH  18  19
ENDBRANCH  17  18
ENDBRANCH   4  17
TORSDOF 9
