REMARK  Name = ZINC23827496
REMARK  6 active torsions:
REMARK  status: ('A' for Active; 'I' for Inactive)
REMARK    1  A    between atoms: C_3  and  C_6
REMARK    2  A    between atoms: C_6  and  N_7
REMARK    3  A    between atoms: C_11  and  C_13
REMARK    4  A    between atoms: C_13  and  N_14
REMARK    5  A    between atoms: N_17  and  S_20
REMARK    6  A    between atoms: S_20  and  C_23
REMARK                            x       y       z     vdW  Elec       q    Type
REMARK                         _______ _______ _______ _____ _____    ______ ____
ROOT
ATOM      1  N   UNL     1       4.286  -0.545  -4.406  0.00  0.00    +0.387 N 
ATOM      2  C   UNL     1       4.316   0.720  -3.659  0.00  0.00    -0.061 C 
ATOM      3  C   UNL     1       5.082   0.517  -2.348  0.00  0.00    +0.091 C 
ATOM      4  N   UNL     1       4.483  -0.617  -1.627  0.00  0.00    -0.180 NA
ATOM      5  C   UNL     1       4.300  -1.883  -2.352  0.00  0.00    +0.091 C 
ATOM      6  C   UNL     1       3.559  -1.584  -3.665  0.00  0.00    -0.061 C 
ATOM      7  H   UNL     1       5.325  -0.886  -4.528  0.00  0.00    -0.081 HD
ENDROOT
BRANCH   4   8
ATOM      8  S   UNL     1       4.034  -0.473  -0.040  0.00  0.00    +0.067 S 
ATOM      9  O   UNL     1       4.814   0.580   0.509  0.00  0.00    -0.152 OA
ATOM     10  O   UNL     1       4.036  -1.786   0.503  0.00  0.00    -0.152 OA
BRANCH   8  11
ATOM     11  C   UNL     1       2.360   0.077  -0.020  0.00  0.00    +0.144 A 
ATOM     12  C   UNL     1       1.221  -0.657  -0.013  0.00  0.00    +0.038 A 
ATOM     13  C   UNL     1       0.002  -0.004   0.002  0.00  0.00    +0.030 A 
ATOM     14  C   UNL     1      -0.016   1.352   0.009  0.00  0.00    +0.080 A 
ATOM     15  S   UNL     1       1.725   1.745  -0.005  0.00  0.00    -0.057 S 
ATOM     16 CL   UNL     1      -1.379   2.427   0.022  0.00  0.00    -0.076 Cl
ENDBRANCH   8  11
ENDBRANCH   4   8
BRANCH   1  17
ATOM     17  C   UNL     1       3.712  -0.352  -5.744  0.00  0.00    +0.019 C 
BRANCH  17  22
ATOM     18  N   UNL     1       3.210  -2.823  -9.837  0.00  0.00    -0.292 N 
ATOM     19  C   UNL     1       3.658  -2.769  -8.567  0.00  0.00    +0.306 C 
ATOM     20  O   UNL     1       4.230  -3.726  -8.083  0.00  0.00    -0.252 OA
ATOM     21  N   UNL     1       3.472  -1.654  -7.834  0.00  0.00    -0.242 N 
ATOM     22  C   UNL     1       3.920  -1.599  -6.564  0.00  0.00    +0.204 C 
ATOM     23  O   UNL     1       4.490  -2.554  -6.081  0.00  0.00    -0.277 OA
ATOM     24  H   UNL     1       2.692  -1.957 -10.275  0.00  0.00    +0.151 HD
ATOM     25  H   UNL     1       2.954  -0.787  -8.272  0.00  0.00    +0.159 HD
BRANCH  18  26
ATOM     26  C   UNL     1       3.412  -4.036 -10.634  0.00  0.00    +0.180 C 
BRANCH  26  29
ATOM     27  C   UNL     1       2.546  -3.333 -14.147  0.00  0.00    +0.041 A 
ATOM     28  C   UNL     1       3.470  -3.344 -13.078  0.00  0.00    +0.046 A 
ATOM     29  C   UNL     1       2.823  -3.838 -12.007  0.00  0.00    +0.122 A 
ATOM     30  O   UNL     1       1.564  -4.132 -12.371  0.00  0.00    -0.466 OA
ATOM     31  C   UNL     1       1.388  -3.822 -13.666  0.00  0.00    +0.195 A 
ENDBRANCH  26  29
ENDBRANCH  18  26
ENDBRANCH  17  22
ENDBRANCH   1  17
TORSDOF 6
