REMARK  Name = ZINC14472602
REMARK  5 active torsions:
REMARK  status: ('A' for Active; 'I' for Inactive)
REMARK    1  A    between atoms: C_1  and  C_2
REMARK    2  A    between atoms: N_4  and  C_5
REMARK    3  A    between atoms: N_4  and  C_6
REMARK    4  A    between atoms: C_19  and  C_22
REMARK    5  A    between atoms: C_24  and  N_29
REMARK                            x       y       z     vdW  Elec       q    Type
REMARK                         _______ _______ _______ _____ _____    ______ ____
ROOT
ATOM      1  C   UNL     1      -0.012   0.009   0.002  0.00  0.00    +0.036 A 
ATOM      2  C   UNL     1      -0.047   1.397  -0.029  0.00  0.00    +0.025 A 
ATOM      3  C   UNL     1       1.129   2.118  -0.033  0.00  0.00    +0.025 A 
ATOM      4  C   UNL     1       2.355   1.465  -0.010  0.00  0.00    +0.031 A 
ATOM      5  C   UNL     1       2.385   0.067   0.031  0.00  0.00    -0.018 A 
ATOM      6  C   UNL     1       1.209  -0.650   0.034  0.00  0.00    +0.029 A 
ATOM      7  C   UNL     1       3.712  -0.586   0.082  0.00  0.00    +0.049 C 
ATOM      8  C   UNL     1       3.928  -1.964  -0.431  0.00  0.00    -0.023 C 
ATOM      9  C   UNL     1       5.169  -2.055  -0.891  0.00  0.00    -0.030 C 
ATOM     10  C   UNL     1       5.880  -0.709  -0.749  0.00  0.00    +0.033 C 
ATOM     11  C   UNL     1       4.698   0.269  -0.769  0.00  0.00    +0.029 C 
ATOM     12  C   UNL     1       4.864   1.572  -0.008  0.00  0.00    +0.106 C 
ATOM     13  N   UNL     1       3.535   2.223  -0.040  0.00  0.00    -0.336 N 
ATOM     14  H   UNL     1       3.479   3.190  -0.082  0.00  0.00    +0.147 HD
ENDROOT
BRANCH  12  15
ATOM     15  C   UNL     1       5.274   1.296   1.415  0.00  0.00    -0.007 A 
ATOM     16  C   UNL     1       4.317   1.235   2.411  0.00  0.00    +0.039 A 
ATOM     17  C   UNL     1       4.694   0.977   3.716  0.00  0.00    +0.127 A 
ATOM     18  C   UNL     1       6.028   0.790   4.027  0.00  0.00    +0.034 A 
ATOM     19  C   UNL     1       6.985   0.856   3.034  0.00  0.00    +0.022 A 
ATOM     20  C   UNL     1       6.609   1.109   1.726  0.00  0.00    +0.046 A 
ATOM     21 CL   UNL     1       7.812   1.193   0.477  0.00  0.00    -0.083 Cl
BRANCH  17  22
ATOM     22  N   UNL     1       3.668   0.906   4.781  0.00  0.00    +0.056 N 
ATOM     23  O   UNL     1       4.000   0.683   5.932  0.00  0.00    -0.126 OA
ATOM     24  O   UNL     1       2.493   1.070   4.507  0.00  0.00    -0.126 OA
ENDBRANCH  17  22
ENDBRANCH  12  15
BRANCH   1  28
ATOM     25  C   UNL     1      -3.664  -0.879   0.235  0.00  0.00    +0.109 C 
ATOM     26  C   UNL     1      -2.389  -0.086   0.117  0.00  0.00    +0.216 C 
ATOM     27  O   UNL     1      -2.425   1.127   0.127  0.00  0.00    -0.276 OA
ATOM     28  N   UNL     1      -1.207  -0.723   0.001  0.00  0.00    -0.275 N 
ATOM     29  C   UNL     1      -1.171  -2.182  -0.127  0.00  0.00    +0.138 C 
ENDBRANCH   1  28
TORSDOF 3
