REMARK  Name = ZINC13443037
REMARK  12 active torsions:
REMARK  status: ('A' for Active; 'I' for Inactive)
REMARK    1  A    between atoms: C_1  and  O_2
REMARK    2  A    between atoms: O_2  and  C_3
REMARK    3  A    between atoms: C_6  and  C_9
REMARK    4  A    between atoms: C_12  and  S_17
REMARK    5  A    between atoms: N_13  and  C_14
REMARK    6  A    between atoms: C_14  and  C_15
REMARK    7  A    between atoms: S_17  and  C_18
REMARK    8  A    between atoms: C_18  and  C_19
REMARK    9  A    between atoms: N_21  and  C_22
REMARK   10  A    between atoms: C_22  and  C_23
REMARK   11  A    between atoms: C_28  and  O_29
REMARK   12  A    between atoms: O_29  and  C_30
REMARK                            x       y       z     vdW  Elec       q    Type
REMARK                         _______ _______ _______ _____ _____    ______ ____
ROOT
ATOM      1  S   UNL     1      -1.682   4.997  -0.112  0.00  0.00    -0.077 S 
ENDROOT
BRANCH   1   5
ATOM      2  C   UNL     1       0.001   1.476   0.074  0.00  0.00    +0.165 A 
ATOM      3  N   UNL     1       1.033   2.287   0.036  0.00  0.00    -0.128 NA
ATOM      4  N   UNL     1       0.630   3.506  -0.027  0.00  0.00    -0.122 NA
ATOM      5  C   UNL     1      -0.683   3.548  -0.034  0.00  0.00    +0.193 A 
ATOM      6  N   UNL     1      -1.129   2.258   0.025  0.00  0.00    -0.291 N 
BRANCH   2  10
ATOM      7  C   UNL     1       0.131  -2.766   0.289  0.00  0.00    +0.120 A 
ATOM      8  C   UNL     1      -1.024  -2.089   0.656  0.00  0.00    +0.046 A 
ATOM      9  C   UNL     1      -1.070  -0.713   0.588  0.00  0.00    +0.015 A 
ATOM     10  C   UNL     1       0.046   0.000   0.149  0.00  0.00    +0.020 A 
ATOM     11  C   UNL     1       1.204  -0.684  -0.226  0.00  0.00    +0.015 A 
ATOM     12  C   UNL     1       1.244  -2.060  -0.149  0.00  0.00    +0.046 A 
BRANCH   7  14
ATOM     13  C   UNL     1       1.393  -4.755  -0.035  0.00  0.00    +0.277 C 
ATOM     14  O   UNL     1       0.173  -4.122   0.357  0.00  0.00    -0.495 OA
ENDBRANCH   7  14
ENDBRANCH   2  10
BRANCH   6  15
ATOM     15  C   UNL     1      -2.522   1.803   0.036  0.00  0.00    +0.250 C 
BRANCH  15  16
ATOM     16  C   UNL     1      -3.024   1.757   1.456  0.00  0.00    +0.375 C 
ATOM     17  O   UNL     1      -2.294   2.072   2.365  0.00  0.00    -0.244 OA
ATOM     18  O   UNL     1      -4.283   1.366   1.710  0.00  0.00    -0.244 OA
ENDBRANCH  15  16
ENDBRANCH   6  15
ENDBRANCH   1   5
BRANCH   1  19
ATOM     19  C   UNL     1      -0.392   6.265  -0.172  0.00  0.00    +0.173 C 
BRANCH  19  20
ATOM     20  C   UNL     1      -1.030   7.628  -0.245  0.00  0.00    +0.224 C 
ATOM     21  O   UNL     1      -2.239   7.732  -0.255  0.00  0.00    -0.275 OA
ATOM     22  N   UNL     1      -0.259   8.732  -0.298  0.00  0.00    -0.310 N 
ATOM     23  H   UNL     1       0.708   8.649  -0.290  0.00  0.00    +0.149 HD
BRANCH  22  24
ATOM     24  C   UNL     1      -0.879  10.057  -0.369  0.00  0.00    +0.143 C 
BRANCH  24  25
ATOM     25  C   UNL     1       0.195  11.113  -0.419  0.00  0.00    +0.012 A 
ATOM     26  C   UNL     1       0.533  11.810   0.725  0.00  0.00    +0.009 A 
ATOM     27  C   UNL     1       1.522  12.775   0.681  0.00  0.00    +0.001 A 
ATOM     28  C   UNL     1       2.167  13.053  -0.510  0.00  0.00    +0.004 A 
ATOM     29  C   UNL     1       1.829  12.363  -1.657  0.00  0.00    +0.046 A 
ATOM     30  C   UNL     1       0.841  11.390  -1.615  0.00  0.00    +0.135 A 
BRANCH  30  31
ATOM     31  O   UNL     1       0.506  10.710  -2.743  0.00  0.00    -0.405 OA
BRANCH  31  32
ATOM     32  C   UNL     1       1.212  11.049  -3.938  0.00  0.00    +0.575 C 
ATOM     33  F   UNL     1       2.579  10.818  -3.752  0.00  0.00    -0.133 F 
ATOM     34  F   UNL     1       0.746  10.259  -4.995  0.00  0.00    -0.133 F 
ATOM     35  F   UNL     1       1.003  12.399  -4.237  0.00  0.00    -0.133 F 
ENDBRANCH  31  32
ENDBRANCH  30  31
ENDBRANCH  24  25
ENDBRANCH  22  24
ENDBRANCH  19  20
ENDBRANCH   1  19
TORSDOF 11
