REMARK  Name = ZINC36309302
REMARK  19 active torsions:
REMARK  status: ('A' for Active; 'I' for Inactive)
REMARK    1  A    between atoms: C_1  and  C_2
REMARK    2  A    between atoms: C_2  and  C_3
REMARK    3  A    between atoms: C_3  and  N_4
REMARK    4  A    between atoms: N_4  and  C_5
REMARK    5  A    between atoms: N_4  and  C_15
REMARK    6  A    between atoms: C_5  and  C_6
REMARK    7  A    between atoms: C_6  and  C_8
REMARK    8  A    between atoms: C_6  and  O_14
REMARK    9  A    between atoms: C_8  and  O_9
REMARK   10  A    between atoms: O_9  and  C_10
REMARK   11  A    between atoms: C_10  and  C_11
REMARK   12  A    between atoms: C_11  and  C_12
REMARK   13  A    between atoms: C_11  and  C_13
REMARK   14  A    between atoms: C_15  and  C_16
REMARK   15  A    between atoms: C_26  and  C_28
REMARK   16  A    between atoms: C_28  and  O_29
REMARK   17  A    between atoms: O_29  and  C_30
REMARK   18  A    between atoms: C_34  and  O_36
REMARK   19  A    between atoms: O_36  and  C_37
REMARK                            x       y       z     vdW  Elec       q    Type
REMARK                         _______ _______ _______ _____ _____    ______ ____
ROOT
ATOM      1  C   UNL     1       0.187  -2.027   3.681  0.00  0.00    +0.200 C 
ATOM      2  O   UNL     1      -0.738  -1.291   3.409  0.00  0.00    -0.278 OA
ATOM      3  N   UNL     1       0.398  -2.401   4.959  0.00  0.00    -0.292 N 
ATOM      4  C   UNL     1       1.519  -3.288   5.300  0.00  0.00    +0.113 C 
ATOM      5  C   UNL     1       2.498  -2.507   6.191  0.00  0.00    +0.061 C 
ATOM      6  C   UNL     1       1.714  -1.734   7.201  0.00  0.00    -0.004 A 
ATOM      7  C   UNL     1       0.386  -1.438   7.181  0.00  0.00    -0.014 A 
ATOM      8  C   UNL     1      -0.105  -0.689   8.249  0.00  0.00    +0.013 A 
ATOM      9  C   UNL     1       0.729  -0.297   9.240  0.00  0.00    +0.046 A 
ATOM     10  S   UNL     1       2.288  -0.984   8.702  0.00  0.00    -0.101 S 
ATOM     11  C   UNL     1      -0.487  -1.923   6.030  0.00  0.00    +0.144 C 
ENDROOT
BRANCH   1  12
ATOM     12  C   UNL     1       1.100  -2.523   2.590  0.00  0.00    +0.019 C 
BRANCH  12  13
ATOM     13  N   UNL     1       0.662  -1.977   1.299  0.00  0.00    +0.387 N 
ATOM     14  H   UNL     1      -0.308  -2.209   1.147  0.00  0.00    -0.081 HD
BRANCH  13  15
ATOM     15  C   UNL     1       0.822  -0.517   1.305  0.00  0.00    -0.078 C 
BRANCH  15  17
ATOM     16  C   UNL     1       0.275   1.595   0.086  0.00  0.00    +0.002 C 
ATOM     17  C   UNL     1       0.229   0.067   0.020  0.00  0.00    -0.022 C 
ENDBRANCH  15  17
ENDBRANCH  13  15
BRANCH  13  18
ATOM     18  C   UNL     1       1.477  -2.554   0.221  0.00  0.00    -0.044 C 
BRANCH  18  19
ATOM     19  C   UNL     1       1.198  -4.055   0.119  0.00  0.00    +0.124 C 
BRANCH  19  20
ATOM     20  O   UNL     1      -0.185  -4.263  -0.172  0.00  0.00    -0.391 OA
ATOM     21  H   UNL     1      -0.460  -3.928  -1.036  0.00  0.00    +0.210 HD
ENDBRANCH  19  20
BRANCH  19  22
ATOM     22  C   UNL     1       2.051  -4.657  -1.000  0.00  0.00    +0.189 C 
BRANCH  22  23
ATOM     23  O   UNL     1       1.879  -6.075  -1.020  0.00  0.00    -0.377 OA
BRANCH  23  24
ATOM     24  C   UNL     1       2.636  -6.739  -2.034  0.00  0.00    +0.163 C 
BRANCH  24  25
ATOM     25  C   UNL     1       2.375  -8.245  -1.962  0.00  0.00    +0.009 C 
ATOM     26  C   UNL     1       0.910  -8.525  -2.302  0.00  0.00    +0.009 C 
ATOM     27  C   UNL     1       3.278  -8.967  -2.964  0.00  0.00    +0.009 C 
ENDBRANCH  24  25
ENDBRANCH  23  24
ENDBRANCH  22  23
ENDBRANCH  19  22
ENDBRANCH  18  19
ENDBRANCH  13  18
ENDBRANCH  12  13
ENDBRANCH   1  12
BRANCH  11  28
ATOM     28  C   UNL     1      -1.383  -3.066   6.511  0.00  0.00    +0.256 C 
BRANCH  28  29
ATOM     29  O   UNL     1      -0.577  -4.081   7.114  0.00  0.00    -0.490 OA
BRANCH  29  30
ATOM     30  C   UNL     1      -1.223  -5.175   7.598  0.00  0.00    +0.124 A 
ATOM     31  C   UNL     1      -2.603  -5.272   7.488  0.00  0.00    +0.046 A 
ATOM     32  C   UNL     1      -3.260  -6.384   7.979  0.00  0.00    +0.007 A 
ATOM     33  C   UNL     1      -2.545  -7.401   8.581  0.00  0.00    +0.046 A 
ATOM     34  C   UNL     1      -1.165  -7.309   8.694  0.00  0.00    +0.124 A 
ATOM     35  C   UNL     1      -0.503  -6.197   8.196  0.00  0.00    +0.091 A 
BRANCH  34  36
ATOM     36  O   UNL     1      -0.462  -8.310   9.286  0.00  0.00    -0.495 OA
ATOM     37  C   UNL     1      -1.209  -9.428   9.771  0.00  0.00    +0.277 C 
ENDBRANCH  34  36
ENDBRANCH  29  30
ENDBRANCH  28  29
ENDBRANCH  11  28
TORSDOF 15
