REMARK  Name = ZINC39635108
REMARK  7 active torsions:
REMARK  status: ('A' for Active; 'I' for Inactive)
REMARK    1  A    between atoms: C_1  and  O_2
REMARK    2  A    between atoms: O_2  and  C_3
REMARK    3  A    between atoms: C_6  and  C_9
REMARK    4  A    between atoms: C_9  and  C_10
REMARK    5  A    between atoms: C_10  and  N_11
REMARK    6  A    between atoms: C_12  and  C_14
REMARK    7  A    between atoms: C_25  and  C_27
REMARK                            x       y       z     vdW  Elec       q    Type
REMARK                         _______ _______ _______ _____ _____    ______ ____
ROOT
ATOM      1  C   UNL     1       6.616  -4.340  -6.339  0.00  0.00    +0.100 C 
ATOM      2  C   UNL     1       6.457  -3.480  -7.613  0.00  0.00    +0.121 C 
ATOM      3  N   UNL     1       7.696  -2.671  -7.676  0.00  0.00    -0.296 N 
ATOM      4  C   UNL     1       8.767  -3.603  -7.248  0.00  0.00    +0.115 C 
ATOM      5  C   UNL     1       8.134  -4.421  -6.105  0.00  0.00    -0.004 C 
ATOM      6  C   UNL     1       8.602  -5.872  -6.173  0.00  0.00    -0.010 C 
ATOM      7  C   UNL     1      10.104  -5.933  -5.879  0.00  0.00    -0.082 C 
ATOM      8  N   UNL     1      10.368  -5.374  -4.548  0.00  0.00    +0.379 N 
ATOM      9  C   UNL     1      10.001  -3.953  -4.520  0.00  0.00    -0.082 C 
ATOM     10  C   UNL     1       8.495  -3.808  -4.756  0.00  0.00    -0.010 C 
ATOM     11  C   UNL     1       7.822  -1.379  -8.041  0.00  0.00    +0.248 C 
ATOM     12  O   UNL     1       6.831  -0.714  -8.276  0.00  0.00    -0.270 OA
ATOM     13  H   UNL     1       9.824  -5.874  -3.861  0.00  0.00    -0.086 HD
ATOM     14  H   UNL     1      11.348  -5.471  -4.332  0.00  0.00    -0.086 HD
ENDROOT
BRANCH  11  15
ATOM     15  C   UNL     1       9.156  -0.775  -8.155  0.00  0.00    +0.052 A 
ATOM     16  C   UNL     1      10.218  -1.501  -8.593  0.00  0.00    +0.059 A 
ATOM     17  S   UNL     1      11.519  -0.443  -8.570  0.00  0.00    -0.096 S 
ATOM     18  C   UNL     1      10.722   1.023  -7.977  0.00  0.00    +0.020 A 
ATOM     19  C   UNL     1       9.381   0.629  -7.807  0.00  0.00    +0.001 A 
ATOM     20  C   UNL     1       8.477   1.602  -7.339  0.00  0.00    +0.010 A 
ATOM     21  C   UNL     1       8.907   2.878  -7.071  0.00  0.00    +0.001 A 
ATOM     22  C   UNL     1      10.233   3.242  -7.252  0.00  0.00    +0.001 A 
ATOM     23  C   UNL     1      11.145   2.306  -7.699  0.00  0.00    +0.015 A 
ENDBRANCH  11  15
BRANCH   1  25
ATOM     24  N   UNL     1       5.415  -4.423  -4.179  0.00  0.00    -0.315 N 
ATOM     25  C   UNL     1       5.940  -3.675  -5.168  0.00  0.00    +0.218 C 
ATOM     26  O   UNL     1       5.868  -2.465  -5.117  0.00  0.00    -0.275 OA
ATOM     27  H   UNL     1       5.472  -5.391  -4.220  0.00  0.00    +0.149 HD
BRANCH  24  28
ATOM     28  C   UNL     1       4.757  -3.776  -3.041  0.00  0.00    +0.109 C 
BRANCH  28  29
ATOM     29  C   UNL     1       4.253  -4.845  -2.068  0.00  0.00    +0.054 C 
BRANCH  29  33
ATOM     30  C   UNL     1       2.335  -2.958   1.252  0.00  0.00    +0.120 A 
ATOM     31  C   UNL     1       1.599  -3.302   0.128  0.00  0.00    +0.046 A 
ATOM     32  C   UNL     1       2.221  -3.912  -0.944  0.00  0.00    +0.007 A 
ATOM     33  C   UNL     1       3.577  -4.179  -0.897  0.00  0.00    -0.046 A 
ATOM     34  C   UNL     1       4.313  -3.838   0.222  0.00  0.00    +0.007 A 
ATOM     35  C   UNL     1       3.696  -3.223   1.294  0.00  0.00    +0.046 A 
BRANCH  30  37
ATOM     36  C   UNL     1       0.322  -2.116   2.195  0.00  0.00    +0.277 C 
ATOM     37  O   UNL     1       1.725  -2.358   2.308  0.00  0.00    -0.495 OA
ENDBRANCH  30  37
ENDBRANCH  29  33
ENDBRANCH  28  29
ENDBRANCH  24  28
ENDBRANCH   1  25
TORSDOF 6
