REMARK  Name = ZINC54238598
REMARK  3 active torsions:
REMARK  status: ('A' for Active; 'I' for Inactive)
REMARK    1  A    between atoms: C_9  and  C_12
REMARK    2  A    between atoms: C_12  and  N_13
REMARK    3  A    between atoms: C_18  and  C_20
REMARK                            x       y       z     vdW  Elec       q    Type
REMARK                         _______ _______ _______ _____ _____    ______ ____
ROOT
ATOM      1  C   UNL     1      -0.138   1.224  -0.142  0.00  0.00    +0.004 A 
ATOM      2  C   UNL     1       1.026   1.970  -0.113  0.00  0.00    +0.004 A 
ATOM      3  C   UNL     1       2.254   1.337  -0.090  0.00  0.00    +0.049 A 
ATOM      4  C   UNL     1       2.323  -0.048  -0.097  0.00  0.00    +0.163 A 
ATOM      5  C   UNL     1       1.154  -0.798  -0.127  0.00  0.00    +0.162 A 
ATOM      6  C   UNL     1      -0.076  -0.157  -0.148  0.00  0.00    +0.049 A 
ATOM      7  O   UNL     1       1.199  -2.158  -0.142  0.00  0.00    -0.485 OA
ATOM      8  C   UNL     1       2.433  -2.765   0.255  0.00  0.00    +0.275 C 
ATOM      9  C   UNL     1       3.579  -2.034  -0.457  0.00  0.00    +0.225 C 
ATOM     10  O   UNL     1       3.540  -0.656  -0.070  0.00  0.00    -0.481 OA
ENDROOT
BRANCH   9  11
ATOM     11  C   UNL     1       4.918  -2.649  -0.044  0.00  0.00    +0.133 C 
BRANCH  11  12
ATOM     12  N   UNL     1       5.996  -2.061  -0.850  0.00  0.00    -0.289 NA
ATOM     13  C   UNL     1       6.272  -0.680  -0.432  0.00  0.00    +0.085 C 
ATOM     14  C   UNL     1       7.294  -0.052  -1.383  0.00  0.00    +0.015 C 
ATOM     15  C   UNL     1       8.582  -0.880  -1.359  0.00  0.00    +0.003 C 
ATOM     16  C   UNL     1       8.258  -2.324  -1.752  0.00  0.00    +0.026 C 
ATOM     17  C   UNL     1       7.209  -2.886  -0.790  0.00  0.00    +0.120 C 
BRANCH  17  18
ATOM     18  C   UNL     1       6.873  -4.301  -1.185  0.00  0.00    +0.242 C 
ATOM     19  O   UNL     1       7.059  -5.206  -0.407  0.00  0.00    -0.299 OA
ENDBRANCH  17  18
ENDBRANCH  11  12
ENDBRANCH   9  11
TORSDOF 3
