REMARK  Name = ZINC39959950
REMARK  2 active torsions:
REMARK  status: ('A' for Active; 'I' for Inactive)
REMARK    1  A    between atoms: C_7  and  C_10
REMARK    2  A    between atoms: N_17  and  C_20
REMARK                            x       y       z     vdW  Elec       q    Type
REMARK                         _______ _______ _______ _____ _____    ______ ____
ROOT
ATOM      1  C   UNL     1       0.626  -3.247  -0.999  0.00  0.00    +0.024 C 
ATOM      2  C   UNL     1       1.131  -4.489  -0.620  0.00  0.00    +0.102 C 
ATOM      3  C   UNL     1       0.245  -5.574  -0.169  0.00  0.00    +0.274 C 
ATOM      4  O   UNL     1      -1.092  -5.395  -0.111  0.00  0.00    -0.268 OA
ATOM      5  N   UNL     1       0.788  -6.728   0.176  0.00  0.00    -0.153 NA
ATOM      6  C   UNL     1       2.102  -6.934   0.128  0.00  0.00    +0.171 C 
ATOM      7  S   UNL     1       2.697  -8.469   0.599  0.00  0.00    -0.016 S 
ATOM      8  N   UNL     1       2.985  -6.006  -0.268  0.00  0.00    -0.216 N 
ATOM      9  C   UNL     1       2.579  -4.779  -0.657  0.00  0.00    +0.262 C 
ATOM     10  O   UNL     1       3.380  -3.938  -1.022  0.00  0.00    -0.269 OA
ENDROOT
BRANCH   1  17
ATOM     11  C   UNL     1      -1.024  -0.097  -3.811  0.00  0.00    +0.001 A 
ATOM     12  C   UNL     1      -0.113   0.358  -4.774  0.00  0.00    +0.002 A 
ATOM     13  C   UNL     1       1.151  -0.117  -4.843  0.00  0.00    +0.026 A 
ATOM     14  C   UNL     1       1.583  -1.141  -3.879  0.00  0.00    +0.043 A 
ATOM     15  N   UNL     1       2.720  -1.761  -3.719  0.00  0.00    -0.380 N 
ATOM     16  C   UNL     1       2.612  -2.696  -2.595  0.00  0.00    +0.149 C 
ATOM     17  C   UNL     1       1.200  -2.558  -2.068  0.00  0.00    -0.018 C 
ATOM     18  C   UNL     1       0.595  -1.598  -2.875  0.00  0.00    +0.003 A 
ATOM     19  C   UNL     1      -0.699  -1.037  -2.891  0.00  0.00    +0.010 A 
ATOM     20  H   UNL     1       3.513  -1.625  -4.260  0.00  0.00    +0.160 HD
ENDBRANCH   1  17
BRANCH   8  21
ATOM     21  C   UNL     1       4.351  -6.318  -0.284  0.00  0.00    +0.046 A 
ATOM     22  C   UNL     1       5.130  -6.086   0.841  0.00  0.00    +0.044 A 
ATOM     23  C   UNL     1       6.478  -6.395   0.823  0.00  0.00    +0.044 A 
ATOM     24  C   UNL     1       7.050  -6.934  -0.316  0.00  0.00    +0.040 A 
ATOM     25  C   UNL     1       6.275  -7.166  -1.439  0.00  0.00    +0.044 A 
ATOM     26  C   UNL     1       4.926  -6.864  -1.424  0.00  0.00    +0.044 A 
ATOM     27 CL   UNL     1       6.997  -7.842  -2.866  0.00  0.00    -0.083 Cl
ATOM     28 CL   UNL     1       7.453  -6.105   2.230  0.00  0.00    -0.083 Cl
ENDBRANCH   8  21
TORSDOF 2
