REMARK  Name = ZINC39666025
REMARK  9 active torsions:
REMARK  status: ('A' for Active; 'I' for Inactive)
REMARK    1  A    between atoms: C_1  and  C_2
REMARK    2  A    between atoms: C_5  and  O_8
REMARK    3  A    between atoms: O_8  and  C_9
REMARK    4  A    between atoms: C_9  and  C_11
REMARK    5  A    between atoms: C_9  and  C_12
REMARK    6  A    between atoms: C_12  and  N_13
REMARK    7  A    between atoms: C_14  and  C_16
REMARK    8  A    between atoms: C_27  and  C_29
REMARK    9  A    between atoms: C_32  and  C_36
REMARK                            x       y       z     vdW  Elec       q    Type
REMARK                         _______ _______ _______ _____ _____    ______ ____
ROOT
ATOM      1  C   UNL     1      -3.998  -6.704   0.534  0.00  0.00    +0.100 C 
ATOM      2  C   UNL     1      -4.652  -5.810   1.611  0.00  0.00    +0.121 C 
ATOM      3  N   UNL     1      -6.043  -6.310   1.719  0.00  0.00    -0.296 N 
ATOM      4  C   UNL     1      -5.915  -7.783   1.610  0.00  0.00    +0.115 C 
ATOM      5  C   UNL     1      -4.829  -7.998   0.537  0.00  0.00    -0.004 C 
ATOM      6  C   UNL     1      -3.951  -9.189   0.908  0.00  0.00    -0.010 C 
ATOM      7  C   UNL     1      -4.786 -10.472   0.848  0.00  0.00    -0.082 C 
ATOM      8  N   UNL     1      -5.329 -10.641  -0.506  0.00  0.00    +0.379 N 
ATOM      9  C   UNL     1      -6.245  -9.538  -0.819  0.00  0.00    -0.082 C 
ATOM     10  C   UNL     1      -5.472  -8.216  -0.829  0.00  0.00    -0.010 C 
ATOM     11  C   UNL     1      -7.170  -5.588   1.878  0.00  0.00    +0.247 C 
ATOM     12  O   UNL     1      -7.106  -4.382   2.011  0.00  0.00    -0.270 OA
ATOM     13  H   UNL     1      -4.571 -10.646  -1.172  0.00  0.00    -0.086 HD
ATOM     14  H   UNL     1      -5.827 -11.517  -0.560  0.00  0.00    -0.086 HD
ENDROOT
BRANCH  11  15
ATOM     15  C   UNL     1      -8.485  -6.264   1.891  0.00  0.00    +0.040 A 
ATOM     16  C   UNL     1      -8.611  -7.542   2.438  0.00  0.00    +0.014 A 
ATOM     17  C   UNL     1      -9.840  -8.168   2.447  0.00  0.00    +0.016 A 
ATOM     18  C   UNL     1     -10.948  -7.533   1.917  0.00  0.00    +0.090 A 
ATOM     19  C   UNL     1     -10.832  -6.264   1.373  0.00  0.00    +0.136 A 
ATOM     20  C   UNL     1      -9.607  -5.624   1.362  0.00  0.00    +0.052 A 
ATOM     21  F   UNL     1     -11.918  -5.649   0.856  0.00  0.00    -0.205 F 
BRANCH  18  22
ATOM     22  C   UNL     1     -12.288  -8.223   1.932  0.00  0.00    +0.420 C 
ATOM     23  F   UNL     1     -12.157  -9.483   2.527  0.00  0.00    -0.166 F 
ATOM     24  F   UNL     1     -13.200  -7.455   2.663  0.00  0.00    -0.166 F 
ATOM     25  F   UNL     1     -12.750  -8.372   0.620  0.00  0.00    -0.166 F 
ENDBRANCH  18  22
ENDBRANCH  11  15
BRANCH   1  27
ATOM     26  N   UNL     1      -1.652  -7.200  -0.073  0.00  0.00    -0.312 N 
ATOM     27  C   UNL     1      -2.566  -7.000   0.897  0.00  0.00    +0.218 C 
ATOM     28  O   UNL     1      -2.235  -7.058   2.062  0.00  0.00    -0.275 OA
ATOM     29  H   UNL     1      -1.917  -7.154  -1.006  0.00  0.00    +0.149 HD
BRANCH  26  30
ATOM     30  C   UNL     1      -0.260  -7.487   0.279  0.00  0.00    +0.148 C 
BRANCH  30  31
ATOM     31  C   UNL     1       0.562  -7.671  -0.998  0.00  0.00    +0.187 C 
ATOM     32  C   UNL     1       2.017  -7.971  -0.630  0.00  0.00    +0.053 C 
BRANCH  31  33
ATOM     33  O   UNL     1       0.029  -8.759  -1.756  0.00  0.00    -0.488 OA
BRANCH  33  38
ATOM     34  C   UNL     1       1.037  -8.754  -7.297  0.00  0.00    +0.044 C 
ATOM     35  C   UNL     1       0.767  -8.755  -5.814  0.00  0.00    -0.050 A 
ATOM     36  C   UNL     1       1.172  -7.685  -5.038  0.00  0.00    +0.007 A 
ATOM     37  C   UNL     1       0.926  -7.684  -3.679  0.00  0.00    +0.046 A 
ATOM     38  C   UNL     1       0.272  -8.758  -3.093  0.00  0.00    +0.121 A 
ATOM     39  C   UNL     1      -0.135  -9.830  -3.874  0.00  0.00    +0.046 A 
ATOM     40  C   UNL     1       0.109  -9.824  -5.234  0.00  0.00    +0.007 A 
ENDBRANCH  33  38
ENDBRANCH  31  33
ENDBRANCH  30  31
ENDBRANCH  26  30
ENDBRANCH   1  27
TORSDOF 7
