REMARK  Name = ZINC00877650
REMARK  10 active torsions:
REMARK  status: ('A' for Active; 'I' for Inactive)
REMARK    1  A    between atoms: C_1  and  C_2
REMARK    2  A    between atoms: C_5  and  N_33
REMARK    3  A    between atoms: C_7  and  N_8
REMARK    4  A    between atoms: C_9  and  C_11
REMARK    5  A    between atoms: C_11  and  S_12
REMARK    6  A    between atoms: S_12  and  C_13
REMARK    7  A    between atoms: C_16  and  C_24
REMARK    8  A    between atoms: N_17  and  C_18
REMARK    9  A    between atoms: C_24  and  N_25
REMARK   10  A    between atoms: N_25  and  C_26
REMARK                            x       y       z     vdW  Elec       q    Type
REMARK                         _______ _______ _______ _____ _____    ______ ____
ROOT
ATOM      1  C   UNL     1       0.158   0.934   2.735  0.00  0.00    +0.197 A 
ATOM      2  N   UNL     1       1.220   0.190   2.533  0.00  0.00    -0.122 NA
ATOM      3  N   UNL     1       1.728  -0.163   3.659  0.00  0.00    -0.132 NA
ATOM      4  C   UNL     1       1.023   0.322   4.641  0.00  0.00    +0.156 A 
ATOM      5  N   UNL     1      -0.005   1.040   4.089  0.00  0.00    -0.273 N 
ENDROOT
BRANCH   5   6
ATOM      6  C   UNL     1      -1.013   1.737   4.770  0.00  0.00    +0.050 A 
ATOM      7  C   UNL     1      -0.690   2.831   5.562  0.00  0.00    +0.026 A 
ATOM      8  C   UNL     1      -1.685   3.519   6.227  0.00  0.00    +0.002 A 
ATOM      9  C   UNL     1      -3.002   3.112   6.115  0.00  0.00    +0.000 A 
ATOM     10  C   UNL     1      -3.327   2.020   5.332  0.00  0.00    +0.002 A 
ATOM     11  C   UNL     1      -2.336   1.331   4.659  0.00  0.00    +0.026 A 
ENDBRANCH   5   6
BRANCH   1  12
ATOM     12  S   UNL     1      -0.869   1.655   1.497  0.00  0.00    -0.076 S 
BRANCH  12  13
ATOM     13  C   UNL     1      -0.021   1.073   0.008  0.00  0.00    +0.173 C 
BRANCH  13  15
ATOM     14  N   UNL     1      -0.288   1.272  -2.443  0.00  0.00    -0.285 N 
ATOM     15  C   UNL     1      -0.743   1.582  -1.213  0.00  0.00    +0.227 C 
ATOM     16  O   UNL     1      -1.734   2.271  -1.088  0.00  0.00    -0.275 OA
ATOM     17  H   UNL     1       0.547   0.790  -2.544  0.00  0.00    +0.155 HD
BRANCH  14  24
ATOM     18  C   UNL     1       1.104   1.579  -4.905  0.00  0.00    +0.045 C 
ATOM     19  C   UNL     1      -0.382   1.807  -4.796  0.00  0.00    -0.029 A 
ATOM     20  C   UNL     1      -1.108   2.176  -5.912  0.00  0.00    +0.007 A 
ATOM     21  C   UNL     1      -2.471   2.385  -5.813  0.00  0.00    +0.033 A 
ATOM     22  C   UNL     1      -3.112   2.226  -4.597  0.00  0.00    +0.128 A 
ATOM     23  C   UNL     1      -2.392   1.853  -3.479  0.00  0.00    +0.056 A 
ATOM     24  C   UNL     1      -1.022   1.646  -3.575  0.00  0.00    +0.038 A 
BRANCH  22  25
ATOM     25  N   UNL     1      -4.571   2.450  -4.495  0.00  0.00    +0.056 N 
ATOM     26  O   UNL     1      -5.208   2.775  -5.482  0.00  0.00    -0.126 OA
ATOM     27  O   UNL     1      -5.136   2.310  -3.425  0.00  0.00    -0.126 OA
ENDBRANCH  22  25
ENDBRANCH  14  24
ENDBRANCH  13  15
ENDBRANCH  12  13
ENDBRANCH   1  12
BRANCH   4  28
ATOM     28  C   UNL     1       1.289   0.129   6.112  0.00  0.00    +0.178 C 
BRANCH  28  29
ATOM     29  N   UNL     1       0.586  -1.068   6.582  0.00  0.00    -0.336 N 
ATOM     30  H   UNL     1       0.054  -1.592   5.964  0.00  0.00    +0.147 HD
BRANCH  29  31
ATOM     31  C   UNL     1       0.682  -1.453   7.922  0.00  0.00    +0.046 A 
ATOM     32  C   UNL     1       1.448  -0.707   8.808  0.00  0.00    +0.024 A 
ATOM     33  C   UNL     1       1.537  -1.088  10.132  0.00  0.00    +0.002 A 
ATOM     34  C   UNL     1       0.874  -2.217  10.575  0.00  0.00    +0.002 A 
ATOM     35  C   UNL     1       0.114  -2.966   9.695  0.00  0.00    +0.022 A 
ATOM     36  C   UNL     1       0.017  -2.588   8.370  0.00  0.00    +0.062 A 
ATOM     37 CL   UNL     1      -0.936  -3.530   7.265  0.00  0.00    -0.082 Cl
ENDBRANCH  29  31
ENDBRANCH  28  29
ENDBRANCH   4  28
TORSDOF 9
