REMARK  Name = ZINC19927053
REMARK  6 active torsions:
REMARK  status: ('A' for Active; 'I' for Inactive)
REMARK    1  A    between atoms: C_1  and  C_2
REMARK    2  A    between atoms: C_2  and  C_25
REMARK    3  A    between atoms: N_3  and  N_4
REMARK    4  A    between atoms: C_5  and  C_7
REMARK    5  A    between atoms: C_8  and  C_18
REMARK    6  A    between atoms: C_18  and  N_19
REMARK                            x       y       z     vdW  Elec       q    Type
REMARK                         _______ _______ _______ _____ _____    ______ ____
ROOT
ATOM      1  C   UNL     1      -0.439   5.547  -0.051  0.00  0.00    +0.154 A 
ATOM      2  C   UNL     1       0.812   6.108  -0.038  0.00  0.00    +0.079 A 
ATOM      3  N   UNL     1       1.675   5.100   0.082  0.00  0.00    -0.135 NA
ATOM      4  N   UNL     1       1.032   3.989   0.147  0.00  0.00    -0.058 NA
ATOM      5  N   UNL     1      -0.237   4.194   0.075  0.00  0.00    -0.183 N 
ATOM      6  C   UNL     1      -1.233   3.214   0.114  0.00  0.00    +0.241 A 
ATOM      7  C   UNL     1      -1.010   1.765   0.135  0.00  0.00    +0.206 A 
ATOM      8  N   UNL     1      -2.171   1.172   0.176  0.00  0.00    -0.032 NA
ATOM      9  O   UNL     1      -3.171   2.176   0.177  0.00  0.00    -0.239 OA
ATOM     10  N   UNL     1      -2.517   3.432   0.133  0.00  0.00    -0.027 NA
ATOM     11  N   UNL     1       0.228   1.132   0.120  0.00  0.00    -0.337 N 
ATOM     12  H   UNL     1       0.284   0.033   0.139  0.00  0.00    +0.144 HD
ATOM     13  H   UNL     1       1.151   1.729   0.089  0.00  0.00    +0.144 HD
ENDROOT
BRANCH   1  15
ATOM     14  N   UNL     1      -2.383   6.647   0.935  0.00  0.00    -0.201 N 
ATOM     15  C   UNL     1      -1.727   6.247  -0.172  0.00  0.00    +0.284 C 
ATOM     16  O   UNL     1      -2.200   6.464  -1.271  0.00  0.00    -0.267 OA
ATOM     17  H   UNL     1      -1.917   6.526   1.925  0.00  0.00    +0.178 HD
BRANCH  14  20
ATOM     18  C   UNL     1      -3.719   7.293   3.256  0.00  0.00    +0.068 C 
ATOM     19  C   UNL     1      -4.336   7.501   1.897  0.00  0.00    +0.063 C 
ATOM     20  N   UNL     1      -3.658   7.218   0.827  0.00  0.00    -0.184 NA
BRANCH  19  21
ATOM     21  C   UNL     1      -5.709   8.024   1.782  0.00  0.00    -0.002 A 
ATOM     22  C   UNL     1      -6.444   8.323   2.932  0.00  0.00    +0.011 A 
ATOM     23  C   UNL     1      -7.727   8.818   2.818  0.00  0.00    +0.020 A 
ATOM     24  C   UNL     1      -8.290   9.006   1.567  0.00  0.00    +0.041 A 
ATOM     25  C   UNL     1      -7.569   8.707   0.423  0.00  0.00    +0.020 A 
ATOM     26  C   UNL     1      -6.284   8.217   0.523  0.00  0.00    +0.011 A 
ATOM     27 CL   UNL     1      -9.908   9.622   1.432  0.00  0.00    -0.084 Cl
ENDBRANCH  19  21
ENDBRANCH  14  20
ENDBRANCH   1  15
BRANCH   2  28
ATOM     28  C   UNL     1       1.145   7.574  -0.145  0.00  0.00    -0.018 C 
BRANCH  28  29
ATOM     29  N   UNL     1       1.312   7.936  -1.559  0.00  0.00    +0.383 N 
ATOM     30  C   UNL     1       2.481   7.263  -2.140  0.00  0.00    -0.078 C 
ATOM     31  C   UNL     1       2.540   7.546  -3.643  0.00  0.00    -0.019 C 
ATOM     32  C   UNL     1       2.633   9.058  -3.869  0.00  0.00    -0.004 C 
ATOM     33  C   UNL     1       1.429   9.739  -3.213  0.00  0.00    -0.019 C 
ATOM     34  C   UNL     1       1.402   9.393  -1.723  0.00  0.00    -0.078 C 
ATOM     35  H   UNL     1       0.421   7.592  -2.106  0.00  0.00    -0.081 HD
ENDBRANCH  28  29
ENDBRANCH   2  28
TORSDOF 5
