REMARK  Name = ZINC32316314
REMARK  11 active torsions:
REMARK  status: ('A' for Active; 'I' for Inactive)
REMARK    1  A    between atoms: C_1  and  C_2
REMARK    2  A    between atoms: C_2  and  N_3
REMARK    3  A    between atoms: N_3  and  C_4
REMARK    4  A    between atoms: N_3  and  C_6
REMARK    5  A    between atoms: C_4  and  C_5
REMARK    6  A    between atoms: C_6  and  C_8
REMARK    7  A    between atoms: C_6  and  C_27
REMARK    8  A    between atoms: C_8  and  N_9
REMARK    9  A    between atoms: C_10  and  C_12
REMARK   10  A    between atoms: C_12  and  N_13
REMARK   11  A    between atoms: C_21  and  C_23
REMARK                            x       y       z     vdW  Elec       q    Type
REMARK                         _______ _______ _______ _____ _____    ______ ____
ROOT
ATOM      1  N   UNL     1       5.630   3.251   1.476  0.00  0.00    -0.315 N 
ATOM      2  C   UNL     1       6.129   4.122   2.375  0.00  0.00    +0.231 C 
ATOM      3  O   UNL     1       5.519   5.136   2.640  0.00  0.00    -0.274 OA
ATOM      4  H   UNL     1       6.183   2.331   1.236  0.00  0.00    +0.149 HD
ENDROOT
BRANCH   1   5
ATOM      5  C   UNL     1       4.350   3.529   0.820  0.00  0.00    +0.093 C 
BRANCH   5   6
ATOM      6  C   UNL     1       4.103   2.489  -0.276  0.00  0.00    -0.019 C 
BRANCH   6   7
ATOM      7  C   UNL     1       3.339   3.125  -1.408  0.00  0.00    -0.041 A 
ATOM      8  C   UNL     1       1.962   3.226  -1.343  0.00  0.00    +0.003 A 
ATOM      9  C   UNL     1       1.260   3.809  -2.381  0.00  0.00    +0.000 A 
ATOM     10  C   UNL     1       1.936   4.288  -3.489  0.00  0.00    +0.001 A 
ATOM     11  C   UNL     1       3.313   4.193  -3.553  0.00  0.00    +0.020 A 
ATOM     12  C   UNL     1       4.015   3.609  -2.514  0.00  0.00    +0.043 A 
ATOM     13 CL   UNL     1       5.745   3.482  -2.597  0.00  0.00    -0.083 Cl
ENDBRANCH   6   7
BRANCH   6  14
ATOM     14  N   UNL     1       3.323   1.373   0.275  0.00  0.00    +0.385 N 
ATOM     15  H   UNL     1       2.272   1.691   0.333  0.00  0.00    -0.081 HD
BRANCH  14  17
ATOM     16  C   UNL     1       2.476   0.412  -1.812  0.00  0.00    -0.017 C 
ATOM     17  C   UNL     1       3.391   0.199  -0.604  0.00  0.00    -0.081 C 
ENDBRANCH  14  17
BRANCH  14  18
ATOM     18  C   UNL     1       3.769   1.040   1.635  0.00  0.00    -0.081 C 
ATOM     19  C   UNL     1       2.553   0.730   2.509  0.00  0.00    -0.017 C 
ENDBRANCH  14  18
ENDBRANCH   6  14
ENDBRANCH   5   6
ENDBRANCH   1   5
BRANCH   2  20
ATOM     20  C   UNL     1       7.445   3.837   3.051  0.00  0.00    +0.213 C 
BRANCH  20  21
ATOM     21  N   UNL     1       7.766   4.926   3.976  0.00  0.00    -0.215 N 
ATOM     22  C   UNL     1       8.473   6.025   3.638  0.00  0.00    +0.247 C 
ATOM     23  O   UNL     1       8.945   6.288   2.553  0.00  0.00    -0.273 OA
ATOM     24  C   UNL     1       8.550   6.858   4.896  0.00  0.00    +0.115 C 
ATOM     25  C   UNL     1      10.003   7.043   5.320  0.00  0.00    +0.035 C 
ATOM     26  C   UNL     1      10.059   7.857   6.615  0.00  0.00    +0.003 C 
ATOM     27  C   UNL     1       9.399   9.219   6.389  0.00  0.00    +0.000 C 
ATOM     28  C   UNL     1       7.936   9.018   5.985  0.00  0.00    +0.006 C 
ATOM     29  C   UNL     1       7.873   8.208   4.688  0.00  0.00    +0.018 C 
ATOM     30  C   UNL     1       6.411   7.990   4.294  0.00  0.00    +0.010 C 
ATOM     31  N   UNL     1       7.820   6.066   5.894  0.00  0.00    -0.285 N 
ATOM     32  C   UNL     1       7.399   4.953   5.263  0.00  0.00    +0.310 C 
ATOM     33  O   UNL     1       6.757   4.073   5.801  0.00  0.00    -0.252 OA
ATOM     34  H   UNL     1       7.718   6.438   6.924  0.00  0.00    +0.151 HD
ENDBRANCH  20  21
ENDBRANCH   2  20
TORSDOF 8
