REMARK  Name = ZINC62674229
REMARK  8 active torsions:
REMARK  status: ('A' for Active; 'I' for Inactive)
REMARK    1  A    between atoms: C_1  and  C_2
REMARK    2  A    between atoms: C_5  and  C_25
REMARK    3  A    between atoms: C_6  and  S_8
REMARK    4  A    between atoms: S_8  and  N_11
REMARK    5  A    between atoms: C_12  and  C_14
REMARK    6  A    between atoms: C_14  and  N_15
REMARK    7  A    between atoms: N_15  and  C_16
REMARK    8  A    between atoms: C_21  and  N_22
REMARK                            x       y       z     vdW  Elec       q    Type
REMARK                         _______ _______ _______ _____ _____    ______ ____
ROOT
ATOM      1  N   UNL     1      -1.047  -4.557   2.214  0.00  0.00    -0.089 NA
ATOM      2  C   UNL     1      -1.260  -5.317   3.235  0.00  0.00    +0.281 C 
ATOM      3  O   UNL     1      -0.256  -5.594   4.092  0.00  0.00    -0.268 OA
ENDROOT
BRANCH   1   4
ATOM      4  S   UNL     1       0.461  -3.922   1.956  0.00  0.00    +0.102 S 
ATOM      5  O   UNL     1       1.319  -5.017   1.667  0.00  0.00    -0.146 OA
ATOM      6  O   UNL     1       0.710  -3.020   3.025  0.00  0.00    -0.146 OA
BRANCH   4  12
ATOM      7  C   UNL     1       0.697   0.671  -0.529  0.00  0.00    +0.044 C 
ATOM      8  C   UNL     1       0.490  -0.820  -0.599  0.00  0.00    -0.049 A 
ATOM      9  C   UNL     1       0.232  -1.426  -1.814  0.00  0.00    +0.004 A 
ATOM     10  C   UNL     1       0.043  -2.794  -1.878  0.00  0.00    +0.005 A 
ATOM     11  C   UNL     1       0.113  -3.556  -0.727  0.00  0.00    -0.024 A 
ATOM     12  C   UNL     1       0.372  -2.950   0.488  0.00  0.00    +0.116 A 
ATOM     13  C   UNL     1       0.565  -1.583   0.552  0.00  0.00    +0.032 A 
ATOM     14  C   UNL     1      -0.095  -5.047  -0.796  0.00  0.00    +0.046 C 
ENDBRANCH   4  12
ENDBRANCH   1   4
BRANCH   2  15
ATOM     15  C   UNL     1      -2.632  -5.895   3.470  0.00  0.00    +0.204 C 
BRANCH  15  16
ATOM     16  N   UNL     1      -3.538  -5.449   2.409  0.00  0.00    -0.333 N 
ATOM     17  H   UNL     1      -3.211  -4.870   1.703  0.00  0.00    +0.147 HD
BRANCH  16  18
ATOM     18  C   UNL     1      -4.873  -5.859   2.413  0.00  0.00    +0.058 A 
ATOM     19  C   UNL     1      -5.315  -6.785   3.350  0.00  0.00    +0.025 A 
ATOM     20  C   UNL     1      -6.636  -7.187   3.352  0.00  0.00    +0.002 A 
ATOM     21  C   UNL     1      -7.519  -6.670   2.422  0.00  0.00    +0.002 A 
ATOM     22  C   UNL     1      -7.083  -5.750   1.487  0.00  0.00    +0.034 A 
ATOM     23  C   UNL     1      -5.764  -5.338   1.484  0.00  0.00    +0.147 A 
BRANCH  23  24
ATOM     24  N   UNL     1      -5.300  -4.348   0.486  0.00  0.00    +0.058 N 
ATOM     25  O   UNL     1      -4.490  -3.507   0.801  0.00  0.00    -0.126 OA
ATOM     26  O   UNL     1      -5.730  -4.380  -0.643  0.00  0.00    -0.126 OA
ENDBRANCH  23  24
ENDBRANCH  16  18
ENDBRANCH  15  16
ENDBRANCH   2  15
TORSDOF 6
