REMARK  Name = ZINC46024227
REMARK  7 active torsions:
REMARK  status: ('A' for Active; 'I' for Inactive)
REMARK    1  A    between atoms: C_1  and  C_2
REMARK    2  A    between atoms: C_2  and  C_3
REMARK    3  A    between atoms: C_2  and  C_4
REMARK    4  A    between atoms: C_2  and  C_5
REMARK    5  A    between atoms: C_11  and  N_13
REMARK    6  A    between atoms: N_16  and  N_17
REMARK    7  A    between atoms: N_20  and  C_21
REMARK                            x       y       z     vdW  Elec       q    Type
REMARK                         _______ _______ _______ _____ _____    ______ ____
ROOT
ATOM      1  N   UNL     1       2.484  -1.423  -0.260  0.00  0.00    -0.295 N 
ATOM      2  C   UNL     1       3.727  -1.043   0.094  0.00  0.00    +0.316 C 
ATOM      3  O   UNL     1       4.315  -0.203  -0.558  0.00  0.00    -0.251 OA
ATOM      4  N   UNL     1       4.319  -1.595   1.173  0.00  0.00    -0.217 N 
ATOM      5  H   UNL     1       2.015  -2.094   0.260  0.00  0.00    +0.151 HD
ATOM      6  H   UNL     1       5.213  -1.321   1.428  0.00  0.00    +0.174 HD
ENDROOT
BRANCH   1  12
ATOM      7  C   UNL     1       0.325  -0.803  -1.228  0.00  0.00    +0.015 C 
ATOM      8  C   UNL     1      -0.347  -0.177  -2.451  0.00  0.00    +0.006 C 
ATOM      9  C   UNL     1      -0.011  -1.003  -3.695  0.00  0.00    +0.000 C 
ATOM     10  C   UNL     1       1.505  -1.023  -3.900  0.00  0.00    +0.002 C 
ATOM     11  C   UNL     1       2.176  -1.649  -2.676  0.00  0.00    +0.022 C 
ATOM     12  C   UNL     1       1.841  -0.824  -1.432  0.00  0.00    +0.078 C 
BRANCH   7  14
ATOM     13  C   UNL     1       0.640   1.402  -0.096  0.00  0.00    +0.011 C 
ATOM     14  C   UNL     1      -0.011   0.022   0.016  0.00  0.00    -0.033 C 
ATOM     15  C   UNL     1       0.520  -0.692   1.261  0.00  0.00    +0.011 C 
ATOM     16  C   UNL     1      -1.528   0.181   0.129  0.00  0.00    +0.011 C 
ENDBRANCH   7  14
ENDBRANCH   1  12
BRANCH   4  17
ATOM     17  N   UNL     1       3.641  -2.563   1.924  0.00  0.00    -0.217 N 
ATOM     18  C   UNL     1       4.233  -3.115   3.002  0.00  0.00    +0.320 C 
ATOM     19  O   UNL     1       3.645  -3.956   3.655  0.00  0.00    -0.251 OA
ATOM     20  N   UNL     1       5.476  -2.735   3.357  0.00  0.00    -0.268 N 
ATOM     21  H   UNL     1       2.746  -2.837   1.669  0.00  0.00    +0.174 HD
ATOM     22  H   UNL     1       5.973  -2.118   2.797  0.00  0.00    +0.156 HD
BRANCH  20  23
ATOM     23  C   UNL     1       6.050  -3.230   4.534  0.00  0.00    +0.035 A 
ATOM     24  C   UNL     1       6.871  -2.416   5.303  0.00  0.00    +0.023 A 
ATOM     25  C   UNL     1       7.436  -2.907   6.464  0.00  0.00    +0.002 A 
ATOM     26  C   UNL     1       7.186  -4.208   6.859  0.00  0.00    +0.000 A 
ATOM     27  C   UNL     1       6.370  -5.021   6.095  0.00  0.00    +0.002 A 
ATOM     28  C   UNL     1       5.796  -4.534   4.937  0.00  0.00    +0.023 A 
ENDBRANCH  20  23
ENDBRANCH   4  17
TORSDOF 4
