REMARK  Name = ZINC11228663
REMARK  5 active torsions:
REMARK  status: ('A' for Active; 'I' for Inactive)
REMARK    1  A    between atoms: C_2  and  C_26
REMARK    2  A    between atoms: C_4  and  N_10
REMARK    3  A    between atoms: C_6  and  C_7
REMARK    4  A    between atoms: C_11  and  C_13
REMARK    5  A    between atoms: C_13  and  N_14
REMARK                            x       y       z     vdW  Elec       q    Type
REMARK                         _______ _______ _______ _____ _____    ______ ____
ROOT
ATOM      1  N   UNL     1      -0.069   5.261   0.031  0.00  0.00    -0.284 N 
ATOM      2  C   UNL     1      -1.242   5.920  -0.056  0.00  0.00    +0.235 C 
ATOM      3  O   UNL     1      -2.286   5.303  -0.049  0.00  0.00    -0.274 OA
ATOM      4  H   UNL     1       0.761   5.757   0.102  0.00  0.00    +0.155 HD
ENDROOT
BRANCH   1   8
ATOM      5  C   UNL     1      -0.012   1.076  -0.008  0.00  0.00    +0.026 A 
ATOM      6  C   UNL     1       0.925   1.780   0.746  0.00  0.00    +0.039 A 
ATOM      7  C   UNL     1       0.906   3.176   0.752  0.00  0.00    +0.036 A 
ATOM      8  C   UNL     1      -0.050   3.862   0.018  0.00  0.00    +0.035 A 
ATOM      9  C   UNL     1      -0.987   3.163  -0.729  0.00  0.00    +0.036 A 
ATOM     10  C   UNL     1      -0.971   1.768  -0.744  0.00  0.00    +0.039 A 
BRANCH  10  11
ATOM     11  C   UNL     1      -1.971   1.024  -1.540  0.00  0.00    +0.242 C 
ATOM     12  O   UNL     1      -2.808   1.629  -2.183  0.00  0.00    -0.270 OA
ATOM     13  N   UNL     1      -1.955  -0.323  -1.554  0.00  0.00    -0.325 N 
ATOM     14  H   UNL     1      -1.287  -0.805  -1.041  0.00  0.00    +0.145 HD
ATOM     15  H   UNL     1      -2.611  -0.811  -2.076  0.00  0.00    +0.145 HD
ENDBRANCH  10  11
BRANCH   6  16
ATOM     16  C   UNL     1       1.941   1.050   1.534  0.00  0.00    +0.242 C 
ATOM     17  O   UNL     1       2.757   1.665   2.192  0.00  0.00    -0.270 OA
ATOM     18  N   UNL     1       1.961  -0.298   1.524  0.00  0.00    -0.325 N 
ATOM     19  H   UNL     1       1.309  -0.788   1.000  0.00  0.00    +0.145 HD
ATOM     20  H   UNL     1       2.627  -0.777   2.041  0.00  0.00    +0.145 HD
ENDBRANCH   6  16
ENDBRANCH   1   8
BRANCH   2  21
ATOM     21  C   UNL     1      -1.256   7.423  -0.162  0.00  0.00    +0.212 C 
BRANCH  21  22
ATOM     22  N   UNL     1      -2.641   7.894  -0.243  0.00  0.00    -0.233 N 
ATOM     23  C   UNL     1      -3.366   8.206   0.839  0.00  0.00    +0.223 C 
ATOM     24  O   UNL     1      -2.979   8.140   1.986  0.00  0.00    -0.275 OA
ATOM     25  C   UNL     1      -4.744   8.655   0.402  0.00  0.00    +0.112 C 
ATOM     26  C   UNL     1      -4.685   8.545  -1.131  0.00  0.00    +0.056 C 
ATOM     27  C   UNL     1      -3.286   8.053  -1.407  0.00  0.00    +0.229 C 
ATOM     28  O   UNL     1      -2.821   7.836  -2.506  0.00  0.00    -0.275 OA
ATOM     29  C   UNL     1      -4.906   9.913  -1.766  0.00  0.00    +0.016 C 
ATOM     30  C   UNL     1      -4.824   9.790  -3.290  0.00  0.00    +0.001 C 
ATOM     31  C   UNL     1      -5.886   8.804  -3.779  0.00  0.00    +0.000 C 
ATOM     32  C   UNL     1      -5.635   7.431  -3.152  0.00  0.00    +0.001 C 
ATOM     33  C   UNL     1      -5.721   7.543  -1.628  0.00  0.00    +0.016 C 
ENDBRANCH  21  22
ENDBRANCH   2  21
TORSDOF 5
