REMARK  Name = ZINC20487993
REMARK  9 active torsions:
REMARK  status: ('A' for Active; 'I' for Inactive)
REMARK    1  A    between atoms: C_1  and  C_2
REMARK    2  A    between atoms: C_5  and  N_9
REMARK    3  A    between atoms: C_6  and  C_8
REMARK    4  A    between atoms: C_10  and  C_12
REMARK    5  A    between atoms: N_17  and  S_19
REMARK    6  A    between atoms: S_19  and  C_22
REMARK    7  A    between atoms: C_28  and  C_33
REMARK    8  A    between atoms: C_28  and  C_34
REMARK    9  A    between atoms: N_31  and  C_32
REMARK                            x       y       z     vdW  Elec       q    Type
REMARK                         _______ _______ _______ _____ _____    ______ ____
ROOT
ATOM      1  C   UNL     1       6.355  -0.805  -2.973  0.00  0.00    +0.091 C 
ATOM      2  C   UNL     1       5.875  -1.963  -3.851  0.00  0.00    +0.015 C 
ATOM      3  C   UNL     1       5.113  -2.975  -2.992  0.00  0.00    +0.018 C 
ATOM      4  C   UNL     1       3.891  -2.297  -2.375  0.00  0.00    +0.109 C 
ATOM      5  N   UNL     1       4.326  -1.095  -1.650  0.00  0.00    -0.176 NA
ATOM      6  C   UNL     1       5.142  -0.100  -2.357  0.00  0.00    +0.122 C 
ENDROOT
BRANCH   1   8
ATOM      7  N   UNL     1       8.247  -0.226  -4.457  0.00  0.00    -0.285 N 
ATOM      8  C   UNL     1       7.133   0.175  -3.814  0.00  0.00    +0.222 C 
ATOM      9  O   UNL     1       6.756   1.323  -3.912  0.00  0.00    -0.275 OA
ATOM     10  H   UNL     1       8.640  -1.240  -4.297  0.00  0.00    +0.155 HD
BRANCH   7  15
ATOM     11  C   UNL     1      10.913   3.323  -7.991  0.00  0.00    +0.044 C 
ATOM     12  C   UNL     1      10.205   2.381  -7.052  0.00  0.00    -0.050 A 
ATOM     13  C   UNL     1       8.856   2.546  -6.796  0.00  0.00    +0.005 A 
ATOM     14  C   UNL     1       8.204   1.684  -5.936  0.00  0.00    +0.024 A 
ATOM     15  C   UNL     1       8.905   0.650  -5.329  0.00  0.00    +0.036 A 
ATOM     16  C   UNL     1      10.260   0.490  -5.584  0.00  0.00    -0.029 A 
ATOM     17  C   UNL     1      10.905   1.352  -6.449  0.00  0.00    +0.008 A 
ATOM     18  C   UNL     1      11.026  -0.626  -4.921  0.00  0.00    +0.045 C 
ENDBRANCH   7  15
ENDBRANCH   1   8
BRANCH   5  19
ATOM     19  S   UNL     1       3.909  -0.871  -0.063  0.00  0.00    +0.061 S 
ATOM     20  O   UNL     1       4.883   0.002   0.493  0.00  0.00    -0.153 OA
ATOM     21  O   UNL     1       3.645  -2.159   0.474  0.00  0.00    -0.153 OA
BRANCH  19  22
ATOM     22  C   UNL     1       2.380   0.005  -0.045  0.00  0.00    +0.106 A 
ATOM     23  C   UNL     1       1.183  -0.689  -0.047  0.00  0.00    +0.030 A 
ATOM     24  C   UNL     1      -0.017  -0.010  -0.033  0.00  0.00    +0.026 A 
ATOM     25  C   UNL     1      -0.032   1.383  -0.017  0.00  0.00    +0.040 A 
ATOM     26  C   UNL     1       1.176   2.069  -0.015  0.00  0.00    -0.010 A 
ATOM     27  C   UNL     1       2.373   1.389  -0.029  0.00  0.00    +0.035 A 
ATOM     28  C   UNL     1       0.830   3.540   0.003  0.00  0.00    +0.068 C 
ATOM     29  C   UNL     1      -0.684   3.562   0.011  0.00  0.00    +0.230 C 
ATOM     30  O   UNL     1      -1.390   4.548   0.025  0.00  0.00    -0.274 OA
ATOM     31  N   UNL     1      -1.098   2.284  -0.007  0.00  0.00    -0.273 N 
ATOM     32  C   UNL     1      -2.507   1.882  -0.012  0.00  0.00    +0.138 C 
ATOM     33  C   UNL     1       1.382   4.205   1.266  0.00  0.00    +0.025 C 
ATOM     34  C   UNL     1       1.370   4.234  -1.249  0.00  0.00    +0.025 C 
ENDBRANCH  19  22
ENDBRANCH   5  19
TORSDOF 4
