REMARK  Name = ZINC36536002
REMARK  11 active torsions:
REMARK  status: ('A' for Active; 'I' for Inactive)
REMARK    1  A    between atoms: C_1  and  C_2
REMARK    2  A    between atoms: C_5  and  S_8
REMARK    3  A    between atoms: S_8  and  C_11
REMARK    4  A    between atoms: C_11  and  N_12
REMARK    5  A    between atoms: C_13  and  C_15
REMARK    6  A    between atoms: C_15  and  C_17
REMARK    7  A    between atoms: C_15  and  N_23
REMARK    8  A    between atoms: N_23  and  C_24
REMARK    9  A    between atoms: C_25  and  C_27
REMARK   10  A    between atoms: C_27  and  C_28
REMARK   11  A    between atoms: C_27  and  C_34
REMARK                            x       y       z     vdW  Elec       q    Type
REMARK                         _______ _______ _______ _____ _____    ______ ____
ROOT
ATOM      1  C   UNL     1       4.547  -5.266   3.291  0.00  0.00    +0.165 C 
ENDROOT
BRANCH   1   2
ATOM      2  C   UNL     1       5.909  -4.568   3.260  0.00  0.00    +0.018 C 
ATOM      3  C   UNL     1       6.139  -3.841   4.587  0.00  0.00    +0.006 C 
ATOM      4  C   UNL     1       7.500  -3.144   4.556  0.00  0.00    +0.000 C 
ATOM      5  C   UNL     1       7.529  -2.132   3.408  0.00  0.00    +0.000 C 
ATOM      6  C   UNL     1       7.299  -2.859   2.082  0.00  0.00    +0.000 C 
ATOM      7  C   UNL     1       5.937  -3.557   2.112  0.00  0.00    +0.006 C 
ENDBRANCH   1   2
BRANCH   1   9
ATOM      8  N   UNL     1       3.903  -5.467   0.911  0.00  0.00    -0.295 N 
ATOM      9  C   UNL     1       4.364  -6.066   2.027  0.00  0.00    +0.235 C 
ATOM     10  O   UNL     1       4.632  -7.249   2.014  0.00  0.00    -0.274 OA
ATOM     11  H   UNL     1       3.617  -4.541   0.941  0.00  0.00    +0.150 HD
BRANCH   8  12
ATOM     12  C   UNL     1       3.833  -6.216  -0.346  0.00  0.00    +0.278 C 
BRANCH  12  13
ATOM     13  S   UNL     1       2.167  -6.905  -0.548  0.00  0.00    +0.013 S 
ATOM     14  O   UNL     1       1.749  -7.535   0.655  0.00  0.00    -0.168 OA
ATOM     15  O   UNL     1       2.064  -7.581  -1.794  0.00  0.00    -0.168 OA
BRANCH  13  20
ATOM     16  C   UNL     1      -1.444  -2.103  -1.102  0.00  0.00    +0.044 C 
ATOM     17  C   UNL     1      -0.542  -3.302  -0.964  0.00  0.00    -0.050 A 
ATOM     18  C   UNL     1       0.025  -3.873  -2.087  0.00  0.00    +0.005 A 
ATOM     19  C   UNL     1       0.853  -4.973  -1.960  0.00  0.00    +0.027 A 
ATOM     20  C   UNL     1       1.113  -5.502  -0.710  0.00  0.00    +0.090 A 
ATOM     21  C   UNL     1       0.547  -4.930   0.414  0.00  0.00    +0.027 A 
ATOM     22  C   UNL     1      -0.277  -3.827   0.287  0.00  0.00    +0.005 A 
ENDBRANCH  13  20
ENDBRANCH  12  13
ENDBRANCH   8  12
ENDBRANCH   1   9
BRANCH   1  23
ATOM     23  N   UNL     1       4.483  -6.161   4.449  0.00  0.00    -0.292 N 
ATOM     24  C   UNL     1       5.446  -7.257   4.582  0.00  0.00    +0.133 C 
ATOM     25  C   UNL     1       3.539  -5.976   5.392  0.00  0.00    +0.228 C 
ATOM     26  O   UNL     1       2.679  -5.135   5.233  0.00  0.00    -0.275 OA
BRANCH  25  27
ATOM     27  C   UNL     1       3.550  -6.813   6.645  0.00  0.00    +0.135 C 
BRANCH  27  28
ATOM     28  C   UNL     1       2.519  -6.288   7.610  0.00  0.00    -0.031 A 
ATOM     29  C   UNL     1       1.173  -6.397   7.310  0.00  0.00    +0.005 A 
ATOM     30  C   UNL     1       0.227  -5.915   8.195  0.00  0.00    +0.000 A 
ATOM     31  C   UNL     1       0.626  -5.326   9.380  0.00  0.00    +0.000 A 
ATOM     32  C   UNL     1       1.971  -5.218   9.681  0.00  0.00    +0.000 A 
ATOM     33  C   UNL     1       2.917  -5.704   8.797  0.00  0.00    +0.005 A 
ENDBRANCH  27  28
BRANCH  27  34
ATOM     34  C   UNL     1       3.230  -8.244   6.296  0.00  0.00    -0.031 A 
ATOM     35  C   UNL     1       3.957  -9.273   6.864  0.00  0.00    +0.005 A 
ATOM     36  C   UNL     1       3.663 -10.585   6.543  0.00  0.00    +0.000 A 
ATOM     37  C   UNL     1       2.642 -10.868   5.656  0.00  0.00    +0.000 A 
ATOM     38  C   UNL     1       1.914  -9.839   5.089  0.00  0.00    +0.000 A 
ATOM     39  C   UNL     1       2.205  -8.527   5.412  0.00  0.00    +0.005 A 
ENDBRANCH  27  34
ENDBRANCH  25  27
ENDBRANCH   1  23
TORSDOF 9
