REMARK  Name = ZINC01534898
REMARK  8 active torsions:
REMARK  status: ('A' for Active; 'I' for Inactive)
REMARK    1  A    between atoms: C_1  and  C_2
REMARK    2  A    between atoms: C_5  and  S_8
REMARK    3  A    between atoms: S_8  and  N_11
REMARK    4  A    between atoms: C_13  and  C_20
REMARK    5  A    between atoms: C_20  and  C_21
REMARK    6  A    between atoms: C_21  and  C_22
REMARK    7  A    between atoms: C_22  and  C_23
REMARK    8  A    between atoms: C_23  and  N_71
REMARK                            x       y       z     vdW  Elec       q    Type
REMARK                         _______ _______ _______ _____ _____    ______ ____
ROOT
ATOM      1  N   UNL     1       1.564  -2.011  -0.023  0.00  0.00    -0.218 N 
ATOM      2  C   UNL     1       2.926  -2.139  -0.037  0.00  0.00    +0.116 A 
ATOM      3  C   UNL     1       3.499  -0.925  -0.036  0.00  0.00    -0.020 A 
ATOM      4  C   UNL     1       2.416   0.060  -0.021  0.00  0.00    +0.005 A 
ATOM      5  C   UNL     1       1.218  -0.678  -0.013  0.00  0.00    +0.072 A 
ATOM      6  C   UNL     1       0.002  -0.004   0.002  0.00  0.00    +0.028 A 
ATOM      7  C   UNL     1      -0.017   1.374   0.010  0.00  0.00    +0.002 A 
ATOM      8  C   UNL     1       1.167   2.098   0.002  0.00  0.00    +0.001 A 
ATOM      9  C   UNL     1       2.374   1.456  -0.013  0.00  0.00    +0.010 A 
ENDROOT
BRANCH   1  10
ATOM     10  S   UNL     1       0.490  -3.272  -0.020  0.00  0.00    +0.084 S 
ATOM     11  O   UNL     1      -0.465  -2.995  -1.035  0.00  0.00    -0.148 OA
ATOM     12  O   UNL     1       1.263  -4.464  -0.006  0.00  0.00    -0.148 OA
BRANCH  10  17
ATOM     13  C   UNL     1      -2.472  -3.077   5.234  0.00  0.00    +0.044 C 
ATOM     14  C   UNL     1      -1.733  -3.126   3.921  0.00  0.00    -0.050 A 
ATOM     15  C   UNL     1      -2.224  -2.442   2.825  0.00  0.00    +0.005 A 
ATOM     16  C   UNL     1      -1.545  -2.487   1.622  0.00  0.00    +0.029 A 
ATOM     17  C   UNL     1      -0.375  -3.215   1.514  0.00  0.00    +0.111 A 
ATOM     18  C   UNL     1       0.113  -3.904   2.609  0.00  0.00    +0.029 A 
ATOM     19  C   UNL     1      -0.563  -3.855   3.814  0.00  0.00    +0.005 A 
ENDBRANCH  10  17
ENDBRANCH   1  10
BRANCH   3  20
ATOM     20  C   UNL     1       4.978  -0.633  -0.048  0.00  0.00    +0.037 C 
BRANCH  20  21
ATOM     21  C   UNL     1       5.466  -0.418   1.386  0.00  0.00    +0.003 C 
BRANCH  21  22
ATOM     22  C   UNL     1       6.967  -0.120   1.374  0.00  0.00    -0.018 C 
BRANCH  22  23
ATOM     23  C   UNL     1       7.456   0.095   2.808  0.00  0.00    -0.079 C 
BRANCH  23  37
ATOM     24  C   UNL     1       9.230   1.365   1.760  0.00  0.00    -0.076 C 
ATOM     25  C   UNL     1      10.751   1.521   1.674  0.00  0.00    +0.021 C 
ATOM     26  C   UNL     1      11.290   1.965   3.033  0.00  0.00    +0.092 C 
ATOM     27  C   UNL     1      10.881   0.962   4.110  0.00  0.00    +0.021 C 
ATOM     28  C   UNL     1       9.356   0.824   4.120  0.00  0.00    -0.076 C 
ATOM     29  C   UNL     1      12.791   2.095   2.984  0.00  0.00    -0.011 A 
ATOM     30  C   UNL     1      13.784   1.310   2.436  0.00  0.00    +0.007 A 
ATOM     31  C   UNL     1      15.108   1.692   2.550  0.00  0.00    +0.000 A 
ATOM     32  C   UNL     1      15.437   2.861   3.211  0.00  0.00    +0.000 A 
ATOM     33  C   UNL     1      14.442   3.649   3.760  0.00  0.00    +0.006 A 
ATOM     34  C   UNL     1      13.121   3.268   3.647  0.00  0.00    -0.016 A 
ATOM     35  C   UNL     1      11.830   3.892   4.124  0.00  0.00    +0.196 C 
ATOM     36  O   UNL     1      10.781   3.268   3.360  0.00  0.00    -0.364 OA
ATOM     37  N   UNL     1       8.910   0.354   2.790  0.00  0.00    +0.380 N 
ATOM     38  H   UNL     1       9.402  -0.519   2.564  0.00  0.00    -0.082 HD
ENDBRANCH  23  37
ENDBRANCH  22  23
ENDBRANCH  21  22
ENDBRANCH  20  21
ENDBRANCH   3  20
TORSDOF 7
