REMARK  Name = ZINC33937066
REMARK  12 active torsions:
REMARK  status: ('A' for Active; 'I' for Inactive)
REMARK    1  A    between atoms: C_1  and  C_2
REMARK    2  A    between atoms: C_2  and  C_3
REMARK    3  A    between atoms: C_3  and  C_5
REMARK    4  A    between atoms: C_3  and  N_17
REMARK    5  A    between atoms: N_9  and  C_10
REMARK    6  A    between atoms: C_10  and  C_11
REMARK    7  A    between atoms: N_17  and  C_18
REMARK    8  A    between atoms: N_17  and  C_26
REMARK    9  A    between atoms: C_18  and  C_19
REMARK   10  A    between atoms: C_26  and  C_27
REMARK   11  A    between atoms: C_30  and  C_40
REMARK   12  A    between atoms: C_33  and  C_39
REMARK                            x       y       z     vdW  Elec       q    Type
REMARK                         _______ _______ _______ _____ _____    ______ ____
ROOT
ATOM      1  N   UNL     1      -1.800   0.367  -0.965  0.00  0.00    +0.392 N 
ATOM      2  H   UNL     1      -1.236   0.585  -1.774  0.00  0.00    -0.080 HD
ENDROOT
BRANCH   1   3
ATOM      3  C   UNL     1      -1.413  -0.949  -0.440  0.00  0.00    +0.003 C 
BRANCH   3   4
ATOM      4  C   UNL     1       0.067  -1.154  -0.639  0.00  0.00    +0.138 A 
ATOM      5  N   UNL     1       0.949  -0.237  -0.952  0.00  0.00    -0.115 NA
ATOM      6  N   UNL     1       2.103  -0.805  -1.030  0.00  0.00    -0.023 NA
ATOM      7  N   UNL     1       1.979  -2.060  -0.775  0.00  0.00    -0.044 NA
ATOM      8  N   UNL     1       0.740  -2.314  -0.523  0.00  0.00    -0.228 N 
BRANCH   8   9
ATOM      9  C   UNL     1       0.171  -3.619  -0.180  0.00  0.00    +0.178 C 
BRANCH   9  10
ATOM     10  C   UNL     1      -0.252  -4.344  -1.459  0.00  0.00    +0.140 C 
ATOM     11  C   UNL     1      -0.773  -5.764  -1.126  0.00  0.00    +0.035 C 
ATOM     12  C   UNL     1      -1.698  -6.033  -2.345  0.00  0.00    +0.031 C 
ATOM     13  C   UNL     1      -2.261  -4.628  -2.645  0.00  0.00    +0.160 C 
ATOM     14  O   UNL     1      -1.363  -3.668  -2.071  0.00  0.00    -0.375 OA
ENDBRANCH   9  10
ENDBRANCH   8   9
ENDBRANCH   3   4
BRANCH   3  16
ATOM     15  C   UNL     1      -3.260  -1.002   1.243  0.00  0.00    +0.002 C 
ATOM     16  C   UNL     1      -1.741  -1.018   1.053  0.00  0.00    -0.011 C 
ENDBRANCH   3  16
ENDBRANCH   1   3
BRANCH   1  17
ATOM     17  C   UNL     1      -1.589   1.389   0.069  0.00  0.00    -0.042 C 
BRANCH  17  18
ATOM     18  C   UNL     1      -0.111   1.613   0.259  0.00  0.00    -0.064 A 
ATOM     19  C   UNL     1       0.547   1.015   1.318  0.00  0.00    +0.004 A 
ATOM     20  C   UNL     1       1.903   1.219   1.493  0.00  0.00    +0.038 A 
ATOM     21  C   UNL     1       2.602   2.023   0.609  0.00  0.00    +0.123 A 
ATOM     22  C   UNL     1       1.942   2.621  -0.451  0.00  0.00    +0.038 A 
ATOM     23  C   UNL     1       0.587   2.412  -0.627  0.00  0.00    +0.004 A 
ATOM     24  F   UNL     1       3.927   2.223   0.780  0.00  0.00    -0.205 F 
ENDBRANCH  17  18
ENDBRANCH   1  17
BRANCH   1  25
ATOM     25  C   UNL     1      -3.218   0.344  -1.349  0.00  0.00    -0.036 C 
BRANCH  25  26
ATOM     26  C   UNL     1      -3.562   1.617  -2.079  0.00  0.00    +0.001 A 
ATOM     27  C   UNL     1      -3.535   1.645  -3.435  0.00  0.00    +0.017 A 
ATOM     28  C   UNL     1      -3.874   2.897  -4.114  0.00  0.00    +0.002 A 
ATOM     29  C   UNL     1      -3.865   2.988  -5.510  0.00  0.00    -0.041 A 
ATOM     30  C   UNL     1      -4.187   4.170  -6.114  0.00  0.00    +0.004 A 
ATOM     31  C   UNL     1      -4.524   5.283  -5.354  0.00  0.00    +0.005 A 
ATOM     32  C   UNL     1      -4.540   5.216  -3.978  0.00  0.00    -0.026 A 
ATOM     33  C   UNL     1      -4.216   4.022  -3.341  0.00  0.00    +0.052 A 
ATOM     34  N   UNL     1      -4.224   3.927  -1.966  0.00  0.00    -0.322 N 
ATOM     35  H   UNL     1      -4.460   4.704  -1.434  0.00  0.00    +0.169 HD
ATOM     36  C   UNL     1      -3.916   2.772  -1.351  0.00  0.00    +0.251 A 
ATOM     37  O   UNL     1      -3.939   2.723  -0.133  0.00  0.00    -0.268 OA
ATOM     38  C   UNL     1      -4.906   6.432  -3.166  0.00  0.00    +0.046 C 
ATOM     39  C   UNL     1      -3.500   1.787  -6.344  0.00  0.00    +0.044 C 
ENDBRANCH  25  26
ENDBRANCH   1  25
TORSDOF 9
