REMARK  Name = ZINC49906067
REMARK  2 active torsions:
REMARK  status: ('A' for Active; 'I' for Inactive)
REMARK    1  A    between atoms: C_11  and  C_13
REMARK    2  A    between atoms: C_13  and  C_15
REMARK                            x       y       z     vdW  Elec       q    Type
REMARK                         _______ _______ _______ _____ _____    ______ ____
ROOT
ATOM      1  C   UNL     1      -0.178   1.287   0.441  0.00  0.00    +0.000 A 
ATOM      2  C   UNL     1       0.989   2.029   0.436  0.00  0.00    +0.000 A 
ATOM      3  C   UNL     1       2.206   1.388   0.328  0.00  0.00    +0.005 A 
ATOM      4  C   UNL     1       2.268   0.005   0.227  0.00  0.00    -0.027 A 
ATOM      5  C   UNL     1       1.108  -0.736   0.241  0.00  0.00    -0.041 A 
ATOM      6  C   UNL     1      -0.117  -0.087   0.343  0.00  0.00    +0.004 A 
ATOM      7  C   UNL     1       1.098  -2.240   0.167  0.00  0.00    +0.054 C 
ATOM      8  C   UNL     1       2.410  -2.765  -0.414  0.00  0.00    +0.113 C 
ATOM      9  N   UNL     1       3.516  -2.082   0.277  0.00  0.00    -0.290 N 
ATOM     10  C   UNL     1       3.630  -0.631   0.096  0.00  0.00    +0.143 C 
ATOM     11  C   UNL     1       4.390  -2.763   1.044  0.00  0.00    +0.287 C 
ATOM     12  O   UNL     1       4.221  -3.947   1.251  0.00  0.00    -0.266 OA
ENDROOT
BRANCH  11  13
ATOM     13  C   UNL     1       5.566  -2.062   1.639  0.00  0.00    +0.247 C 
ATOM     14  O   UNL     1       6.582  -1.922   0.990  0.00  0.00    -0.282 OA
BRANCH  13  15
ATOM     15  C   UNL     1       5.493  -1.539   3.014  0.00  0.00    +0.027 A 
ATOM     16  C   UNL     1       4.367  -1.795   3.805  0.00  0.00    +0.013 A 
ATOM     17  C   UNL     1       4.306  -1.303   5.090  0.00  0.00    +0.021 A 
ATOM     18  C   UNL     1       5.356  -0.556   5.601  0.00  0.00    +0.041 A 
ATOM     19  C   UNL     1       6.474  -0.298   4.823  0.00  0.00    +0.021 A 
ATOM     20  C   UNL     1       6.552  -0.789   3.538  0.00  0.00    +0.013 A 
ATOM     21 CL   UNL     1       5.270   0.061   7.221  0.00  0.00    -0.084 Cl
ENDBRANCH  13  15
ENDBRANCH  11  13
TORSDOF 2
