REMARK  Name = ZINC03021660
REMARK  11 active torsions:
REMARK  status: ('A' for Active; 'I' for Inactive)
REMARK    1  A    between atoms: C_1  and  C_2
REMARK    2  A    between atoms: C_2  and  N_3
REMARK    3  A    between atoms: N_3  and  C_4
REMARK    4  A    between atoms: N_3  and  S_6
REMARK    5  A    between atoms: C_4  and  C_5
REMARK    6  A    between atoms: S_6  and  C_9
REMARK    7  A    between atoms: C_20  and  S_23
REMARK    8  A    between atoms: S_23  and  C_24
REMARK    9  A    between atoms: C_24  and  C_25
REMARK   10  A    between atoms: N_27  and  C_28
REMARK   11  A    between atoms: C_33  and  C_34
REMARK                            x       y       z     vdW  Elec       q    Type
REMARK                         _______ _______ _______ _____ _____    ______ ____
ROOT
ATOM      1  C   UNL     1      -0.867   1.867   1.487  0.00  0.00    +0.106 A 
ATOM      2  C   UNL     1      -0.655   3.115   2.051  0.00  0.00    +0.030 A 
ATOM      3  C   UNL     1      -1.369   3.514   3.160  0.00  0.00    +0.028 A 
ATOM      4  C   UNL     1      -2.305   2.658   3.731  0.00  0.00    +0.050 A 
ATOM      5  C   UNL     1      -2.514   1.392   3.163  0.00  0.00    +0.031 A 
ATOM      6  C   UNL     1      -1.790   1.004   2.038  0.00  0.00    +0.040 A 
ATOM      7  C   UNL     1      -3.548   0.735   3.981  0.00  0.00    +0.137 A 
ATOM      8  C   UNL     1      -3.895   1.653   4.994  0.00  0.00    +0.162 A 
ATOM      9  N   UNL     1      -3.143   2.790   4.827  0.00  0.00    -0.338 N 
ATOM     10  H   UNL     1      -3.193   3.574   5.395  0.00  0.00    +0.167 HD
ATOM     11  N   UNL     1      -4.821   1.296   5.878  0.00  0.00    -0.201 NA
ATOM     12  C   UNL     1      -5.385   0.099   5.780  0.00  0.00    +0.212 A 
ATOM     13  N   UNL     1      -5.042  -0.749   4.816  0.00  0.00    -0.122 NA
ATOM     14  N   UNL     1      -4.149  -0.445   3.937  0.00  0.00    -0.143 NA
ENDROOT
BRANCH   1  15
ATOM     15  S   UNL     1       0.051   1.378   0.064  0.00  0.00    +0.061 S 
ATOM     16  O   UNL     1       0.065  -0.043   0.058  0.00  0.00    -0.153 OA
ATOM     17  O   UNL     1       1.243   2.152   0.065  0.00  0.00    -0.153 OA
BRANCH  15  18
ATOM     18  N   UNL     1      -0.818   1.848  -1.265  0.00  0.00    -0.177 NA
BRANCH  18  20
ATOM     19  C   UNL     1       0.402   3.068  -2.998  0.00  0.00    +0.022 C 
ATOM     20  C   UNL     1      -0.603   3.174  -1.849  0.00  0.00    +0.106 C 
ENDBRANCH  18  20
BRANCH  18  21
ATOM     21  C   UNL     1      -1.802   0.938  -1.856  0.00  0.00    +0.106 C 
ATOM     22  C   UNL     1      -3.190   1.251  -1.291  0.00  0.00    +0.022 C 
ENDBRANCH  18  21
ENDBRANCH  15  18
ENDBRANCH   1  15
BRANCH  12  23
ATOM     23  S   UNL     1      -6.613  -0.375   6.951  0.00  0.00    -0.075 S 
BRANCH  23  24
ATOM     24  C   UNL     1      -7.002  -2.035   6.343  0.00  0.00    +0.173 C 
BRANCH  24  25
ATOM     25  C   UNL     1      -8.062  -2.655   7.217  0.00  0.00    +0.227 C 
ATOM     26  O   UNL     1      -8.510  -2.035   8.159  0.00  0.00    -0.275 OA
ATOM     27  N   UNL     1      -8.512  -3.897   6.952  0.00  0.00    -0.285 N 
ATOM     28  H   UNL     1      -8.214  -4.362   6.155  0.00  0.00    +0.155 HD
BRANCH  27  29
ATOM     29  C   UNL     1      -9.410  -4.518   7.829  0.00  0.00    +0.038 A 
ATOM     30  C   UNL     1      -9.452  -4.139   9.164  0.00  0.00    +0.023 A 
ATOM     31  C   UNL     1     -10.339  -4.752  10.027  0.00  0.00    +0.003 A 
ATOM     32  C   UNL     1     -11.185  -5.743   9.562  0.00  0.00    +0.020 A 
ATOM     33  C   UNL     1     -11.146  -6.122   8.232  0.00  0.00    +0.046 A 
ATOM     34  C   UNL     1     -10.264  -5.508   7.363  0.00  0.00    -0.011 A 
ATOM     35  C   UNL     1     -10.225  -5.918   5.913  0.00  0.00    +0.047 C 
ATOM     36 CL   UNL     1     -12.210  -7.366   7.653  0.00  0.00    -0.083 Cl
ENDBRANCH  27  29
ENDBRANCH  24  25
ENDBRANCH  23  24
ENDBRANCH  12  23
TORSDOF 8
