REMARK  Name = ZINC39558038
REMARK  10 active torsions:
REMARK  status: ('A' for Active; 'I' for Inactive)
REMARK    1  A    between atoms: C_1  and  C_2
REMARK    2  A    between atoms: C_2  and  C_4
REMARK    3  A    between atoms: C_2  and  N_16
REMARK    4  A    between atoms: C_7  and  C_10
REMARK    5  A    between atoms: N_16  and  C_17
REMARK    6  A    between atoms: N_16  and  C_18
REMARK    7  A    between atoms: C_18  and  C_19
REMARK    8  A    between atoms: C_23  and  C_26
REMARK    9  A    between atoms: N_28  and  C_29
REMARK   10  A    between atoms: C_29  and  C_30
REMARK                            x       y       z     vdW  Elec       q    Type
REMARK                         _______ _______ _______ _____ _____    ______ ____
ROOT
ATOM      1  C   UNL     1       2.076  -0.082   2.908  0.00  0.00    +0.033 A 
ATOM      2  N   UNL     1       1.310   0.464   3.882  0.00  0.00    -0.324 N 
ATOM      3  C   UNL     1       1.601   0.274   5.183  0.00  0.00    +0.261 A 
ATOM      4  O   UNL     1       0.900   0.774   6.045  0.00  0.00    -0.267 OA
ATOM      5  C   UNL     1       2.727  -0.509   5.546  0.00  0.00    +0.101 A 
ATOM      6  C   UNL     1       3.510  -1.068   4.539  0.00  0.00    +0.020 A 
ATOM      7  C   UNL     1       3.160  -0.843   3.208  0.00  0.00    +0.023 A 
ATOM      8  H   UNL     1       0.540   1.000   3.638  0.00  0.00    +0.169 HD
ENDROOT
BRANCH   5   9
ATOM      9  C   UNL     1       3.061  -0.727   6.962  0.00  0.00    +0.249 C 
ATOM     10  O   UNL     1       3.964  -1.485   7.264  0.00  0.00    -0.270 OA
ATOM     11  N   UNL     1       2.367  -0.088   7.925  0.00  0.00    -0.311 N 
ATOM     12  H   UNL     1       1.603   0.461   7.688  0.00  0.00    +0.149 HD
BRANCH  11  13
ATOM     13  C   UNL     1       2.768  -0.221   9.328  0.00  0.00    +0.108 C 
BRANCH  13  14
ATOM     14  C   UNL     1       1.822   0.599  10.208  0.00  0.00    +0.012 C 
ATOM     15  C   UNL     1       1.981   2.085   9.881  0.00  0.00    -0.006 C 
ATOM     16  C   UNL     1       1.035   2.905  10.761  0.00  0.00    +0.007 C 
ATOM     17  C   UNL     1       1.375   2.667  12.234  0.00  0.00    -0.010 C 
ATOM     18  C   UNL     1       2.819   3.097  12.499  0.00  0.00    +0.007 C 
ATOM     19  C   UNL     1       3.765   2.277  11.619  0.00  0.00    -0.010 C 
ATOM     20  C   UNL     1       3.425   2.514  10.146  0.00  0.00    +0.007 C 
ATOM     21  C   UNL     1       3.606   0.791  11.946  0.00  0.00    +0.007 C 
ATOM     22  C   UNL     1       2.162   0.362  11.680  0.00  0.00    -0.006 C 
ATOM     23  C   UNL     1       1.216   1.181  12.561  0.00  0.00    +0.007 C 
ENDBRANCH  13  14
ENDBRANCH  11  13
ENDBRANCH   5   9
BRANCH   1  24
ATOM     24  C   UNL     1       1.716   0.154   1.464  0.00  0.00    +0.137 C 
BRANCH  24  25
ATOM     25  N   UNL     1       0.418  -0.469   1.174  0.00  0.00    -0.295 NA
ATOM     26  C   UNL     1       0.502  -1.932   1.279  0.00  0.00    +0.105 C 
BRANCH  25  28
ATOM     27  C   UNL     1       0.941  -0.457  -1.218  0.00  0.00    +0.027 C 
ATOM     28  C   UNL     1      -0.079  -0.064  -0.147  0.00  0.00    +0.084 C 
BRANCH  28  29
ATOM     29  C   UNL     1      -0.284   1.452  -0.171  0.00  0.00    +0.170 C 
ATOM     30  C   UNL     1      -1.076   1.867  -1.399  0.00  0.00    +0.033 C 
ATOM     31  C   UNL     1      -2.191   2.426  -0.890  0.00  0.00    +0.091 C 
ATOM     32  N   UNL     1      -2.159   2.396   0.468  0.00  0.00    -0.154 NA
ATOM     33  N   UNL     1      -1.143   1.878   0.946  0.00  0.00    -0.178 NA
BRANCH  31  34
ATOM     34  C   UNL     1      -3.297   2.996  -1.698  0.00  0.00    +0.002 A 
ATOM     35  C   UNL     1      -3.231   2.971  -3.090  0.00  0.00    +0.010 A 
ATOM     36  C   UNL     1      -4.262   3.502  -3.837  0.00  0.00    +0.001 A 
ATOM     37  C   UNL     1      -5.361   4.058  -3.207  0.00  0.00    +0.000 A 
ATOM     38  C   UNL     1      -5.432   4.085  -1.826  0.00  0.00    +0.001 A 
ATOM     39  C   UNL     1      -4.409   3.552  -1.069  0.00  0.00    +0.010 A 
ENDBRANCH  31  34
ENDBRANCH  28  29
ENDBRANCH  25  28
ENDBRANCH  24  25
ENDBRANCH   1  24
TORSDOF 8
