REMARK  Name = ZINC20758309
REMARK  6 active torsions:
REMARK  status: ('A' for Active; 'I' for Inactive)
REMARK    1  A    between atoms: C_1  and  C_2
REMARK    2  A    between atoms: C_2  and  C_3
REMARK    3  A    between atoms: C_6  and  N_9
REMARK    4  A    between atoms: C_12  and  C_19
REMARK    5  A    between atoms: N_33  and  C_34
REMARK    6  A    between atoms: C_34  and  C_35
REMARK                            x       y       z     vdW  Elec       q    Type
REMARK                         _______ _______ _______ _____ _____    ______ ____
ROOT
ATOM      1  N   UNL     1       1.688  -3.886  -0.164  0.00  0.00    -0.229 N 
ATOM      2  C   UNL     1       1.115  -2.684   0.046  0.00  0.00    +0.267 A 
ATOM      3  O   UNL     1       1.345  -2.066   1.070  0.00  0.00    -0.267 OA
ATOM      4  C   UNL     1       0.252  -2.149  -0.926  0.00  0.00    +0.074 A 
ATOM      5  C   UNL     1       0.008  -2.864  -2.061  0.00  0.00    +0.260 A 
ATOM      6  N   UNL     1       0.615  -4.082  -2.236  0.00  0.00    -0.274 N 
ATOM      7  H   UNL     1       0.430  -4.662  -3.152  0.00  0.00    +0.173 HD
ATOM      8  C   UNL     1       1.438  -4.574  -1.293  0.00  0.00    +0.337 A 
ATOM      9  O   UNL     1       1.964  -5.657  -1.463  0.00  0.00    -0.246 OA
ATOM     10  O   UNL     1      -0.822  -2.375  -3.007  0.00  0.00    -0.267 OA
ENDROOT
BRANCH   4  11
ATOM     11  C   UNL     1      -0.400  -0.807  -0.713  0.00  0.00    +0.021 C 
ATOM     12  C   UNL     1       0.659   0.268  -0.656  0.00  0.00    +0.011 A 
ATOM     13  C   UNL     1       0.649   1.265   0.258  0.00  0.00    -0.022 A 
ATOM     14  C   UNL     1       1.808   2.090   0.002  0.00  0.00    +0.003 A 
ATOM     15  C   UNL     1       2.309   3.243   0.617  0.00  0.00    +0.010 A 
ATOM     16  C   UNL     1       3.463   3.773   0.095  0.00  0.00    +0.001 A 
ATOM     17  C   UNL     1       4.111   3.204  -0.989  0.00  0.00    +0.002 A 
ATOM     18  C   UNL     1       3.638   2.064  -1.616  0.00  0.00    +0.026 A 
ATOM     19  C   UNL     1       2.468   1.503  -1.108  0.00  0.00    +0.047 A 
ATOM     20  N   UNL     1       1.745   0.405  -1.478  0.00  0.00    -0.359 N 
ATOM     21  H   UNL     1       1.917  -0.320  -2.287  0.00  0.00    +0.166 HD
ATOM     22  C   UNL     1      -0.416   1.413   1.315  0.00  0.00    +0.019 C 
ATOM     23  C   UNL     1      -1.609   0.536   0.912  0.00  0.00    -0.073 C 
ATOM     24  N   UNL     1      -1.131  -0.810   0.565  0.00  0.00    +0.388 N 
ATOM     25  H   UNL     1      -0.430  -1.127   1.351  0.00  0.00    -0.080 HD
BRANCH  24  26
ATOM     26  C   UNL     1      -2.241  -1.771   0.534  0.00  0.00    -0.081 C 
ATOM     27  C   UNL     1      -2.809  -1.940   1.944  0.00  0.00    -0.017 C 
ENDBRANCH  24  26
ENDBRANCH   4  11
BRANCH   1  31
ATOM     28  C   UNL     1       4.251  -5.485   2.709  0.00  0.00    -0.047 A 
ATOM     29  C   UNL     1       2.897  -5.758   2.764  0.00  0.00    +0.005 A 
ATOM     30  C   UNL     1       2.045  -5.230   1.813  0.00  0.00    +0.026 A 
ATOM     31  C   UNL     1       2.550  -4.424   0.802  0.00  0.00    +0.054 A 
ATOM     32  C   UNL     1       3.911  -4.156   0.746  0.00  0.00    +0.026 A 
ATOM     33  C   UNL     1       4.757  -4.683   1.702  0.00  0.00    +0.005 A 
BRANCH  28  35
ATOM     34  C   UNL     1       5.693  -7.423   3.271  0.00  0.00    +0.009 C 
ATOM     35  C   UNL     1       5.178  -6.063   3.747  0.00  0.00    +0.032 C 
ENDBRANCH  28  35
ENDBRANCH   1  31
TORSDOF 4
