REMARK  Name = ZINC40812132
REMARK  6 active torsions:
REMARK  status: ('A' for Active; 'I' for Inactive)
REMARK    1  A    between atoms: C_1  and  C_2
REMARK    2  A    between atoms: C_6  and  C_7
REMARK    3  A    between atoms: N_9  and  N_10
REMARK    4  A    between atoms: N_15  and  N_16
REMARK    5  A    between atoms: C_17  and  C_19
REMARK    6  A    between atoms: C_22  and  O_25
REMARK                            x       y       z     vdW  Elec       q    Type
REMARK                         _______ _______ _______ _____ _____    ______ ____
ROOT
ATOM      1  C   UNL     1      -0.018   1.503   0.010  0.00  0.00    +0.048 C 
ATOM      2  C   UNL     1       0.002  -0.004   0.002  0.00  0.00    +0.009 A 
ATOM      3  C   UNL     1       0.009  -0.838  -1.123  0.00  0.00    +0.042 A 
ATOM      4  C   UNL     1       0.027  -2.138  -0.673  0.00  0.00    +0.115 A 
ATOM      5  O   UNL     1       0.035  -2.112   0.658  0.00  0.00    -0.454 OA
ATOM      6  C   UNL     1       0.024  -0.830   1.091  0.00  0.00    +0.194 A 
ATOM      7  C   UNL     1       0.033  -3.327  -1.599  0.00  0.00    +0.075 C 
ATOM      8  C   UNL     1      -0.491  -2.903  -2.974  0.00  0.00    +0.014 C 
ATOM      9  C   UNL     1       0.279  -1.685  -3.495  0.00  0.00    +0.058 C 
ATOM     10  C   UNL     1       0.001  -0.512  -2.566  0.00  0.00    +0.070 C 
ATOM     11  N   UNL     1      -0.228   0.686  -3.008  0.00  0.00    -0.184 NA
ENDROOT
BRANCH   6  12
ATOM     12  C   UNL     1       0.032  -0.399   2.493  0.00  0.00    +0.293 C 
ATOM     13  O   UNL     1       0.018   0.786   2.766  0.00  0.00    -0.266 OA
ATOM     14  N   UNL     1       0.054  -1.317   3.480  0.00  0.00    -0.247 N 
ATOM     15  H   UNL     1       0.065  -2.263   3.263  0.00  0.00    +0.169 HD
BRANCH  14  16
ATOM     16  N   UNL     1       0.061  -0.916   4.786  0.00  0.00    -0.254 NA
ATOM     17  H   UNL     1      -0.726  -0.318   4.985  0.00  0.00    +0.140 HD
ATOM     18  H   UNL     1       0.079  -1.710   5.408  0.00  0.00    +0.140 HD
ENDBRANCH  14  16
ENDBRANCH   6  12
BRANCH  11  19
ATOM     19  N   UNL     1      -0.223   0.938  -4.386  0.00  0.00    -0.203 N 
ATOM     20  C   UNL     1      -0.461   2.182  -4.845  0.00  0.00    +0.263 C 
ATOM     21  O   UNL     1      -0.680   3.088  -4.062  0.00  0.00    -0.268 OA
ATOM     22  H   UNL     1      -0.049   0.216  -5.010  0.00  0.00    +0.178 HD
BRANCH  20  23
ATOM     23  C   UNL     1      -0.456   2.447  -6.296  0.00  0.00    +0.039 A 
ATOM     24  C   UNL     1      -0.211   1.407  -7.197  0.00  0.00    +0.016 A 
ATOM     25  C   UNL     1      -0.207   1.659  -8.551  0.00  0.00    +0.046 A 
ATOM     26  C   UNL     1      -0.447   2.944  -9.022  0.00  0.00    +0.117 A 
ATOM     27  C   UNL     1      -0.690   3.981  -8.129  0.00  0.00    +0.046 A 
ATOM     28  C   UNL     1      -0.702   3.737  -6.774  0.00  0.00    +0.016 A 
BRANCH  26  29
ATOM     29  O   UNL     1      -0.442   3.188 -10.357  0.00  0.00    -0.507 OA
ATOM     30  H   UNL     1      -1.306   3.084 -10.779  0.00  0.00    +0.292 HD
ENDBRANCH  26  29
ENDBRANCH  20  23
ENDBRANCH  11  19
TORSDOF 5
