REMARK  Name = ZINC39302316
REMARK  7 active torsions:
REMARK  status: ('A' for Active; 'I' for Inactive)
REMARK    1  A    between atoms: C_1  and  C_2
REMARK    2  A    between atoms: C_2  and  C_5
REMARK    3  A    between atoms: C_7  and  C_15
REMARK    4  A    between atoms: N_17  and  C_18
REMARK    5  A    between atoms: C_18  and  C_19
REMARK    6  A    between atoms: C_19  and  S_20
REMARK    7  A    between atoms: S_20  and  C_21
REMARK                            x       y       z     vdW  Elec       q    Type
REMARK                         _______ _______ _______ _____ _____    ______ ____
ROOT
ATOM      1  C   UNL     1      -4.096   0.217  -2.849  0.00  0.00    +0.245 C 
ATOM      2  O   UNL     1      -5.027  -0.352  -3.384  0.00  0.00    -0.270 OA
ATOM      3  N   UNL     1      -3.894   1.532  -3.068  0.00  0.00    -0.311 N 
ATOM      4  H   UNL     1      -3.151   1.986  -2.641  0.00  0.00    +0.149 HD
ENDROOT
BRANCH   1   7
ATOM      5  C   UNL     1      -1.211  -0.673  -0.593  0.00  0.00    +0.049 A 
ATOM      6  C   UNL     1      -2.047   0.063  -1.429  0.00  0.00    +0.037 A 
ATOM      7  C   UNL     1      -3.185  -0.532  -1.957  0.00  0.00    +0.048 A 
ATOM      8  C   UNL     1      -3.445  -1.883  -1.612  0.00  0.00    +0.012 A 
ATOM      9  C   UNL     1      -4.571  -2.558  -2.102  0.00  0.00    +0.011 A 
ATOM     10  C   UNL     1      -4.786  -3.856  -1.748  0.00  0.00    +0.001 A 
ATOM     11  C   UNL     1      -3.900  -4.522  -0.904  0.00  0.00    +0.002 A 
ATOM     12  C   UNL     1      -2.796  -3.897  -0.410  0.00  0.00    +0.028 A 
ATOM     13  C   UNL     1      -2.541  -2.557  -0.754  0.00  0.00    +0.072 A 
ATOM     14  N   UNL     1      -1.462  -1.921  -0.287  0.00  0.00    -0.251 NA
BRANCH   5  16
ATOM     15  C   UNL     1       0.014   1.515  -0.032  0.00  0.00    +0.017 C 
ATOM     16  C   UNL     1       0.021  -0.015  -0.027  0.00  0.00    +0.010 C 
ATOM     17  C   UNL     1       1.363  -0.716  -0.251  0.00  0.00    +0.014 C 
ATOM     18  C   UNL     1       0.723  -0.714   1.139  0.00  0.00    +0.014 C 
ENDBRANCH   5  16
ENDBRANCH   1   7
BRANCH   3  19
ATOM     19  C   UNL     1      -4.797   2.274  -3.951  0.00  0.00    +0.115 C 
BRANCH  19  20
ATOM     20  C   UNL     1      -4.349   3.735  -4.027  0.00  0.00    +0.089 C 
BRANCH  20  21
ATOM     21  S   UNL     1      -5.466   4.655  -5.121  0.00  0.00    -0.135 S 
BRANCH  21  22
ATOM     22  C   UNL     1      -4.806   6.344  -5.103  0.00  0.00    +0.194 C 
ATOM     23  C   UNL     1      -5.716   7.249  -5.888  0.00  0.00    +0.241 C 
ATOM     24  O   UNL     1      -6.567   7.869  -5.286  0.00  0.00    -0.273 OA
ATOM     25  N   UNL     1      -5.637   7.408  -7.207  0.00  0.00    -0.283 N 
ATOM     26  C   UNL     1      -4.736   6.778  -8.060  0.00  0.00    +0.047 A 
ATOM     27  C   UNL     1      -5.035   6.674  -9.415  0.00  0.00    +0.024 A 
ATOM     28  C   UNL     1      -4.151   6.056 -10.277  0.00  0.00    +0.002 A 
ATOM     29  C   UNL     1      -2.960   5.535  -9.804  0.00  0.00    +0.001 A 
ATOM     30  C   UNL     1      -2.651   5.629  -8.460  0.00  0.00    +0.016 A 
ATOM     31  C   UNL     1      -3.535   6.245  -7.590  0.00  0.00    +0.031 A 
ATOM     32  S   UNL     1      -3.156   6.362  -5.866  0.00  0.00    -0.100 S 
ATOM     33  H   UNL     1      -6.269   8.023  -7.612  0.00  0.00    +0.155 HD
ENDBRANCH  21  22
ENDBRANCH  20  21
ENDBRANCH  19  20
ENDBRANCH   3  19
TORSDOF 6
