REMARK  Name = ZINC15001267
REMARK  8 active torsions:
REMARK  status: ('A' for Active; 'I' for Inactive)
REMARK    1  A    between atoms: C_1  and  C_2
REMARK    2  A    between atoms: C_2  and  N_3
REMARK    3  A    between atoms: N_3  and  C_4
REMARK    4  A    between atoms: C_4  and  C_5
REMARK    5  A    between atoms: N_7  and  C_8
REMARK    6  A    between atoms: C_13  and  C_14
REMARK    7  A    between atoms: C_18  and  C_20
REMARK    8  A    between atoms: C_20  and  N_21
REMARK                            x       y       z     vdW  Elec       q    Type
REMARK                         _______ _______ _______ _____ _____    ______ ____
ROOT
ATOM      1  N   UNL     1      -5.977  -0.949  -0.259  0.00  0.00    -0.292 N 
ATOM      2  C   UNL     1      -6.573  -1.400   0.862  0.00  0.00    +0.234 C 
ATOM      3  O   UNL     1      -6.200  -1.007   1.947  0.00  0.00    -0.274 OA
ENDROOT
BRANCH   1   5
ATOM      4  C   UNL     1      -5.637  -2.674  -1.959  0.00  0.00    +0.024 C 
ATOM      5  C   UNL     1      -6.428  -1.423  -1.570  0.00  0.00    +0.105 C 
ENDBRANCH   1   5
BRANCH   1   6
ATOM      6  C   UNL     1      -4.878   0.016  -0.168  0.00  0.00    +0.203 C 
BRANCH   6   7
ATOM      7  C   UNL     1      -3.568  -0.722  -0.070  0.00  0.00    +0.235 C 
ATOM      8  O   UNL     1      -3.554  -1.935  -0.076  0.00  0.00    -0.274 OA
ATOM      9  N   UNL     1      -2.413  -0.035   0.024  0.00  0.00    -0.284 N 
ATOM     10  H   UNL     1      -2.428   0.933   0.095  0.00  0.00    +0.155 HD
BRANCH   9  11
ATOM     11  C   UNL     1      -1.191  -0.716   0.020  0.00  0.00    +0.045 A 
ATOM     12  C   UNL     1      -1.089  -1.965   0.619  0.00  0.00    +0.024 A 
ATOM     13  C   UNL     1       0.119  -2.636   0.612  0.00  0.00    +0.002 A 
ATOM     14  C   UNL     1       1.225  -2.065   0.010  0.00  0.00    +0.001 A 
ATOM     15  C   UNL     1       1.125  -0.824  -0.591  0.00  0.00    +0.014 A 
ATOM     16  C   UNL     1      -0.078  -0.145  -0.583  0.00  0.00    +0.076 A 
BRANCH  16  17
ATOM     17  C   UNL     1      -0.184   1.210  -1.234  0.00  0.00    +0.419 C 
ATOM     18  F   UNL     1       1.058   1.570  -1.767  0.00  0.00    -0.166 F 
ATOM     19  F   UNL     1      -1.136   1.162  -2.258  0.00  0.00    -0.166 F 
ATOM     20  F   UNL     1      -0.574   2.156  -0.279  0.00  0.00    -0.166 F 
ENDBRANCH  16  17
ENDBRANCH   9  11
ENDBRANCH   6   7
ENDBRANCH   1   6
BRANCH   2  21
ATOM     21  C   UNL     1      -7.703  -2.392   0.768  0.00  0.00    +0.212 C 
BRANCH  21  22
ATOM     22  N   UNL     1      -8.177  -2.723   2.114  0.00  0.00    -0.225 N 
ATOM     23  C   UNL     1      -7.698  -3.732   2.863  0.00  0.00    +0.254 C 
ATOM     24  O   UNL     1      -6.818  -4.502   2.536  0.00  0.00    -0.270 OA
ATOM     25  C   UNL     1      -8.420  -3.746   4.153  0.00  0.00    +0.049 A 
ATOM     26  C   UNL     1      -8.357  -4.536   5.290  0.00  0.00    +0.014 A 
ATOM     27  C   UNL     1      -9.205  -4.277   6.355  0.00  0.00    +0.001 A 
ATOM     28  C   UNL     1     -10.113  -3.236   6.291  0.00  0.00    +0.001 A 
ATOM     29  C   UNL     1     -10.188  -2.438   5.160  0.00  0.00    +0.014 A 
ATOM     30  C   UNL     1      -9.346  -2.685   4.087  0.00  0.00    +0.049 A 
ATOM     31  C   UNL     1      -9.151  -2.059   2.762  0.00  0.00    +0.254 C 
ATOM     32  O   UNL     1      -9.768  -1.107   2.331  0.00  0.00    -0.270 OA
ENDBRANCH  21  22
ENDBRANCH   2  21
TORSDOF 7
