REMARK  Name = ZINC33498240
REMARK  17 active torsions:
REMARK  status: ('A' for Active; 'I' for Inactive)
REMARK    1  A    between atoms: C_1  and  C_2
REMARK    2  A    between atoms: C_2  and  C_3
REMARK    3  A    between atoms: C_3  and  C_4
REMARK    4  A    between atoms: C_4  and  C_5
REMARK    5  A    between atoms: C_5  and  C_7
REMARK    6  A    between atoms: C_5  and  C_9
REMARK    7  A    between atoms: C_7  and  C_8
REMARK    8  A    between atoms: C_9  and  N_10
REMARK    9  A    between atoms: C_14  and  C_15
REMARK   10  A    between atoms: C_16  and  N_27
REMARK   11  A    between atoms: C_19  and  C_26
REMARK   12  A    between atoms: N_27  and  C_28
REMARK   13  A    between atoms: C_28  and  C_29
REMARK   14  A    between atoms: C_29  and  O_30
REMARK   15  A    between atoms: O_30  and  C_31
REMARK   16  A    between atoms: C_31  and  C_32
REMARK   17  A    between atoms: C_32  and  O_33
REMARK                            x       y       z     vdW  Elec       q    Type
REMARK                         _______ _______ _______ _____ _____    ______ ____
ROOT
ATOM      1  C   UNL     1      -0.103   2.048   2.786  0.00  0.00    +0.081 A 
ATOM      2  C   UNL     1       0.623   2.151   1.577  0.00  0.00    +0.134 A 
ATOM      3  N   UNL     1       1.837   1.626   1.496  0.00  0.00    -0.214 NA
ATOM      4  C   UNL     1       2.395   0.993   2.529  0.00  0.00    +0.145 A 
ATOM      5  C   UNL     1       3.686   0.455   2.385  0.00  0.00    -0.007 A 
ATOM      6  C   UNL     1       4.266  -0.193   3.436  0.00  0.00    +0.008 A 
ATOM      7  C   UNL     1       3.566  -0.315   4.644  0.00  0.00    +0.019 A 
ATOM      8  C   UNL     1       2.325   0.208   4.764  0.00  0.00    +0.096 A 
ATOM      9  N   UNL     1       1.737   0.859   3.720  0.00  0.00    -0.267 N 
ATOM     10  C   UNL     1       0.497   1.370   3.874  0.00  0.00    +0.267 A 
ATOM     11  O   UNL     1      -0.094   1.254   4.934  0.00  0.00    -0.267 OA
ATOM     12  C   UNL     1       4.425   0.595   1.079  0.00  0.00    +0.047 C 
ENDROOT
BRANCH   1  17
ATOM     13  N   UNL     1      -1.141   5.401   5.258  0.00  0.00    -0.255 N 
ATOM     14  C   UNL     1      -0.680   4.413   4.510  0.00  0.00    +0.258 C 
ATOM     15  O   UNL     1       0.510   4.157   4.475  0.00  0.00    -0.269 OA
ATOM     16  C   UNL     1      -1.614   3.658   3.745  0.00  0.00    +0.077 C 
ATOM     17  C   UNL     1      -1.398   2.605   2.904  0.00  0.00    +0.037 C 
ATOM     18  S   UNL     1      -3.146   4.471   4.179  0.00  0.00    -0.061 S 
ATOM     19  C   UNL     1      -2.462   5.685   5.296  0.00  0.00    +0.121 C 
ATOM     20  S   UNL     1      -3.272   6.905   6.183  0.00  0.00    -0.027 S 
BRANCH  13  21
ATOM     21  C   UNL     1      -0.207   6.198   6.057  0.00  0.00    +0.118 C 
BRANCH  21  22
ATOM     22  C   UNL     1       0.403   7.296   5.183  0.00  0.00    +0.007 C 
BRANCH  22  23
ATOM     23  C   UNL     1       1.465   8.053   5.983  0.00  0.00    +0.002 C 
ATOM     24  C   UNL     1       2.624   7.109   6.312  0.00  0.00    +0.004 C 
ENDBRANCH  22  23
BRANCH  22  25
ATOM     25  C   UNL     1      -0.695   8.268   4.746  0.00  0.00    +0.005 C 
BRANCH  25  26
ATOM     26  C   UNL     1      -0.110   9.294   3.773  0.00  0.00    +0.000 C 
BRANCH  26  28
ATOM     27  C   UNL     1      -0.622  11.291   2.362  0.00  0.00    +0.004 C 
ATOM     28  C   UNL     1      -1.207  10.266   3.335  0.00  0.00    -0.003 C 
ENDBRANCH  26  28
ENDBRANCH  25  26
ENDBRANCH  22  25
ENDBRANCH  21  22
ENDBRANCH  13  21
ENDBRANCH   1  17
BRANCH   2  29
ATOM     29  N   UNL     1       0.074   2.799   0.491  0.00  0.00    -0.326 N 
ATOM     30  H   UNL     1      -0.933   3.234   0.562  0.00  0.00    +0.148 HD
BRANCH  29  31
ATOM     31  C   UNL     1       0.833   2.908  -0.757  0.00  0.00    +0.131 C 
BRANCH  31  32
ATOM     32  C   UNL     1       0.003   3.666  -1.794  0.00  0.00    +0.178 C 
BRANCH  32  33
ATOM     33  O   UNL     1      -0.196   5.011  -1.354  0.00  0.00    -0.376 OA
BRANCH  33  34
ATOM     34  C   UNL     1      -0.964   5.810  -2.256  0.00  0.00    +0.187 C 
BRANCH  34  35
ATOM     35  C   UNL     1      -1.113   7.222  -1.687  0.00  0.00    +0.184 C 
BRANCH  35  36
ATOM     36  O   UNL     1       0.170   7.849  -1.625  0.00  0.00    -0.393 OA
ATOM     37  H   UNL     1       0.263   8.875  -1.240  0.00  0.00    +0.209 HD
ENDBRANCH  35  36
ENDBRANCH  34  35
ENDBRANCH  33  34
ENDBRANCH  32  33
ENDBRANCH  31  32
ENDBRANCH  29  31
ENDBRANCH   2  29
TORSDOF 14
