REMARK  Name = ZINC20916009
REMARK  3 active torsions:
REMARK  status: ('A' for Active; 'I' for Inactive)
REMARK    1  A    between atoms: C_1  and  C_2
REMARK    2  A    between atoms: C_5  and  C_7
REMARK    3  A    between atoms: N_18  and  C_19
REMARK                            x       y       z     vdW  Elec       q    Type
REMARK                         _______ _______ _______ _____ _____    ______ ____
ROOT
ATOM      1  C   UNL     1       1.441   2.054  -0.183  0.00  0.00    +0.204 C 
ATOM      2  N   UNL     1       0.101   1.458  -0.238  0.00  0.00    -0.321 N 
ATOM      3  C   UNL     1      -0.029   0.085  -0.061  0.00  0.00    +0.041 A 
ATOM      4  C   UNL     1      -1.060  -0.631  -0.644  0.00  0.00    +0.024 A 
ATOM      5  C   UNL     1      -1.154  -1.993  -0.431  0.00  0.00    +0.002 A 
ATOM      6  C   UNL     1      -0.225  -2.647   0.363  0.00  0.00    +0.001 A 
ATOM      7  C   UNL     1       0.811  -1.949   0.948  0.00  0.00    +0.015 A 
ATOM      8  C   UNL     1       0.921  -0.577   0.737  0.00  0.00    +0.058 A 
ATOM      9  C   UNL     1       2.023   0.209   1.319  0.00  0.00    +0.254 C 
ATOM     10  O   UNL     1       2.765  -0.292   2.143  0.00  0.00    -0.270 OA
ATOM     11  N   UNL     1       2.203   1.487   0.930  0.00  0.00    -0.244 N 
ATOM     12  H   UNL     1      -0.777   2.095  -0.418  0.00  0.00    +0.148 HD
ENDROOT
BRANCH  11  13
ATOM     13  C   UNL     1       3.135   2.286   1.603  0.00  0.00    +0.042 A 
ATOM     14  C   UNL     1       2.705   3.369   2.358  0.00  0.00    +0.027 A 
ATOM     15  C   UNL     1       3.624   4.159   3.022  0.00  0.00    +0.051 A 
ATOM     16  C   UNL     1       4.979   3.872   2.937  0.00  0.00    +0.162 A 
ATOM     17  C   UNL     1       5.412   2.788   2.183  0.00  0.00    +0.164 A 
ATOM     18  C   UNL     1       4.489   1.993   1.521  0.00  0.00    +0.073 A 
ATOM     19  O   UNL     1       6.737   2.488   2.091  0.00  0.00    -0.485 OA
ATOM     20  C   UNL     1       7.657   3.520   2.464  0.00  0.00    +0.270 C 
ATOM     21  C   UNL     1       7.184   4.130   3.790  0.00  0.00    +0.270 C 
ATOM     22  O   UNL     1       5.870   4.664   3.594  0.00  0.00    -0.485 OA
ENDBRANCH  11  13
BRANCH   1  27
ATOM     23  C   UNL     1       4.980   1.031  -4.486  0.00  0.00    +0.051 C 
ATOM     24  C   UNL     1       3.849   1.289  -3.524  0.00  0.00    -0.013 A 
ATOM     25  C   UNL     1       2.518   1.366  -3.771  0.00  0.00    +0.011 A 
ATOM     26  C   UNL     1       1.655   1.610  -2.720  0.00  0.00    +0.015 A 
ATOM     27  C   UNL     1       2.164   1.777  -1.475  0.00  0.00    +0.029 A 
ATOM     28  S   UNL     1       3.915   1.575  -1.763  0.00  0.00    -0.095 S 
ENDBRANCH   1  27
TORSDOF 2
