REMARK  Name = ZINC67177457
REMARK  3 active torsions:
REMARK  status: ('A' for Active; 'I' for Inactive)
REMARK    1  A    between atoms: C_6  and  C_7
REMARK    2  A    between atoms: C_14  and  C_16
REMARK    3  A    between atoms: C_21  and  O_22
REMARK                            x       y       z     vdW  Elec       q    Type
REMARK                         _______ _______ _______ _____ _____    ______ ____
ROOT
ATOM      1  C   UNL     1      -0.997  -1.191   0.236  0.00  0.00    +0.166 C 
ATOM      2  C   UNL     1      -1.554  -1.322   1.658  0.00  0.00    +0.144 C 
ATOM      3  N   UNL     1      -2.734  -2.201   1.615  0.00  0.00    -0.292 N 
ATOM      4  C   UNL     1      -2.604  -3.500   0.936  0.00  0.00    +0.136 C 
ATOM      5  C   UNL     1      -1.995  -3.263  -0.451  0.00  0.00    +0.179 C 
ATOM      6  O   UNL     1      -0.797  -2.495  -0.315  0.00  0.00    -0.369 OA
ATOM      7  C   UNL     1      -3.898  -1.827   2.180  0.00  0.00    +0.250 C 
ATOM      8  O   UNL     1      -3.966  -0.783   2.800  0.00  0.00    -0.270 OA
ENDROOT
BRANCH   7   9
ATOM      9  C   UNL     1      -5.092  -2.685   2.048  0.00  0.00    +0.078 A 
ATOM     10  C   UNL     1      -5.030  -4.035   2.390  0.00  0.00    +0.020 A 
ATOM     11  C   UNL     1      -6.147  -4.843   2.269  0.00  0.00    -0.043 A 
ATOM     12  C   UNL     1      -7.336  -4.312   1.810  0.00  0.00    -0.041 A 
ATOM     13  C   UNL     1      -7.407  -2.970   1.462  0.00  0.00    +0.050 A 
ATOM     14  C   UNL     1      -6.300  -2.149   1.581  0.00  0.00    +0.129 A 
ATOM     15  C   UNL     1      -8.590  -5.135   1.671  0.00  0.00    +0.035 C 
ATOM     16  C   UNL     1      -8.257  -6.626   1.667  0.00  0.00    +0.005 C 
ATOM     17  C   UNL     1      -7.373  -6.927   2.883  0.00  0.00    +0.005 C 
ATOM     18  C   UNL     1      -6.003  -6.294   2.651  0.00  0.00    +0.035 C 
BRANCH  14  19
ATOM     19  O   UNL     1      -6.382  -0.837   1.245  0.00  0.00    -0.506 OA
ATOM     20  H   UNL     1      -6.173  -0.655   0.319  0.00  0.00    +0.292 HD
ENDBRANCH  14  19
ENDBRANCH   7   9
BRANCH   1  26
ATOM     21  C   UNL     1       0.352   0.910   0.060  0.00  0.00    +0.009 A 
ATOM     22  C   UNL     1       1.557   1.587   0.097  0.00  0.00    +0.041 A 
ATOM     23  C   UNL     1       2.730   0.899   0.351  0.00  0.00    +0.158 A 
ATOM     24  C   UNL     1       2.696  -0.470   0.569  0.00  0.00    +0.159 A 
ATOM     25  C   UNL     1       1.488  -1.145   0.531  0.00  0.00    +0.047 A 
ATOM     26  C   UNL     1       0.318  -0.455   0.277  0.00  0.00    -0.015 A 
ATOM     27  F   UNL     1       3.840  -1.144   0.817  0.00  0.00    -0.202 F 
ATOM     28  F   UNL     1       3.907   1.560   0.387  0.00  0.00    -0.202 F 
ENDBRANCH   1  26
TORSDOF 3
