REMARK  Name = ZINC49319129
REMARK  5 active torsions:
REMARK  status: ('A' for Active; 'I' for Inactive)
REMARK    1  A    between atoms: C_1  and  S_2
REMARK    2  A    between atoms: S_2  and  C_3
REMARK    3  A    between atoms: C_8  and  N_9
REMARK    4  A    between atoms: C_10  and  C_12
REMARK    5  A    between atoms: C_15  and  N_17
REMARK                            x       y       z     vdW  Elec       q    Type
REMARK                         _______ _______ _______ _____ _____    ______ ____
ROOT
ATOM      1  N   UNL     1       0.594  -2.768  -0.994  0.00  0.00    -0.278 N 
ATOM      2  C   UNL     1       1.182  -3.981  -1.021  0.00  0.00    +0.284 C 
ATOM      3  O   UNL     1       2.171  -4.162  -1.706  0.00  0.00    -0.266 OA
ATOM      4  H   UNL     1      -0.145  -2.601  -0.389  0.00  0.00    +0.155 HD
ENDROOT
BRANCH   1  10
ATOM      5  C   UNL     1       0.841  -0.413  -1.502  0.00  0.00    +0.029 A 
ATOM      6  C   UNL     1       1.300   0.592  -2.342  0.00  0.00    +0.018 A 
ATOM      7  C   UNL     1       1.956   0.266  -3.514  0.00  0.00    +0.021 A 
ATOM      8  C   UNL     1       2.158  -1.060  -3.853  0.00  0.00    +0.043 A 
ATOM      9  C   UNL     1       1.704  -2.068  -3.021  0.00  0.00    +0.044 A 
ATOM     10  C   UNL     1       1.050  -1.750  -1.841  0.00  0.00    +0.049 A 
ATOM     11 CL   UNL     1       2.983  -1.461  -5.327  0.00  0.00    -0.083 Cl
BRANCH   5  13
ATOM     12  C   UNL     1      -0.025   1.813  -0.007  0.00  0.00    +0.090 C 
ATOM     13  S   UNL     1       0.003  -0.000  -0.008  0.00  0.00    -0.127 S 
ENDBRANCH   5  13
ENDBRANCH   1  10
BRANCH   2  14
ATOM     14  C   UNL     1       0.629  -5.081  -0.225  0.00  0.00    +0.192 A 
ATOM     15  C   UNL     1       1.127  -6.351  -0.157  0.00  0.00    +0.057 A 
ATOM     16  C   UNL     1       0.293  -7.065   0.717  0.00  0.00    +0.076 A 
ATOM     17  C   UNL     1      -0.665  -6.211   1.139  0.00  0.00    +0.280 A 
ATOM     18  O   UNL     1      -0.456  -5.015   0.573  0.00  0.00    -0.429 OA
BRANCH  17  19
ATOM     19  N   UNL     1      -1.762  -6.541   2.076  0.00  0.00    +0.093 N 
ATOM     20  O   UNL     1      -1.853  -7.658   2.531  0.00  0.00    -0.123 OA
ATOM     21  O   UNL     1      -2.568  -5.695   2.386  0.00  0.00    -0.123 OA
ENDBRANCH  17  19
ENDBRANCH   2  14
TORSDOF 4
