REMARK  Name = ZINC14961604
REMARK  8 active torsions:
REMARK  status: ('A' for Active; 'I' for Inactive)
REMARK    1  A    between atoms: C_4  and  C_7
REMARK    2  A    between atoms: C_7  and  C_8
REMARK    3  A    between atoms: C_8  and  C_10
REMARK    4  A    between atoms: C_8  and  N_56
REMARK    5  A    between atoms: C_10  and  O_11
REMARK    6  A    between atoms: O_11  and  C_12
REMARK    7  A    between atoms: C_14  and  C_18
REMARK    8  A    between atoms: C_25  and  C_26
REMARK                            x       y       z     vdW  Elec       q    Type
REMARK                         _______ _______ _______ _____ _____    ______ ____
ROOT
ATOM      1  C   UNL     1      -6.258   5.557   1.886  0.00  0.00    +0.139 A 
ATOM      2  C   UNL     1      -5.350   4.527   1.677  0.00  0.00    +0.057 A 
ATOM      3  C   UNL     1      -4.033   4.861   1.352  0.00  0.00    +0.004 A 
ATOM      4  C   UNL     1      -3.686   6.206   1.241  0.00  0.00    +0.119 A 
ATOM      5  N   UNL     1      -4.581   7.151   1.442  0.00  0.00    -0.259 NA
ATOM      6  C   UNL     1      -5.831   6.871   1.756  0.00  0.00    +0.156 A 
ENDROOT
BRANCH   3   7
ATOM      7  C   UNL     1      -3.021   3.800   1.124  0.00  0.00    -0.016 A 
ATOM      8  C   UNL     1      -3.379   2.455   1.238  0.00  0.00    +0.010 A 
ATOM      9  C   UNL     1      -2.447   1.463   1.027  0.00  0.00    +0.024 A 
ATOM     10  C   UNL     1      -1.136   1.791   0.692  0.00  0.00    +0.042 A 
ATOM     11  C   UNL     1      -0.774   3.142   0.583  0.00  0.00    +0.009 A 
ATOM     12  C   UNL     1      -1.714   4.143   0.795  0.00  0.00    +0.019 A 
ATOM     13  C   UNL     1       0.663   3.160   0.229  0.00  0.00    +0.049 C 
ATOM     14  C   UNL     1       1.461   4.267   0.011  0.00  0.00    +0.060 C 
ATOM     15  C   UNL     1       1.057   1.747   0.159  0.00  0.00    +0.249 C 
ATOM     16  O   UNL     1       2.169   1.327  -0.107  0.00  0.00    -0.270 OA
ATOM     17  N   UNL     1      -0.024   0.999   0.439  0.00  0.00    -0.281 N 
ATOM     18  H   UNL     1      -0.027   0.030   0.459  0.00  0.00    +0.155 HD
BRANCH  14  19
ATOM     19  C   UNL     1       0.879   5.548  -0.084  0.00  0.00    +0.128 A 
ATOM     20  C   UNL     1       1.434   6.731   0.370  0.00  0.00    +0.049 A 
ATOM     21  C   UNL     1       0.514   7.744   0.067  0.00  0.00    +0.042 A 
ATOM     22  C   UNL     1      -0.541   7.157  -0.545  0.00  0.00    +0.195 A 
ATOM     23  O   UNL     1      -0.317   5.840  -0.638  0.00  0.00    -0.464 OA
ENDBRANCH  14  19
ENDBRANCH   3   7
BRANCH   1  24
ATOM     24  O   UNL     1      -7.549   5.282   2.208  0.00  0.00    -0.492 OA
BRANCH  24  25
ATOM     25  C   UNL     1      -8.422   6.397   2.401  0.00  0.00    +0.213 C 
BRANCH  25  26
ATOM     26  C   UNL     1      -9.823   5.893   2.754  0.00  0.00    -0.033 C 
BRANCH  26  29
ATOM     27  H   UNL     1      -9.468   5.824   4.781  0.00  0.00    -0.089 HD
ATOM     28  H   UNL     1     -10.681   4.805   4.276  0.00  0.00    -0.089 HD
ATOM     29  N   UNL     1      -9.765   5.185   4.045  0.00  0.00    +0.382 N 
ATOM     30  H   UNL     1      -9.090   4.414   3.977  0.00  0.00    -0.089 HD
ENDBRANCH  26  29
BRANCH  26  31
ATOM     31  C   UNL     1     -10.785   7.079   2.838  0.00  0.00    +0.022 C 
BRANCH  31  35
ATOM     32  C   UNL     1     -14.758   5.648   3.480  0.00  0.00    +0.000 A 
ATOM     33  C   UNL     1     -13.944   5.935   4.560  0.00  0.00    +0.000 A 
ATOM     34  C   UNL     1     -12.658   6.398   4.352  0.00  0.00    +0.003 A 
ATOM     35  C   UNL     1     -12.187   6.574   3.064  0.00  0.00    -0.049 A 
ATOM     36  C   UNL     1     -13.003   6.292   1.985  0.00  0.00    +0.003 A 
ATOM     37  C   UNL     1     -14.287   5.824   2.193  0.00  0.00    +0.000 A 
ENDBRANCH  31  35
ENDBRANCH  26  31
ENDBRANCH  25  26
ENDBRANCH  24  25
ENDBRANCH   1  24
TORSDOF 8
