REMARK  Name = ZINC67330879
REMARK  8 active torsions:
REMARK  status: ('A' for Active; 'I' for Inactive)
REMARK    1  A    between atoms: C_1  and  C_2
REMARK    2  A    between atoms: C_5  and  O_8
REMARK    3  A    between atoms: O_8  and  C_9
REMARK    4  A    between atoms: C_9  and  C_10
REMARK    5  A    between atoms: C_10  and  C_12
REMARK    6  A    between atoms: C_10  and  N_13
REMARK    7  A    between atoms: C_14  and  C_16
REMARK    8  A    between atoms: C_19  and  N_26
REMARK                            x       y       z     vdW  Elec       q    Type
REMARK                         _______ _______ _______ _____ _____    ______ ____
ROOT
ATOM      1  N   UNL     1      -1.160  -6.721   0.402  0.00  0.00    -0.304 N 
ATOM      2  C   UNL     1      -1.607  -7.982   0.562  0.00  0.00    +0.265 C 
ATOM      3  O   UNL     1      -0.974  -8.771   1.236  0.00  0.00    -0.268 OA
ATOM      4  H   UNL     1      -1.665  -6.091  -0.136  0.00  0.00    +0.149 HD
ENDROOT
BRANCH   2   5
ATOM      5  C   UNL     1      -2.865  -8.405  -0.081  0.00  0.00    +0.155 A 
ATOM      6  C   UNL     1      -3.490  -9.731  -0.002  0.00  0.00    +0.034 A 
ATOM      7  C   UNL     1      -3.186 -10.938   0.620  0.00  0.00    +0.045 A 
ATOM      8  C   UNL     1      -4.028 -12.005   0.469  0.00  0.00    +0.127 A 
ATOM      9  C   UNL     1      -5.180 -11.891  -0.299  0.00  0.00    +0.035 A 
ATOM     10  C   UNL     1      -5.497 -10.715  -0.918  0.00  0.00    +0.030 A 
ATOM     11  C   UNL     1      -4.658  -9.613  -0.781  0.00  0.00    +0.067 A 
ATOM     12  N   UNL     1      -4.673  -8.325  -1.250  0.00  0.00    -0.276 N 
ATOM     13  H   UNL     1      -5.367  -7.957  -1.819  0.00  0.00    +0.189 HD
ATOM     14  N   UNL     1      -3.652  -7.667  -0.834  0.00  0.00    -0.168 NA
BRANCH   8  15
ATOM     15  N   UNL     1      -3.709 -13.291   1.127  0.00  0.00    +0.056 N 
ATOM     16  O   UNL     1      -2.707 -13.396   1.796  0.00  0.00    -0.126 OA
ATOM     17  O   UNL     1      -4.450 -14.238   0.997  0.00  0.00    -0.126 OA
ENDBRANCH   8  15
ENDBRANCH   2   5
BRANCH   1  18
ATOM     18  C   UNL     1       0.090  -6.300   1.040  0.00  0.00    +0.108 C 
ATOM     19  C   UNL     1       1.272  -6.677   0.145  0.00  0.00    +0.031 C 
BRANCH  18  20
ATOM     20  C   UNL     1       0.072  -4.785   1.249  0.00  0.00    +0.251 C 
BRANCH  20  21
ATOM     21  O   UNL     1       0.057  -4.129  -0.021  0.00  0.00    -0.490 OA
BRANCH  21  26
ATOM     22  C   UNL     1      -0.018   1.503   0.010  0.00  0.00    +0.044 C 
ATOM     23  C   UNL     1       0.002  -0.004   0.002  0.00  0.00    -0.050 A 
ATOM     24  C   UNL     1       0.006  -0.688  -1.200  0.00  0.00    +0.007 A 
ATOM     25  C   UNL     1       0.024  -2.069  -1.210  0.00  0.00    +0.046 A 
ATOM     26  C   UNL     1       0.039  -2.770  -0.013  0.00  0.00    +0.121 A 
ATOM     27  C   UNL     1       0.036  -2.082   1.191  0.00  0.00    +0.046 A 
ATOM     28  C   UNL     1       0.023  -0.701   1.196  0.00  0.00    +0.007 A 
ENDBRANCH  21  26
ENDBRANCH  20  21
ENDBRANCH  18  20
ENDBRANCH   1  18
TORSDOF 6
