REMARK  Name = ZINC38547097
REMARK  10 active torsions:
REMARK  status: ('A' for Active; 'I' for Inactive)
REMARK    1  A    between atoms: C_1  and  C_2
REMARK    2  A    between atoms: C_2  and  C_3
REMARK    3  A    between atoms: C_5  and  C_16
REMARK    4  A    between atoms: C_6  and  N_8
REMARK    5  A    between atoms: C_9  and  C_11
REMARK    6  A    between atoms: C_16  and  C_18
REMARK    7  A    between atoms: C_16  and  N_26
REMARK    8  A    between atoms: C_21  and  O_24
REMARK    9  A    between atoms: O_24  and  C_25
REMARK   10  A    between atoms: C_31  and  C_33
REMARK                            x       y       z     vdW  Elec       q    Type
REMARK                         _______ _______ _______ _____ _____    ______ ____
ROOT
ATOM      1  C   UNL     1       3.909  -1.511  -2.896  0.00  0.00    +0.135 C 
ENDROOT
BRANCH   1   2
ATOM      2  N   UNL     1       4.810  -0.918  -1.905  0.00  0.00    -0.320 N 
ATOM      3  C   UNL     1       5.196   0.412  -2.023  0.00  0.00    +0.097 A 
ATOM      4  C   UNL     1       4.803   1.147  -3.137  0.00  0.00    +0.041 A 
ATOM      5  C   UNL     1       5.194   2.469  -3.243  0.00  0.00    +0.005 A 
ATOM      6  C   UNL     1       5.968   3.014  -2.226  0.00  0.00    +0.021 A 
ATOM      7  C   UNL     1       6.321   2.227  -1.149  0.00  0.00    +0.014 A 
ATOM      8  N   UNL     1       5.929   0.969  -1.073  0.00  0.00    -0.347 N 
ATOM      9  C   UNL     1       7.161   2.813  -0.043  0.00  0.00    +0.063 C 
ATOM     10  H   UNL     1       5.138  -1.454  -1.166  0.00  0.00    +0.148 HD
ATOM     11  H   UNL     1       6.189   0.439  -0.303  0.00  0.00    +0.167 HD
ENDBRANCH   1   2
BRANCH   1  12
ATOM     12  C   UNL     1       4.052  -3.011  -2.872  0.00  0.00    -0.023 A 
ATOM     13  C   UNL     1       4.057  -3.684  -1.665  0.00  0.00    +0.009 A 
ATOM     14  C   UNL     1       4.188  -5.059  -1.640  0.00  0.00    +0.046 A 
ATOM     15  C   UNL     1       4.314  -5.764  -2.828  0.00  0.00    +0.120 A 
ATOM     16  C   UNL     1       4.308  -5.087  -4.038  0.00  0.00    +0.046 A 
ATOM     17  C   UNL     1       4.172  -3.712  -4.058  0.00  0.00    +0.009 A 
BRANCH  15  18
ATOM     18  O   UNL     1       4.444  -7.117  -2.806  0.00  0.00    -0.495 OA
ATOM     19  C   UNL     1       4.569  -7.777  -4.067  0.00  0.00    +0.277 C 
ENDBRANCH  15  18
ENDBRANCH   1  12
BRANCH   1  22
ATOM     20  C   UNL     1       0.830  -0.510  -1.009  0.00  0.00    -0.008 A 
ATOM     21  C   UNL     1       2.117  -0.844  -1.269  0.00  0.00    +0.019 A 
ATOM     22  C   UNL     1       2.486  -1.137  -2.569  0.00  0.00    +0.006 A 
ATOM     23  C   UNL     1       1.541  -1.080  -3.549  0.00  0.00    +0.078 A 
ATOM     24  S   UNL     1       0.085  -0.610  -2.628  0.00  0.00    -0.078 S 
BRANCH  23  25
ATOM     25  N   UNL     1       1.675  -1.330  -4.916  0.00  0.00    -0.273 N 
ATOM     26  C   UNL     1       0.606  -1.219  -5.729  0.00  0.00    +0.284 C 
ATOM     27  O   UNL     1      -0.476  -0.900  -5.272  0.00  0.00    -0.266 OA
ATOM     28  H   UNL     1       2.537  -1.584  -5.280  0.00  0.00    +0.156 HD
BRANCH  26  29
ATOM     29  C   UNL     1       0.747  -1.482  -7.165  0.00  0.00    +0.189 A 
ATOM     30  C   UNL     1      -0.248  -1.401  -8.096  0.00  0.00    +0.054 A 
ATOM     31  C   UNL     1       0.328  -1.732  -9.332  0.00  0.00    +0.042 A 
ATOM     32  C   UNL     1       1.633  -1.997  -9.104  0.00  0.00    +0.196 A 
ATOM     33  O   UNL     1       1.883  -1.841  -7.797  0.00  0.00    -0.458 OA
ENDBRANCH  26  29
ENDBRANCH  23  25
BRANCH  20  35
ATOM     34  C   UNL     1       0.282   1.358   0.526  0.00  0.00    +0.009 C 
ATOM     35  C   UNL     1       0.190  -0.153   0.308  0.00  0.00    +0.039 C 
ENDBRANCH  20  35
ENDBRANCH   1  22
TORSDOF 7
