REMARK  Name = ZINC61900152
REMARK  6 active torsions:
REMARK  status: ('A' for Active; 'I' for Inactive)
REMARK    1  A    between atoms: C_1  and  C_2
REMARK    2  A    between atoms: C_3  and  C_9
REMARK    3  A    between atoms: N_5  and  C_7
REMARK    4  A    between atoms: N_11  and  C_12
REMARK    5  A    between atoms: C_12  and  C_13
REMARK    6  A    between atoms: C_22  and  C_25
REMARK                            x       y       z     vdW  Elec       q    Type
REMARK                         _______ _______ _______ _____ _____    ______ ____
ROOT
ATOM      1  C   UNL     1      -2.618   0.399  -5.049  0.00  0.00    -0.014 A 
ATOM      2  C   UNL     1      -3.277  -0.688  -5.607  0.00  0.00    +0.010 A 
ATOM      3  C   UNL     1      -4.585  -0.523  -6.025  0.00  0.00    +0.042 A 
ATOM      4  C   UNL     1      -5.192   0.719  -5.873  0.00  0.00    +0.099 A 
ATOM      5  N   UNL     1      -4.530   1.732  -5.336  0.00  0.00    -0.349 N 
ATOM      6  C   UNL     1      -3.283   1.602  -4.923  0.00  0.00    +0.089 A 
ATOM      7  N   UNL     1      -6.506   0.899  -6.290  0.00  0.00    -0.317 N 
ATOM      8  C   UNL     1      -7.217  -0.169  -7.006  0.00  0.00    +0.107 C 
ATOM      9  C   UNL     1      -7.774   0.402  -8.314  0.00  0.00    +0.022 C 
ATOM     10  C   UNL     1      -8.632   1.631  -8.006  0.00  0.00    -0.011 C 
ATOM     11  C   UNL     1      -7.767   2.704  -7.341  0.00  0.00    +0.022 C 
ATOM     12  C   UNL     1      -7.212   2.158  -6.016  0.00  0.00    +0.107 C 
ATOM     13  C   UNL     1      -9.218   2.183  -9.307  0.00  0.00    +0.007 C 
ATOM     14  H   UNL     1      -4.973   2.590  -5.241  0.00  0.00    +0.167 HD
ENDROOT
BRANCH   1  15
ATOM     15  C   UNL     1      -1.192   0.266  -4.579  0.00  0.00    +0.141 C 
BRANCH  15  18
ATOM     16  C   UNL     1      -0.003  -0.340  -2.540  0.00  0.00    +0.249 C 
ATOM     17  O   UNL     1       1.044  -0.157  -3.131  0.00  0.00    -0.270 OA
ATOM     18  N   UNL     1      -1.177  -0.155  -3.176  0.00  0.00    -0.307 N 
ATOM     19  H   UNL     1      -2.012  -0.301  -2.705  0.00  0.00    +0.149 HD
BRANCH  16  22
ATOM     20  C   UNL     1       0.004   1.591  -0.022  0.00  0.00    +0.068 C 
ATOM     21  C   UNL     1       0.014   0.084   0.001  0.00  0.00    +0.074 A 
ATOM     22  C   UNL     1       0.012  -0.764  -1.130  0.00  0.00    +0.096 A 
ATOM     23  C   UNL     1       0.025  -2.065  -0.663  0.00  0.00    +0.139 A 
ATOM     24  N   UNL     1       0.035  -2.010   0.679  0.00  0.00    -0.255 N 
ATOM     25  N   UNL     1       0.033  -0.666   1.068  0.00  0.00    -0.175 NA
ATOM     26  C   UNL     1       0.050  -3.163   1.583  0.00  0.00    +0.174 C 
ATOM     27 CL   UNL     1       0.027  -3.505  -1.633  0.00  0.00    -0.062 Cl
ENDBRANCH  16  22
ENDBRANCH  15  18
ENDBRANCH   1  15
TORSDOF 3
