REMARK  Name = ZINC36146506
REMARK  14 active torsions:
REMARK  status: ('A' for Active; 'I' for Inactive)
REMARK    1  A    between atoms: C_1  and  C_2
REMARK    2  A    between atoms: C_2  and  C_3
REMARK    3  A    between atoms: C_2  and  C_4
REMARK    4  A    between atoms: C_2  and  O_5
REMARK    5  A    between atoms: O_5  and  C_6
REMARK    6  A    between atoms: C_6  and  C_7
REMARK    7  A    between atoms: C_7  and  C_9
REMARK    8  A    between atoms: C_7  and  O_35
REMARK    9  A    between atoms: C_9  and  N_10
REMARK   10  A    between atoms: N_10  and  C_11
REMARK   11  A    between atoms: N_10  and  C_19
REMARK   12  A    between atoms: C_11  and  C_12
REMARK   13  A    between atoms: C_19  and  C_20
REMARK   14  A    between atoms: C_23  and  C_26
REMARK                            x       y       z     vdW  Elec       q    Type
REMARK                         _______ _______ _______ _____ _____    ______ ____
ROOT
ATOM      1  N   UNL     1       4.844  -0.548  -4.082  0.00  0.00    +0.387 N 
ATOM      2  H   UNL     1       4.912  -1.525  -4.323  0.00  0.00    -0.081 HD
ENDROOT
BRANCH   1   3
ATOM      3  C   UNL     1       4.327  -0.416  -2.713  0.00  0.00    -0.044 C 
BRANCH   3   4
ATOM      4  C   UNL     1       3.001  -1.168  -2.594  0.00  0.00    +0.124 C 
BRANCH   4   5
ATOM      5  O   UNL     1       3.228  -2.567  -2.779  0.00  0.00    -0.391 OA
ATOM      6  H   UNL     1       3.835  -2.955  -2.134  0.00  0.00    +0.210 HD
ENDBRANCH   4   5
BRANCH   4   7
ATOM      7  C   UNL     1       2.401  -0.928  -1.206  0.00  0.00    +0.189 C 
BRANCH   7   8
ATOM      8  O   UNL     1       1.109  -1.534  -1.135  0.00  0.00    -0.372 OA
BRANCH   8  10
ATOM      9  C   UNL     1       0.274   0.124   0.413  0.00  0.00    +0.041 C 
ATOM     10  C   UNL     1       0.459  -1.368   0.127  0.00  0.00    +0.061 C 
ATOM     11  C   UNL     1       1.314  -1.996   1.229  0.00  0.00    +0.041 C 
ATOM     12  C   UNL     1      -0.909  -2.052   0.089  0.00  0.00    +0.041 C 
ENDBRANCH   8  10
ENDBRANCH   7   8
ENDBRANCH   4   7
ENDBRANCH   3   4
ENDBRANCH   1   3
BRANCH   1  13
ATOM     13  C   UNL     1       3.931   0.124  -5.016  0.00  0.00    -0.043 C 
BRANCH  13  14
ATOM     14  C   UNL     1       3.792   1.573  -4.629  0.00  0.00    -0.064 A 
ATOM     15  C   UNL     1       2.833   1.954  -3.709  0.00  0.00    +0.004 A 
ATOM     16  C   UNL     1       2.705   3.283  -3.353  0.00  0.00    +0.038 A 
ATOM     17  C   UNL     1       3.539   4.234  -3.917  0.00  0.00    +0.123 A 
ATOM     18  C   UNL     1       4.499   3.852  -4.838  0.00  0.00    +0.038 A 
ATOM     19  C   UNL     1       4.628   2.521  -5.189  0.00  0.00    +0.004 A 
ATOM     20  F   UNL     1       3.414   5.534  -3.570  0.00  0.00    -0.205 F 
ENDBRANCH  13  14
ENDBRANCH   1  13
BRANCH   1  21
ATOM     21  C   UNL     1       6.173   0.072  -4.166  0.00  0.00    -0.030 C 
BRANCH  21  22
ATOM     22  C   UNL     1       6.806  -0.260  -5.519  0.00  0.00    +0.194 C 
ATOM     23  C   UNL     1       8.210   0.379  -5.645  0.00  0.00    +0.104 C 
ATOM     24  C   UNL     1       8.250   0.801  -7.101  0.00  0.00    +0.091 C 
ATOM     25  N   UNL     1       7.044   0.777  -7.563  0.00  0.00    -0.089 NA
ATOM     26  O   UNL     1       6.092   0.383  -6.594  0.00  0.00    -0.392 OA
BRANCH  24  27
ATOM     27  C   UNL     1       9.458   1.176  -7.860  0.00  0.00    +0.003 A 
ATOM     28  C   UNL     1      10.709   1.155  -7.239  0.00  0.00    +0.013 A 
ATOM     29  C   UNL     1      11.837   1.506  -7.949  0.00  0.00    +0.050 A 
ATOM     30  C   UNL     1      11.735   1.880  -9.282  0.00  0.00    +0.166 A 
ATOM     31  C   UNL     1      10.489   1.903  -9.908  0.00  0.00    +0.167 A 
ATOM     32  C   UNL     1       9.355   1.547  -9.203  0.00  0.00    +0.059 A 
ATOM     33  O   UNL     1      10.659   2.301 -11.203  0.00  0.00    -0.453 OA
ATOM     34  C   UNL     1      11.962   2.914 -11.248  0.00  0.00    +0.466 C 
ATOM     35  O   UNL     1      12.683   2.263 -10.186  0.00  0.00    -0.453 OA
ENDBRANCH  24  27
ENDBRANCH  21  22
ENDBRANCH   1  21
TORSDOF 11
