REMARK  Name = ZINC09749642
REMARK  5 active torsions:
REMARK  status: ('A' for Active; 'I' for Inactive)
REMARK    1  A    between atoms: C_1  and  N_48
REMARK    2  A    between atoms: C_2  and  C_3
REMARK    3  A    between atoms: C_2  and  N_48
REMARK    4  A    between atoms: N_5  and  C_6
REMARK    5  A    between atoms: C_18  and  N_48
REMARK                            x       y       z     vdW  Elec       q    Type
REMARK                         _______ _______ _______ _____ _____    ______ ____
ROOT
ATOM      1  C   UNL     1      -0.019  -4.148   1.335  0.00  0.00    +0.201 C 
ATOM      2  O   UNL     1      -0.720  -4.218   2.323  0.00  0.00    -0.278 OA
ATOM      3  N   UNL     1       0.951  -5.061   1.130  0.00  0.00    -0.287 N 
ATOM      4  H   UNL     1       1.464  -5.047   0.307  0.00  0.00    +0.155 HD
ENDROOT
BRANCH   3   5
ATOM      5  C   UNL     1       1.218  -6.030   2.106  0.00  0.00    +0.035 A 
ATOM      6  C   UNL     1       1.646  -7.298   1.726  0.00  0.00    +0.025 A 
ATOM      7  C   UNL     1       1.911  -8.257   2.682  0.00  0.00    +0.029 A 
ATOM      8  C   UNL     1       1.750  -7.957   4.027  0.00  0.00    +0.067 A 
ATOM      9  C   UNL     1       1.320  -6.685   4.411  0.00  0.00    +0.069 A 
ATOM     10  C   UNL     1       1.060  -5.722   3.449  0.00  0.00    +0.051 A 
ATOM     11  N   UNL     1       1.254  -6.686   5.803  0.00  0.00    -0.306 N 
ATOM     12  H   UNL     1       0.985  -5.938   6.358  0.00  0.00    +0.170 HD
ATOM     13  C   UNL     1       1.626  -7.902   6.245  0.00  0.00    +0.325 A 
ATOM     14  O   UNL     1       1.678  -8.237   7.414  0.00  0.00    -0.247 OA
ATOM     15  N   UNL     1       1.931  -8.692   5.198  0.00  0.00    -0.306 N 
ATOM     16  H   UNL     1       2.227  -9.614   5.250  0.00  0.00    +0.170 HD
ENDBRANCH   3   5
BRANCH   1  17
ATOM     17  C   UNL     1      -0.234  -3.040   0.337  0.00  0.00    +0.019 C 
BRANCH  17  19
ATOM     18  C   UNL     1      -2.630  -2.872   0.637  0.00  0.00    -0.095 C 
ATOM     19  N   UNL     1      -1.337  -2.179   0.813  0.00  0.00    +0.388 N 
ATOM     20  H   UNL     1      -1.198  -1.980   1.811  0.00  0.00    -0.081 HD
BRANCH  19  21
ATOM     21  C   UNL     1      -1.341  -0.904   0.066  0.00  0.00    -0.037 C 
ATOM     22  C   UNL     1      -1.707  -1.148  -1.397  0.00  0.00    -0.010 C 
ATOM     23  C   UNL     1      -1.911   0.211  -2.078  0.00  0.00    +0.003 C 
ATOM     24  C   UNL     1      -3.189   0.840  -1.526  0.00  0.00    +0.035 C 
ATOM     25  C   UNL     1      -3.173   0.838  -0.020  0.00  0.00    -0.046 A 
ATOM     26  C   UNL     1      -2.333   0.029   0.711  0.00  0.00    -0.058 A 
ATOM     27  C   UNL     1      -2.380   0.062   2.099  0.00  0.00    +0.002 A 
ATOM     28  C   UNL     1      -3.258   0.904   2.750  0.00  0.00    +0.000 A 
ATOM     29  C   UNL     1      -4.098   1.721   2.016  0.00  0.00    +0.000 A 
ATOM     30  C   UNL     1      -4.054   1.686   0.637  0.00  0.00    +0.004 A 
ENDBRANCH  19  21
ENDBRANCH  17  19
ENDBRANCH   1  17
TORSDOF 4
