REMARK  Name = ZINC00268496
REMARK  3 active torsions:
REMARK  status: ('A' for Active; 'I' for Inactive)
REMARK    1  A    between atoms: C_4  and  C_7
REMARK    2  A    between atoms: N_16  and  C_17
REMARK    3  A    between atoms: C_20  and  C_22
REMARK                            x       y       z     vdW  Elec       q    Type
REMARK                         _______ _______ _______ _____ _____    ______ ____
ROOT
ATOM      1  C   UNL     1       2.415   3.937  -0.000  0.00  0.00    +0.013 C 
ATOM      2  C   UNL     1       2.341   5.277  -0.081  0.00  0.00    -0.026 C 
ATOM      3  C   UNL     1       3.593   6.118  -0.199  0.00  0.00    +0.037 C 
ATOM      4  C   UNL     1       3.396   7.341   0.709  0.00  0.00    +0.009 C 
ATOM      5  C   UNL     1       2.204   8.145   0.199  0.00  0.00    +0.035 C 
ATOM      6  C   UNL     1       0.967   7.291   0.085  0.00  0.00    -0.024 C 
ATOM      7  C   UNL     1       1.036   5.967  -0.064  0.00  0.00    +0.038 C 
ATOM      8  N   UNL     1      -0.120   5.184  -0.221  0.00  0.00    -0.286 N 
ATOM      9  C   UNL     1      -1.344   5.776  -0.007  0.00  0.00    +0.196 C 
ATOM     10  N   UNL     1      -2.368   5.122   0.514  0.00  0.00    -0.142 NA
ATOM     11  N   UNL     1      -1.424   7.104  -0.376  0.00  0.00    -0.306 N 
ATOM     12  C   UNL     1      -0.373   7.993   0.153  0.00  0.00    +0.131 C 
ATOM     13  H   UNL     1      -0.057   4.250  -0.474  0.00  0.00    +0.155 HD
ATOM     14  H   UNL     1      -2.135   7.434  -0.947  0.00  0.00    +0.150 HD
ENDROOT
BRANCH   1  18
ATOM     15  C   UNL     1      -0.871   1.715   1.506  0.00  0.00    +0.000 A 
ATOM     16  C   UNL     1      -0.537   2.927   2.084  0.00  0.00    +0.001 A 
ATOM     17  C   UNL     1       0.531   3.654   1.601  0.00  0.00    +0.008 A 
ATOM     18  C   UNL     1       1.272   3.166   0.521  0.00  0.00    -0.025 A 
ATOM     19  C   UNL     1       0.925   1.944  -0.061  0.00  0.00    +0.008 A 
ATOM     20  C   UNL     1      -0.146   1.229   0.432  0.00  0.00    +0.001 A 
ENDBRANCH   1  18
BRANCH  12  21
ATOM     21  C   UNL     1      -0.676   8.357   1.584  0.00  0.00    -0.023 A 
ATOM     22  C   UNL     1      -1.177   7.401   2.449  0.00  0.00    +0.006 A 
ATOM     23  C   UNL     1      -1.450   7.733   3.763  0.00  0.00    +0.000 A 
ATOM     24  C   UNL     1      -1.232   9.023   4.209  0.00  0.00    +0.000 A 
ATOM     25  C   UNL     1      -0.736   9.980   3.343  0.00  0.00    +0.000 A 
ATOM     26  C   UNL     1      -0.459   9.647   2.031  0.00  0.00    +0.006 A 
ENDBRANCH  12  21
BRANCH  10  27
ATOM     27  C   UNL     1      -3.551   5.754   0.703  0.00  0.00    +0.208 C 
ATOM     28  N   UNL     1      -4.543   6.284   0.861  0.00  0.00    -0.169 NA
ENDBRANCH  10  27
TORSDOF 3
