REMARK  Name = ZINC15693291
REMARK  8 active torsions:
REMARK  status: ('A' for Active; 'I' for Inactive)
REMARK    1  A    between atoms: C_1  and  C_2
REMARK    2  A    between atoms: C_2  and  C_4
REMARK    3  A    between atoms: C_2  and  O_17
REMARK    4  A    between atoms: N_6  and  C_7
REMARK    5  A    between atoms: C_12  and  C_13
REMARK    6  A    between atoms: O_17  and  C_18
REMARK    7  A    between atoms: C_18  and  C_20
REMARK    8  A    between atoms: C_24  and  N_26
REMARK                            x       y       z     vdW  Elec       q    Type
REMARK                         _______ _______ _______ _____ _____    ______ ____
ROOT
ATOM      1  C   UNL     1      -0.036   1.513   0.003  0.00  0.00    +0.062 C 
ATOM      2  C   UNL     1      -0.006  -0.017   0.001  0.00  0.00    +0.259 C 
ENDROOT
BRANCH   2   3
ATOM      3  C   UNL     1       0.729  -0.506   1.223  0.00  0.00    +0.258 C 
ATOM      4  O   UNL     1       1.776  -1.106   1.100  0.00  0.00    -0.271 OA
ATOM      5  N   UNL     1       0.223  -0.277   2.451  0.00  0.00    -0.282 N 
ATOM      6  H   UNL     1      -0.571   0.272   2.554  0.00  0.00    +0.155 HD
BRANCH   5   7
ATOM      7  C   UNL     1       0.843  -0.829   3.577  0.00  0.00    +0.045 A 
ATOM      8  C   UNL     1       1.613  -1.978   3.454  0.00  0.00    +0.024 A 
ATOM      9  C   UNL     1       2.224  -2.521   4.568  0.00  0.00    +0.002 A 
ATOM     10  C   UNL     1       2.068  -1.921   5.804  0.00  0.00    +0.001 A 
ATOM     11  C   UNL     1       1.301  -0.777   5.930  0.00  0.00    +0.014 A 
ATOM     12  C   UNL     1       0.694  -0.226   4.819  0.00  0.00    +0.076 A 
BRANCH  12  13
ATOM     13  C   UNL     1      -0.136   1.025   4.955  0.00  0.00    +0.419 C 
ATOM     14  F   UNL     1      -0.136   1.440   6.291  0.00  0.00    -0.166 F 
ATOM     15  F   UNL     1       0.407   2.034   4.153  0.00  0.00    -0.166 F 
ATOM     16  F   UNL     1      -1.448   0.761   4.549  0.00  0.00    -0.166 F 
ENDBRANCH  12  13
ENDBRANCH   5   7
ENDBRANCH   2   3
BRANCH   2  17
ATOM     17  O   UNL     1       0.662  -0.479  -1.174  0.00  0.00    -0.449 OA
BRANCH  17  18
ATOM     18  C   UNL     1      -0.098  -0.697  -2.264  0.00  0.00    +0.340 C 
ATOM     19  O   UNL     1      -1.296  -0.500  -2.219  0.00  0.00    -0.245 OA
BRANCH  18  20
ATOM     20  C   UNL     1       0.524  -1.176  -3.515  0.00  0.00    +0.061 A 
ATOM     21  C   UNL     1       1.901  -1.409  -3.568  0.00  0.00    +0.016 A 
ATOM     22  C   UNL     1       2.480  -1.856  -4.737  0.00  0.00    +0.022 A 
ATOM     23  C   UNL     1       1.702  -2.076  -5.861  0.00  0.00    +0.062 A 
ATOM     24  C   UNL     1       0.330  -1.847  -5.818  0.00  0.00    +0.044 A 
ATOM     25  C   UNL     1      -0.262  -1.402  -4.646  0.00  0.00    +0.039 A 
ATOM     26 CL   UNL     1       2.439  -2.638  -7.328  0.00  0.00    -0.082 Cl
BRANCH  24  27
ATOM     27  N   UNL     1      -0.452  -2.069  -6.955  0.00  0.00    -0.357 N 
ATOM     28  H   UNL     1      -0.038  -2.384  -7.774  0.00  0.00    +0.142 HD
ATOM     29  H   UNL     1      -1.408  -1.910  -6.925  0.00  0.00    +0.142 HD
ENDBRANCH  24  27
ENDBRANCH  18  20
ENDBRANCH  17  18
ENDBRANCH   2  17
TORSDOF 7
