REMARK  Name = ZINC09562288
REMARK  10 active torsions:
REMARK  status: ('A' for Active; 'I' for Inactive)
REMARK    1  A    between atoms: C_1  and  C_2
REMARK    2  A    between atoms: C_2  and  N_3
REMARK    3  A    between atoms: N_3  and  C_4
REMARK    4  A    between atoms: N_3  and  S_6
REMARK    5  A    between atoms: C_4  and  C_5
REMARK    6  A    between atoms: S_6  and  C_9
REMARK    7  A    between atoms: C_13  and  N_15
REMARK    8  A    between atoms: C_25  and  N_26
REMARK    9  A    between atoms: N_26  and  C_27
REMARK   10  A    between atoms: C_32  and  O_33
REMARK                            x       y       z     vdW  Elec       q    Type
REMARK                         _______ _______ _______ _____ _____    ______ ____
ROOT
ATOM      1  N   UNL     1       1.404   2.264  -6.297  0.00  0.00    -0.202 N 
ATOM      2  C   UNL     1       2.507   1.500  -6.359  0.00  0.00    +0.258 C 
ATOM      3  O   UNL     1       2.612   0.540  -5.620  0.00  0.00    -0.269 OA
ATOM      4  C   UNL     1       3.588   1.805  -7.304  0.00  0.00    +0.046 A 
ATOM      5  C   UNL     1       4.737   1.016  -7.375  0.00  0.00    +0.014 A 
ATOM      6  C   UNL     1       5.729   1.335  -8.276  0.00  0.00    +0.001 A 
ATOM      7  C   UNL     1       5.600   2.433  -9.114  0.00  0.00    +0.001 A 
ATOM      8  C   UNL     1       4.473   3.227  -9.060  0.00  0.00    +0.009 A 
ATOM      9  C   UNL     1       3.460   2.921  -8.158  0.00  0.00    +0.000 A 
ATOM     10  C   UNL     1       2.232   3.737  -8.060  0.00  0.00    +0.059 C 
ATOM     11  C   UNL     1       2.047   4.839  -8.867  0.00  0.00    +0.086 C 
ATOM     12  C   UNL     1       1.214   3.336  -7.083  0.00  0.00    +0.259 C 
ATOM     13  O   UNL     1       0.189   3.984  -6.981  0.00  0.00    -0.269 OA
ENDROOT
BRANCH   1  18
ATOM     14  C   UNL     1      -1.868   1.324  -4.903  0.00  0.00    +0.107 A 
ATOM     15  C   UNL     1      -1.568   1.253  -3.555  0.00  0.00    +0.028 A 
ATOM     16  C   UNL     1      -0.284   1.518  -3.115  0.00  0.00    +0.004 A 
ATOM     17  C   UNL     1       0.703   1.853  -4.021  0.00  0.00    +0.024 A 
ATOM     18  C   UNL     1       0.405   1.924  -5.375  0.00  0.00    +0.046 A 
ATOM     19  C   UNL     1      -0.884   1.653  -5.815  0.00  0.00    +0.052 A 
BRANCH  14  20
ATOM     20  S   UNL     1      -3.505   0.986  -5.460  0.00  0.00    +0.061 S 
ATOM     21  O   UNL     1      -3.654   1.647  -6.709  0.00  0.00    -0.153 OA
ATOM     22  O   UNL     1      -4.368   1.236  -4.358  0.00  0.00    -0.153 OA
BRANCH  20  23
ATOM     23  N   UNL     1      -3.592  -0.638  -5.769  0.00  0.00    -0.177 NA
BRANCH  23  25
ATOM     24  C   UNL     1      -2.747  -2.133  -4.028  0.00  0.00    +0.022 C 
ATOM     25  C   UNL     1      -3.994  -1.566  -4.709  0.00  0.00    +0.106 C 
ENDBRANCH  23  25
BRANCH  23  26
ATOM     26  C   UNL     1      -3.267  -1.147  -7.104  0.00  0.00    +0.106 C 
ATOM     27  C   UNL     1      -4.552  -1.294  -7.921  0.00  0.00    +0.022 C 
ENDBRANCH  23  26
ENDBRANCH  20  23
ENDBRANCH  14  20
ENDBRANCH   1  18
BRANCH  11  28
ATOM     28  N   UNL     1       0.992   5.668  -8.652  0.00  0.00    -0.317 N 
ATOM     29  H   UNL     1       0.417   5.532  -7.883  0.00  0.00    +0.152 HD
BRANCH  28  30
ATOM     30  C   UNL     1       0.735   6.718  -9.540  0.00  0.00    +0.073 A 
ATOM     31  C   UNL     1       1.553   6.911 -10.645  0.00  0.00    +0.027 A 
ATOM     32  C   UNL     1       1.297   7.948 -11.521  0.00  0.00    +0.002 A 
ATOM     33  C   UNL     1       0.228   8.796 -11.300  0.00  0.00    +0.004 A 
ATOM     34  C   UNL     1      -0.592   8.611 -10.202  0.00  0.00    +0.047 A 
ATOM     35  C   UNL     1      -0.346   7.570  -9.322  0.00  0.00    +0.138 A 
BRANCH  35  36
ATOM     36  O   UNL     1      -1.154   7.383  -8.245  0.00  0.00    -0.505 OA
ATOM     37  H   UNL     1      -0.872   7.861  -7.453  0.00  0.00    +0.292 HD
ENDBRANCH  35  36
ENDBRANCH  28  30
ENDBRANCH  11  28
TORSDOF 8
