REMARK  Name = ZINC59286732
REMARK  13 active torsions:
REMARK  status: ('A' for Active; 'I' for Inactive)
REMARK    1  A    between atoms: C_1  and  C_2
REMARK    2  A    between atoms: C_5  and  C_34
REMARK    3  A    between atoms: N_8  and  C_10
REMARK    4  A    between atoms: C_10  and  C_11
REMARK    5  A    between atoms: C_16  and  C_17
REMARK    6  A    between atoms: C_17  and  N_18
REMARK    7  A    between atoms: C_19  and  C_21
REMARK    8  A    between atoms: C_24  and  S_26
REMARK    9  A    between atoms: S_26  and  N_29
REMARK   10  A    between atoms: N_29  and  C_30
REMARK   11  A    between atoms: C_30  and  C_31
REMARK   12  A    between atoms: C_30  and  C_32
REMARK   13  A    between atoms: C_30  and  C_33
REMARK                            x       y       z     vdW  Elec       q    Type
REMARK                         _______ _______ _______ _____ _____    ______ ____
ROOT
ATOM      1  N   UNL     1       2.188  -0.014   4.788  0.00  0.00    -0.305 N 
ATOM      2  C   UNL     1       1.215   0.676   5.415  0.00  0.00    +0.280 C 
ATOM      3  O   UNL     1       0.585   1.525   4.811  0.00  0.00    -0.267 OA
ATOM      4  H   UNL     1       2.690  -0.690   5.269  0.00  0.00    +0.149 HD
ENDROOT
BRANCH   2   5
ATOM      5  C   UNL     1       0.916   0.406   6.825  0.00  0.00    +0.192 A 
ATOM      6  C   UNL     1      -0.042   1.026   7.575  0.00  0.00    +0.057 A 
ATOM      7  C   UNL     1       0.021   0.459   8.857  0.00  0.00    +0.072 A 
ATOM      8  C   UNL     1       1.001  -0.471   8.834  0.00  0.00    +0.258 A 
ATOM      9  O   UNL     1       1.535  -0.503   7.606  0.00  0.00    -0.432 OA
BRANCH   8  10
ATOM     10  S   UNL     1       1.493  -1.478  10.194  0.00  0.00    +0.092 S 
ATOM     11  O   UNL     1       2.781  -1.988   9.876  0.00  0.00    -0.150 OA
ATOM     12  O   UNL     1       1.242  -0.722  11.371  0.00  0.00    -0.150 OA
BRANCH  10  13
ATOM     13  N   UNL     1       0.467  -2.776  10.238  0.00  0.00    -0.182 NA
ATOM     14  H   UNL     1      -0.163  -2.873  10.969  0.00  0.00    +0.149 HD
BRANCH  13  15
ATOM     15  C   UNL     1       0.509  -3.780   9.171  0.00  0.00    +0.032 C 
ATOM     16  C   UNL     1       1.849  -4.517   9.217  0.00  0.00    +0.029 C 
ATOM     17  C   UNL     1      -0.630  -4.782   9.367  0.00  0.00    +0.029 C 
ATOM     18  C   UNL     1       0.353  -3.090   7.815  0.00  0.00    +0.029 C 
ENDBRANCH  13  15
ENDBRANCH  10  13
ENDBRANCH   8  10
ENDBRANCH   2   5
BRANCH   1  19
ATOM     19  C   UNL     1       2.487   0.256   3.379  0.00  0.00    +0.140 C 
BRANCH  19  25
ATOM     20  C   UNL     1       3.368  -1.987   2.704  0.00  0.00    -0.059 A 
ATOM     21  C   UNL     1       4.393  -2.811   2.279  0.00  0.00    +0.002 A 
ATOM     22  C   UNL     1       5.658  -2.292   2.076  0.00  0.00    +0.000 A 
ATOM     23  C   UNL     1       5.898  -0.949   2.299  0.00  0.00    +0.000 A 
ATOM     24  C   UNL     1       4.872  -0.125   2.723  0.00  0.00    +0.005 A 
ATOM     25  C   UNL     1       3.606  -0.643   2.922  0.00  0.00    -0.029 A 
BRANCH  20  26
ATOM     26  C   UNL     1       1.989  -2.553   2.926  0.00  0.00    -0.043 C 
BRANCH  26  32
ATOM     27  C   UNL     1       2.133  -5.039  -1.290  0.00  0.00    +0.005 C 
ATOM     28  C   UNL     1       2.015  -5.165   0.230  0.00  0.00    -0.031 C 
ATOM     29  C   UNL     1       0.704  -5.874   0.584  0.00  0.00    +0.003 C 
ATOM     30  C   UNL     1       0.558  -5.925   2.108  0.00  0.00    -0.031 C 
ATOM     31  C   UNL     1       0.618  -4.503   2.669  0.00  0.00    -0.075 C 
ATOM     32  N   UNL     1       1.905  -3.889   2.319  0.00  0.00    +0.383 N 
ATOM     33  C   UNL     1       2.022  -3.771   0.861  0.00  0.00    -0.075 C 
ATOM     34  C   UNL     1       1.696  -6.758   2.702  0.00  0.00    +0.005 C 
ATOM     35  H   UNL     1       2.657  -4.463   2.670  0.00  0.00    -0.081 HD
ENDBRANCH  26  32
ENDBRANCH  20  26
ENDBRANCH  19  25
ENDBRANCH   1  19
TORSDOF 8
