REMARK  Name = ZINC00309745
REMARK  3 active torsions:
REMARK  status: ('A' for Active; 'I' for Inactive)
REMARK    1  A    between atoms: C_1  and  C_2
REMARK    2  A    between atoms: C_5  and  N_9
REMARK    3  A    between atoms: C_10  and  C_21
REMARK                            x       y       z     vdW  Elec       q    Type
REMARK                         _______ _______ _______ _____ _____    ______ ____
ROOT
ATOM      1  N   UNL     1      -1.264   5.936   0.258  0.00  0.00    -0.244 N 
ATOM      2  C   UNL     1      -2.482   5.160   0.493  0.00  0.00    +0.198 C 
ATOM      3  N   UNL     1      -2.366   3.833  -0.123  0.00  0.00    -0.321 N 
ATOM      4  C   UNL     1      -1.173   3.132   0.016  0.00  0.00    +0.041 A 
ATOM      5  C   UNL     1      -1.135   1.748  -0.004  0.00  0.00    +0.024 A 
ATOM      6  C   UNL     1       0.075   1.095   0.129  0.00  0.00    +0.002 A 
ATOM      7  C   UNL     1       1.252   1.814   0.271  0.00  0.00    +0.001 A 
ATOM      8  C   UNL     1       1.231   3.193   0.292  0.00  0.00    +0.015 A 
ATOM      9  C   UNL     1       0.017   3.864   0.169  0.00  0.00    +0.058 A 
ATOM     10  C   UNL     1      -0.059   5.335   0.185  0.00  0.00    +0.254 C 
ATOM     11  O   UNL     1       0.957   6.003   0.132  0.00  0.00    -0.270 OA
ATOM     12  H   UNL     1      -3.108   3.452  -0.619  0.00  0.00    +0.148 HD
ENDROOT
BRANCH   1  17
ATOM     13  C   UNL     1      -1.616  11.564  -0.356  0.00  0.00    +0.045 C 
ATOM     14  C   UNL     1      -1.523  10.069  -0.194  0.00  0.00    -0.032 A 
ATOM     15  C   UNL     1      -0.731   9.532   0.805  0.00  0.00    +0.006 A 
ATOM     16  C   UNL     1      -0.643   8.162   0.957  0.00  0.00    +0.024 A 
ATOM     17  C   UNL     1      -1.351   7.323   0.106  0.00  0.00    +0.040 A 
ATOM     18  C   UNL     1      -2.141   7.864  -0.899  0.00  0.00    +0.043 A 
ATOM     19  C   UNL     1      -2.229   9.236  -1.044  0.00  0.00    +0.046 A 
ATOM     20 CL   UNL     1      -3.221   9.915  -2.296  0.00  0.00    -0.083 Cl
ENDBRANCH   1  17
BRANCH   2  21
ATOM     21  C   UNL     1      -2.695   5.003   1.977  0.00  0.00    -0.009 A 
ATOM     22  C   UNL     1      -2.231   5.971   2.848  0.00  0.00    +0.007 A 
ATOM     23  C   UNL     1      -2.430   5.830   4.208  0.00  0.00    +0.000 A 
ATOM     24  C   UNL     1      -3.086   4.716   4.699  0.00  0.00    +0.000 A 
ATOM     25  C   UNL     1      -3.545   3.746   3.829  0.00  0.00    +0.000 A 
ATOM     26  C   UNL     1      -3.350   3.889   2.468  0.00  0.00    +0.007 A 
ENDBRANCH   2  21
TORSDOF 2
