REMARK  Name = ZINC20170893
REMARK  8 active torsions:
REMARK  status: ('A' for Active; 'I' for Inactive)
REMARK    1  A    between atoms: C_1  and  C_2
REMARK    2  A    between atoms: C_2  and  O_3
REMARK    3  A    between atoms: O_3  and  C_4
REMARK    4  A    between atoms: C_4  and  C_6
REMARK    5  A    between atoms: C_8  and  C_26
REMARK    6  A    between atoms: C_13  and  C_20
REMARK    7  A    between atoms: C_14  and  C_18
REMARK    8  A    between atoms: C_15  and  N_17
REMARK                            x       y       z     vdW  Elec       q    Type
REMARK                         _______ _______ _______ _____ _____    ______ ____
ROOT
ATOM      1  C   UNL     1      -2.959  -2.442   0.096  0.00  0.00    +0.195 C 
ATOM      2  C   UNL     1      -2.771  -3.947  -0.092  0.00  0.00    +0.077 C 
ATOM      3  C   UNL     1      -2.337  -4.207  -1.533  0.00  0.00    +0.016 A 
ATOM      4  C   UNL     1      -1.516  -5.277  -1.921  0.00  0.00    +0.086 A 
ATOM      5  C   UNL     1      -1.224  -5.373  -3.311  0.00  0.00    +0.044 A 
ATOM      6  C   UNL     1      -0.445  -6.353  -3.870  0.00  0.00    -0.014 A 
ATOM      7  C   UNL     1       0.071  -7.295  -2.955  0.00  0.00    +0.095 A 
ATOM      8  C   UNL     1      -0.236  -7.171  -1.588  0.00  0.00    +0.135 A 
ATOM      9  N   UNL     1      -0.991  -6.212  -1.088  0.00  0.00    -0.230 NA
ATOM     10  C   UNL     1      -0.161  -6.418  -5.349  0.00  0.00    +0.046 C 
ATOM     11  S   UNL     1      -2.078  -3.994  -4.011  0.00  0.00    -0.071 S 
ATOM     12  C   UNL     1      -2.769  -3.352  -2.512  0.00  0.00    +0.078 A 
ATOM     13  N   UNL     1      -3.560  -2.244  -2.307  0.00  0.00    -0.279 N 
ATOM     14  C   UNL     1      -3.751  -1.838  -1.031  0.00  0.00    +0.232 C 
ATOM     15  O   UNL     1      -4.570  -0.976  -0.793  0.00  0.00    -0.275 OA
ATOM     16  H   UNL     1      -3.966  -1.771  -3.051  0.00  0.00    +0.155 HD
ENDROOT
BRANCH   2  17
ATOM     17  C   UNL     1      -1.713  -4.447   0.857  0.00  0.00    -0.020 A 
ATOM     18  C   UNL     1      -2.076  -5.174   1.976  0.00  0.00    +0.006 A 
ATOM     19  C   UNL     1      -1.105  -5.632   2.847  0.00  0.00    +0.000 A 
ATOM     20  C   UNL     1       0.228  -5.364   2.600  0.00  0.00    +0.001 A 
ATOM     21  C   UNL     1       0.592  -4.637   1.482  0.00  0.00    +0.020 A 
ATOM     22  C   UNL     1      -0.378  -4.183   0.607  0.00  0.00    +0.045 A 
ATOM     23 CL   UNL     1       0.078  -3.275  -0.801  0.00  0.00    -0.083 Cl
ENDBRANCH   2  17
BRANCH   8  24
ATOM     24  N   UNL     1       0.287  -8.111  -0.714  0.00  0.00    -0.342 N 
ATOM     25  H   UNL     1       0.846  -8.829  -1.052  0.00  0.00    +0.144 HD
ATOM     26  H   UNL     1       0.094  -8.053   0.234  0.00  0.00    +0.144 HD
ENDBRANCH   8  24
BRANCH   1  27
ATOM     27  C   UNL     1      -1.606  -1.781   0.155  0.00  0.00    +0.320 C 
ATOM     28  O   UNL     1      -0.865  -2.005   1.083  0.00  0.00    -0.250 OA
BRANCH  27  29
ATOM     29  O   UNL     1      -1.224  -0.944  -0.822  0.00  0.00    -0.464 OA
BRANCH  29  31
ATOM     30  C   UNL     1       0.328   0.563  -1.899  0.00  0.00    +0.048 C 
ATOM     31  C   UNL     1       0.071  -0.353  -0.701  0.00  0.00    +0.229 C 
ENDBRANCH  29  31
ENDBRANCH  27  29
ENDBRANCH   1  27
BRANCH   7  32
ATOM     32  C   UNL     1       0.899  -8.369  -3.414  0.00  0.00    +0.103 C 
ATOM     33  N   UNL     1       1.556  -9.221  -3.779  0.00  0.00    -0.191 NA
ENDBRANCH   7  32
TORSDOF 6
