REMARK  Name = ZINC11381122
REMARK  8 active torsions:
REMARK  status: ('A' for Active; 'I' for Inactive)
REMARK    1  A    between atoms: C_2  and  C_3
REMARK    2  A    between atoms: C_3  and  N_4
REMARK    3  A    between atoms: C_8  and  C_27
REMARK    4  A    between atoms: C_13  and  S_14
REMARK    5  A    between atoms: S_14  and  C_15
REMARK    6  A    between atoms: C_15  and  C_16
REMARK    7  A    between atoms: N_18  and  N_19
REMARK    8  A    between atoms: C_20  and  C_22
REMARK                            x       y       z     vdW  Elec       q    Type
REMARK                         _______ _______ _______ _____ _____    ______ ____
ROOT
ATOM      1  N   UNL     1     -10.006   3.534   0.068  0.00  0.00    -0.283 N 
ATOM      2  C   UNL     1     -10.938   4.504   0.083  0.00  0.00    +0.264 A 
ATOM      3  O   UNL     1     -12.124   4.220   0.088  0.00  0.00    -0.267 OA
ATOM      4  C   UNL     1     -10.522   5.870   0.088  0.00  0.00    +0.080 A 
ATOM      5  C   UNL     1     -11.337   7.082   0.099  0.00  0.00    +0.010 A 
ATOM      6  C   UNL     1     -10.713   8.286   0.102  0.00  0.00    +0.057 A 
ATOM      7  S   UNL     1      -8.984   7.856   0.090  0.00  0.00    -0.076 S 
ATOM      8  C   UNL     1      -9.133   6.088   0.082  0.00  0.00    +0.117 A 
ATOM      9  N   UNL     1      -8.263   5.085   0.072  0.00  0.00    -0.216 NA
ATOM     10  C   UNL     1      -8.674   3.833   0.068  0.00  0.00    +0.173 A 
ENDROOT
BRANCH   5  11
ATOM     11  C   UNL     1     -12.812   6.998   0.106  0.00  0.00    +0.021 A 
ATOM     12  C   UNL     1     -13.707   7.623   0.933  0.00  0.00    +0.016 A 
ATOM     13  C   UNL     1     -15.054   7.391   0.746  0.00  0.00    +0.008 A 
ATOM     14  C   UNL     1     -15.449   6.547  -0.240  0.00  0.00    +0.046 A 
ATOM     15  S   UNL     1     -13.890   6.050  -0.954  0.00  0.00    -0.097 S 
ENDBRANCH   5  11
BRANCH   1  16
ATOM     16  C   UNL     1     -10.428   2.131   0.056  0.00  0.00    +0.154 C 
BRANCH  16  18
ATOM     17  C   UNL     1     -11.699   1.105   1.871  0.00  0.00    +0.005 C 
ATOM     18  C   UNL     1     -10.570   1.638   1.473  0.00  0.00    -0.013 C 
ENDBRANCH  16  18
ENDBRANCH   1  16
BRANCH  10  19
ATOM     19  S   UNL     1      -7.490   2.528   0.055  0.00  0.00    -0.078 S 
BRANCH  19  20
ATOM     20  C   UNL     1      -5.959   3.494   0.052  0.00  0.00    +0.174 C 
BRANCH  20  21
ATOM     21  C   UNL     1      -4.776   2.560   0.041  0.00  0.00    +0.239 C 
ATOM     22  O   UNL     1      -4.951   1.359   0.036  0.00  0.00    -0.273 OA
ATOM     23  N   UNL     1      -3.524   3.058   0.037  0.00  0.00    -0.233 N 
ATOM     24  H   UNL     1      -3.384   4.018   0.041  0.00  0.00    +0.173 HD
BRANCH  23  25
ATOM     25  N   UNL     1      -2.425   2.190   0.026  0.00  0.00    -0.230 N 
ATOM     26  C   UNL     1      -1.173   2.688   0.022  0.00  0.00    +0.267 C 
ATOM     27  O   UNL     1      -0.997   3.893   0.028  0.00  0.00    -0.268 OA
ATOM     28  H   UNL     1      -2.565   1.230   0.022  0.00  0.00    +0.173 HD
BRANCH  26  29
ATOM     29  C   UNL     1      -0.022   1.780   0.012  0.00  0.00    +0.075 A 
ATOM     30  C   UNL     1       1.330   2.083   0.001  0.00  0.00    +0.021 A 
ATOM     31  C   UNL     1       2.208   1.027  -0.013  0.00  0.00    +0.008 A 
ATOM     32  C   UNL     1       1.719  -0.241  -0.016  0.00  0.00    +0.046 A 
ATOM     33  S   UNL     1       0.002  -0.004   0.002  0.00  0.00    -0.092 S 
ENDBRANCH  26  29
ENDBRANCH  23  25
ENDBRANCH  20  21
ENDBRANCH  19  20
ENDBRANCH  10  19
TORSDOF 8
