REMARK  Name = ZINC08775303
REMARK  3 active torsions:
REMARK  status: ('A' for Active; 'I' for Inactive)
REMARK    1  A    between atoms: C_4  and  C_7
REMARK    2  A    between atoms: C_10  and  C_14
REMARK    3  A    between atoms: C_10  and  O_20
REMARK                            x       y       z     vdW  Elec       q    Type
REMARK                         _______ _______ _______ _____ _____    ______ ____
ROOT
ATOM      1  C   UNL     1       3.694  -0.683  -0.037  0.00  0.00    +0.130 C 
ATOM      2  N   UNL     1       4.863  -0.137  -0.040  0.00  0.00    -0.082 NA
ATOM      3  O   UNL     1       5.913  -1.084  -0.064  0.00  0.00    -0.350 OA
ATOM      4  C   UNL     1       5.362  -2.355   0.336  0.00  0.00    +0.301 C 
ATOM      5  C   UNL     1       3.873  -2.190  -0.047  0.00  0.00    +0.234 C 
ATOM      6 CL   UNL     1       2.805  -2.970   1.178  0.00  0.00    -0.086 Cl
ATOM      7 CL   UNL     1       3.561  -2.861  -1.691  0.00  0.00    -0.086 Cl
ENDROOT
BRANCH   1  11
ATOM      8  C   UNL     1      -0.017   1.379   0.010  0.00  0.00    +0.000 A 
ATOM      9  C   UNL     1       1.168   2.094   0.002  0.00  0.00    +0.001 A 
ATOM     10  C   UNL     1       2.377   1.430  -0.013  0.00  0.00    +0.010 A 
ATOM     11  C   UNL     1       2.404   0.034  -0.021  0.00  0.00    +0.003 A 
ATOM     12  C   UNL     1       1.204  -0.681  -0.013  0.00  0.00    +0.010 A 
ATOM     13  C   UNL     1       0.002  -0.004   0.002  0.00  0.00    +0.001 A 
ENDBRANCH   1  11
BRANCH   4  14
ATOM     14  C   UNL     1       5.511  -2.564   1.821  0.00  0.00    +0.029 A 
ATOM     15  C   UNL     1       5.624  -3.845   2.331  0.00  0.00    +0.010 A 
ATOM     16  C   UNL     1       5.761  -4.037   3.693  0.00  0.00    +0.000 A 
ATOM     17  C   UNL     1       5.786  -2.949   4.545  0.00  0.00    +0.000 A 
ATOM     18  C   UNL     1       5.675  -1.669   4.035  0.00  0.00    +0.000 A 
ATOM     19  C   UNL     1       5.542  -1.476   2.673  0.00  0.00    +0.010 A 
ENDBRANCH   4  14
BRANCH   4  20
ATOM     20  O   UNL     1       5.965  -3.426  -0.393  0.00  0.00    -0.348 OA
ATOM     21  H   UNL     1       6.919  -3.508  -0.254  0.00  0.00    +0.214 HD
ENDBRANCH   4  20
TORSDOF 3
