REMARK  Name = ZINC13063936
REMARK  11 active torsions:
REMARK  status: ('A' for Active; 'I' for Inactive)
REMARK    1  A    between atoms: C_1  and  C_2
REMARK    2  A    between atoms: C_2  and  C_3
REMARK    3  A    between atoms: C_3  and  C_5
REMARK    4  A    between atoms: C_3  and  N_63
REMARK    5  A    between atoms: N_9  and  C_10
REMARK    6  A    between atoms: C_10  and  C_11
REMARK    7  A    between atoms: C_18  and  C_19
REMARK    8  A    between atoms: C_18  and  N_63
REMARK    9  A    between atoms: C_24  and  C_25
REMARK   10  A    between atoms: C_24  and  N_63
REMARK   11  A    between atoms: C_30  and  C_37
REMARK                            x       y       z     vdW  Elec       q    Type
REMARK                         _______ _______ _______ _____ _____    ______ ____
ROOT
ATOM      1  N   UNL     1      -2.027  -0.302   1.614  0.00  0.00    +0.392 N 
ATOM      2  H   UNL     1      -1.517  -0.586   2.458  0.00  0.00    -0.080 HD
ENDROOT
BRANCH   1   3
ATOM      3  C   UNL     1      -1.946   1.167   1.475  0.00  0.00    +0.003 C 
BRANCH   3   4
ATOM      4  C   UNL     1      -2.646   1.810   2.644  0.00  0.00    +0.138 A 
ATOM      5  N   UNL     1      -2.547   1.461   3.904  0.00  0.00    -0.115 NA
ATOM      6  N   UNL     1      -3.295   2.250   4.595  0.00  0.00    -0.023 NA
ATOM      7  N   UNL     1      -3.869   3.093   3.809  0.00  0.00    -0.044 NA
ATOM      8  N   UNL     1      -3.490   2.858   2.599  0.00  0.00    -0.226 N 
BRANCH   8   9
ATOM      9  C   UNL     1      -3.902   3.591   1.400  0.00  0.00    +0.182 C 
BRANCH   9  10
ATOM     10  C   UNL     1      -5.140   2.954   0.822  0.00  0.00    -0.026 A 
ATOM     11  C   UNL     1      -5.023   1.949  -0.120  0.00  0.00    +0.008 A 
ATOM     12  C   UNL     1      -6.157   1.360  -0.647  0.00  0.00    +0.038 A 
ATOM     13  C   UNL     1      -7.410   1.784  -0.239  0.00  0.00    +0.123 A 
ATOM     14  C   UNL     1      -7.526   2.794   0.701  0.00  0.00    +0.038 A 
ATOM     15  C   UNL     1      -6.390   3.377   1.231  0.00  0.00    +0.008 A 
ATOM     16  F   UNL     1      -8.519   1.212  -0.757  0.00  0.00    -0.205 F 
ENDBRANCH   9  10
ENDBRANCH   8   9
ENDBRANCH   3   4
BRANCH   3  18
ATOM     17  C   UNL     1      -0.372   3.096   1.261  0.00  0.00    +0.002 C 
ATOM     18  C   UNL     1      -0.474   1.584   1.470  0.00  0.00    -0.011 C 
ENDBRANCH   3  18
ENDBRANCH   1   3
BRANCH   1  19
ATOM     19  C   UNL     1      -3.438  -0.720   1.742  0.00  0.00    -0.034 C 
BRANCH  19  20
ATOM     20  C   UNL     1      -3.479  -2.149   2.220  0.00  0.00    -0.027 A 
ATOM     21  C   UNL     1      -3.592  -2.623   3.484  0.00  0.00    +0.009 A 
ATOM     22  C   UNL     1      -3.609  -3.990   3.689  0.00  0.00    +0.008 A 
ATOM     23  C   UNL     1      -3.511  -4.816   2.618  0.00  0.00    +0.045 A 
ATOM     24  S   UNL     1      -3.397  -3.656   1.266  0.00  0.00    -0.103 S 
ENDBRANCH  19  20
ENDBRANCH   1  19
BRANCH   1  25
ATOM     25  C   UNL     1      -1.411  -0.955   0.439  0.00  0.00    -0.036 C 
BRANCH  25  26
ATOM     26  C   UNL     1      -2.012  -0.423  -0.836  0.00  0.00    +0.001 A 
ATOM     27  C   UNL     1      -1.415   0.606  -1.486  0.00  0.00    +0.017 A 
ATOM     28  C   UNL     1      -2.025   1.099  -2.723  0.00  0.00    -0.001 A 
ATOM     29  C   UNL     1      -1.455   2.158  -3.438  0.00  0.00    +0.010 A 
ATOM     30  C   UNL     1      -2.048   2.595  -4.589  0.00  0.00    +0.004 A 
ATOM     31  C   UNL     1      -3.211   1.997  -5.055  0.00  0.00    -0.048 A 
ATOM     32  C   UNL     1      -3.789   0.952  -4.367  0.00  0.00    +0.029 A 
ATOM     33  C   UNL     1      -3.204   0.491  -3.193  0.00  0.00    +0.049 A 
ATOM     34  N   UNL     1      -3.761  -0.553  -2.485  0.00  0.00    -0.322 N 
ATOM     35  H   UNL     1      -4.573  -0.971  -2.810  0.00  0.00    +0.169 HD
ATOM     36  C   UNL     1      -3.191  -1.002  -1.353  0.00  0.00    +0.251 A 
ATOM     37  O   UNL     1      -3.708  -1.930  -0.755  0.00  0.00    -0.268 OA
ATOM     38  C   UNL     1      -3.847   2.495  -6.327  0.00  0.00    +0.044 C 
ENDBRANCH  25  26
ENDBRANCH   1  25
TORSDOF 9
