REMARK  Name = ZINC03782486
REMARK  16 active torsions:
REMARK  status: ('A' for Active; 'I' for Inactive)
REMARK    1  A    between atoms: C_1  and  C_2
REMARK    2  A    between atoms: C_2  and  C_3
REMARK    3  A    between atoms: C_2  and  C_4
REMARK    4  A    between atoms: C_14  and  C_15
REMARK    5  A    between atoms: C_14  and  O_32
REMARK    6  A    between atoms: C_15  and  C_16
REMARK    7  A    between atoms: C_16  and  N_17
REMARK    8  A    between atoms: N_17  and  C_18
REMARK    9  A    between atoms: N_17  and  C_19
REMARK   10  A    between atoms: C_19  and  C_20
REMARK   11  A    between atoms: C_20  and  C_21
REMARK   12  A    between atoms: C_21  and  C_22
REMARK   13  A    between atoms: O_32  and  C_33
REMARK   14  A    between atoms: C_33  and  C_35
REMARK   15  A    between atoms: C_35  and  O_36
REMARK   16  A    between atoms: O_36  and  C_37
REMARK                            x       y       z     vdW  Elec       q    Type
REMARK                         _______ _______ _______ _____ _____    ______ ____
ROOT
ATOM      1  C   UNL     1      -1.252   0.052   0.294  0.00  0.00    +0.066 C 
ATOM      2  C   UNL     1      -1.513   1.325  -0.468  0.00  0.00    -0.037 A 
ATOM      3  C   UNL     1      -0.730   2.432  -0.165  0.00  0.00    +0.007 A 
ATOM      4  C   UNL     1      -0.922   3.629  -0.822  0.00  0.00    +0.038 A 
ATOM      5  C   UNL     1      -1.905   3.730  -1.793  0.00  0.00    +0.124 A 
ATOM      6  C   UNL     1      -2.683   2.629  -2.097  0.00  0.00    +0.042 A 
ATOM      7  C   UNL     1      -2.486   1.423  -1.438  0.00  0.00    -0.041 A 
ATOM      8  C   UNL     1      -3.359   0.259  -1.830  0.00  0.00    +0.039 C 
ATOM      9  C   UNL     1      -3.324  -0.825  -0.755  0.00  0.00    +0.053 C 
ATOM     10  C   UNL     1      -1.858  -1.144  -0.438  0.00  0.00    +0.119 C 
ATOM     11  F   UNL     1      -2.103   4.899  -2.439  0.00  0.00    -0.205 F 
ENDROOT
BRANCH   1  13
ATOM     12  C   UNL     1       0.529  -1.330   1.371  0.00  0.00    +0.008 C 
ATOM     13  C   UNL     1       0.258  -0.153   0.432  0.00  0.00    -0.006 C 
ATOM     14  C   UNL     1       0.860  -0.448  -0.944  0.00  0.00    +0.008 C 
ENDBRANCH   1  13
BRANCH  10  15
ATOM     15  C   UNL     1      -1.783  -2.385   0.454  0.00  0.00    +0.030 C 
BRANCH  15  16
ATOM     16  C   UNL     1      -2.427  -2.080   1.808  0.00  0.00    -0.075 C 
BRANCH  16  17
ATOM     17  N   UNL     1      -2.315  -3.257   2.680  0.00  0.00    +0.378 N 
ATOM     18  C   UNL     1      -3.102  -4.361   2.115  0.00  0.00    -0.096 C 
ATOM     19  H   UNL     1      -1.347  -3.535   2.748  0.00  0.00    -0.082 HD
BRANCH  17  20
ATOM     20  C   UNL     1      -2.825  -2.926   4.017  0.00  0.00    -0.079 C 
BRANCH  20  21
ATOM     21  C   UNL     1      -2.594  -4.111   4.958  0.00  0.00    -0.011 C 
BRANCH  21  22
ATOM     22  C   UNL     1      -3.125  -3.766   6.351  0.00  0.00    +0.072 C 
BRANCH  22  23
ATOM     23  C   UNL     1      -2.898  -4.933   7.278  0.00  0.00    +0.108 A 
ATOM     24  N   UNL     1      -2.238  -4.868   8.465  0.00  0.00    -0.342 N 
ATOM     25  H   UNL     1      -1.837  -4.076   8.858  0.00  0.00    +0.167 HD
ATOM     26  C   UNL     1      -2.243  -6.137   9.008  0.00  0.00    +0.066 A 
ATOM     27  C   UNL     1      -1.739  -6.691  10.178  0.00  0.00    +0.028 A 
ATOM     28  C   UNL     1      -1.920  -8.034  10.430  0.00  0.00    +0.002 A 
ATOM     29  C   UNL     1      -2.601  -8.834   9.524  0.00  0.00    +0.002 A 
ATOM     30  C   UNL     1      -3.104  -8.307   8.369  0.00  0.00    +0.030 A 
ATOM     31  C   UNL     1      -2.933  -6.948   8.091  0.00  0.00    +0.089 A 
ATOM     32  N   UNL     1      -3.310  -6.148   7.061  0.00  0.00    -0.232 NA
ENDBRANCH  22  23
ENDBRANCH  21  22
ENDBRANCH  20  21
ENDBRANCH  17  20
ENDBRANCH  16  17
ENDBRANCH  15  16
ENDBRANCH  10  15
BRANCH  10  33
ATOM     33  O   UNL     1      -1.143  -1.379  -1.652  0.00  0.00    -0.456 OA
BRANCH  33  34
ATOM     34  C   UNL     1      -1.486  -2.465  -2.361  0.00  0.00    +0.334 C 
ATOM     35  O   UNL     1      -2.393  -3.170  -1.986  0.00  0.00    -0.248 OA
BRANCH  34  36
ATOM     36  C   UNL     1      -0.741  -2.806  -3.626  0.00  0.00    +0.279 C 
BRANCH  36  37
ATOM     37  O   UNL     1      -1.288  -3.997  -4.196  0.00  0.00    -0.372 OA
ATOM     38  C   UNL     1      -0.649  -4.410  -5.405  0.00  0.00    +0.194 C 
ENDBRANCH  36  37
ENDBRANCH  34  36
ENDBRANCH  33  34
ENDBRANCH  10  33
TORSDOF 12
