REMARK  Name = ZINC39571146
REMARK  7 active torsions:
REMARK  status: ('A' for Active; 'I' for Inactive)
REMARK    1  A    between atoms: C_1  and  C_2
REMARK    2  A    between atoms: C_4  and  C_17
REMARK    3  A    between atoms: C_6  and  C_16
REMARK    4  A    between atoms: N_8  and  C_10
REMARK    5  A    between atoms: N_18  and  N_19
REMARK    6  A    between atoms: C_20  and  C_22
REMARK    7  A    between atoms: C_25  and  C_28
REMARK                            x       y       z     vdW  Elec       q    Type
REMARK                         _______ _______ _______ _____ _____    ______ ____
ROOT
ATOM      1  C   UNL     1      -1.795  -1.830  -0.242  0.00  0.00    +0.110 C 
ATOM      2  N   UNL     1      -2.696  -1.996  -1.136  0.00  0.00    -0.192 NA
ENDROOT
BRANCH   1   5
ATOM      3  C   UNL     1       0.376   1.332  -0.117  0.00  0.00    +0.026 C 
ATOM      4  C   UNL     1       0.094  -0.170  -0.037  0.00  0.00    +0.080 C 
ATOM      5  C   UNL     1      -1.417  -0.440   0.198  0.00  0.00    +0.072 C 
ATOM      6  C   UNL     1      -1.510  -0.297   1.737  0.00  0.00    +0.098 C 
ATOM      7  N   UNL     1      -0.135  -0.472   2.230  0.00  0.00    -0.263 N 
ATOM      8  N   UNL     1       0.702  -0.761   1.182  0.00  0.00    -0.236 NA
ATOM      9  C   UNL     1      -2.036   1.091   2.109  0.00  0.00    +0.030 C 
ATOM     10  H   UNL     1       0.822  -1.758   1.079  0.00  0.00    +0.145 HD
BRANCH   7  11
ATOM     11  C   UNL     1       0.260  -0.360   3.565  0.00  0.00    +0.045 A 
ATOM     12  C   UNL     1      -0.464  -1.003   4.561  0.00  0.00    +0.024 A 
ATOM     13  C   UNL     1      -0.071  -0.891   5.880  0.00  0.00    +0.002 A 
ATOM     14  C   UNL     1       1.042  -0.139   6.210  0.00  0.00    +0.000 A 
ATOM     15  C   UNL     1       1.764   0.502   5.221  0.00  0.00    +0.002 A 
ATOM     16  C   UNL     1       1.380   0.390   3.899  0.00  0.00    +0.024 A 
ENDBRANCH   7  11
ENDBRANCH   1   5
BRANCH   2  17
ATOM     17  N   UNL     1      -3.048  -3.289  -1.545  0.00  0.00    -0.205 N 
ATOM     18  C   UNL     1      -3.997  -3.463  -2.486  0.00  0.00    +0.263 C 
ATOM     19  O   UNL     1      -4.546  -2.501  -2.979  0.00  0.00    -0.271 OA
ATOM     20  H   UNL     1      -2.608  -4.059  -1.152  0.00  0.00    +0.177 HD
BRANCH  18  21
ATOM     21  C   UNL     1      -4.374  -4.854  -2.927  0.00  0.00    +0.240 C 
ATOM     22  C   UNL     1      -3.396  -5.372  -3.966  0.00  0.00    +0.041 C 
ATOM     23  C   UNL     1      -4.160  -5.573  -5.057  0.00  0.00    +0.092 C 
ATOM     24  N   UNL     1      -5.453  -5.244  -4.798  0.00  0.00    -0.153 NA
ATOM     25  N   UNL     1      -5.659  -4.841  -3.647  0.00  0.00    -0.170 NA
BRANCH  23  26
ATOM     26  C   UNL     1      -3.661  -6.082  -6.358  0.00  0.00    +0.002 A 
ATOM     27  C   UNL     1      -2.312  -6.395  -6.516  0.00  0.00    +0.011 A 
ATOM     28  C   UNL     1      -1.853  -6.869  -7.728  0.00  0.00    +0.016 A 
ATOM     29  C   UNL     1      -2.730  -7.033  -8.786  0.00  0.00    +0.018 A 
ATOM     30  C   UNL     1      -4.071  -6.723  -8.635  0.00  0.00    +0.016 A 
ATOM     31  C   UNL     1      -4.541  -6.254  -7.425  0.00  0.00    +0.011 A 
ATOM     32 BR   UNL     1      -2.094  -7.682 -10.444  0.00  0.00    -0.050 Br
ENDBRANCH  23  26
ENDBRANCH  18  21
ENDBRANCH   2  17
TORSDOF 5
