REMARK  Name = ZINC00062941
REMARK  5 active torsions:
REMARK  status: ('A' for Active; 'I' for Inactive)
REMARK    1  A    between atoms: C_4  and  N_23
REMARK    2  A    between atoms: C_5  and  C_7
REMARK    3  A    between atoms: C_10  and  C_12
REMARK    4  A    between atoms: N_13  and  N_14
REMARK    5  A    between atoms: C_15  and  C_17
REMARK                            x       y       z     vdW  Elec       q    Type
REMARK                         _______ _______ _______ _____ _____    ______ ____
ROOT
ATOM      1  C   UNL     1       1.270  -2.100  -0.021  0.00  0.00    +0.138 A 
ATOM      2  C   UNL     1       2.020  -2.896  -0.922  0.00  0.00    +0.050 A 
ATOM      3  C   UNL     1       1.794  -4.196  -0.606  0.00  0.00    +0.051 A 
ATOM      4  C   UNL     1       0.859  -4.189   0.529  0.00  0.00    +0.148 A 
ATOM      5  O   UNL     1       0.592  -2.897   0.822  0.00  0.00    -0.454 OA
ENDROOT
BRANCH   1  10
ATOM      6  C   UNL     1       2.392   1.420  -0.013  0.00  0.00    +0.001 A 
ATOM      7  C   UNL     1       1.174   2.084   0.002  0.00  0.00    +0.002 A 
ATOM      8  C   UNL     1      -0.017   1.372   0.010  0.00  0.00    +0.033 A 
ATOM      9  C   UNL     1       0.002  -0.004   0.002  0.00  0.00    +0.137 A 
ATOM     10  C   UNL     1       1.235  -0.683  -0.013  0.00  0.00    +0.047 A 
ATOM     11  C   UNL     1       2.434   0.056  -0.021  0.00  0.00    +0.014 A 
BRANCH   9  12
ATOM     12  N   UNL     1      -1.267  -0.766   0.011  0.00  0.00    +0.057 N 
ATOM     13  O   UNL     1      -2.419  -0.127   0.025  0.00  0.00    -0.126 OA
ATOM     14  O   UNL     1      -1.245  -2.083   0.003  0.00  0.00    -0.126 OA
ENDBRANCH   9  12
ENDBRANCH   1  10
BRANCH   4  15
ATOM     15  C   UNL     1       0.346  -5.303   1.179  0.00  0.00    +0.176 C 
ATOM     16  N   UNL     1      -0.494  -5.150   2.196  0.00  0.00    -0.184 NA
BRANCH  16  17
ATOM     17  N   UNL     1      -0.971  -6.185   2.801  0.00  0.00    -0.203 N 
ATOM     18  C   UNL     1      -1.824  -6.030   3.832  0.00  0.00    +0.263 C 
ATOM     19  O   UNL     1      -2.144  -4.915   4.193  0.00  0.00    -0.268 OA
ATOM     20  H   UNL     1      -0.715  -7.075   2.513  0.00  0.00    +0.178 HD
BRANCH  18  21
ATOM     21  C   UNL     1      -2.371  -7.218   4.526  0.00  0.00    +0.041 A 
ATOM     22  C   UNL     1      -2.020  -8.511   4.123  0.00  0.00    +0.033 A 
ATOM     23  C   UNL     1      -2.549  -9.591   4.802  0.00  0.00    +0.111 A 
ATOM     24  N   UNL     1      -3.382  -9.415   5.809  0.00  0.00    -0.263 NA
ATOM     25  C   UNL     1      -3.743  -8.215   6.217  0.00  0.00    +0.111 A 
ATOM     26  C   UNL     1      -3.257  -7.079   5.599  0.00  0.00    +0.033 A 
ENDBRANCH  18  21
ENDBRANCH  16  17
ENDBRANCH   4  15
TORSDOF 5
