REMARK  Name = ZINC16114270
REMARK  8 active torsions:
REMARK  status: ('A' for Active; 'I' for Inactive)
REMARK    1  A    between atoms: C_3  and  C_27
REMARK    2  A    between atoms: C_6  and  C_7
REMARK    3  A    between atoms: C_7  and  O_8
REMARK    4  A    between atoms: O_8  and  C_9
REMARK    5  A    between atoms: C_9  and  C_11
REMARK    6  A    between atoms: C_11  and  N_12
REMARK    7  A    between atoms: N_12  and  S_13
REMARK    8  A    between atoms: S_13  and  C_16
REMARK                            x       y       z     vdW  Elec       q    Type
REMARK                         _______ _______ _______ _____ _____    ______ ____
ROOT
ATOM      1  N   UNL     1      -4.625  -2.728  -2.806  0.00  0.00    -0.179 NA
ATOM      2  H   UNL     1      -4.885  -3.146  -1.970  0.00  0.00    +0.149 HD
ENDROOT
BRANCH   1   3
ATOM      3  S   UNL     1      -5.601  -2.862  -4.137  0.00  0.00    +0.059 S 
ATOM      4  O   UNL     1      -6.712  -3.658  -3.748  0.00  0.00    -0.153 OA
ATOM      5  O   UNL     1      -5.750  -1.552  -4.665  0.00  0.00    -0.153 OA
BRANCH   3   6
ATOM      6  C   UNL     1      -4.713  -3.792  -5.342  0.00  0.00    +0.109 A 
ATOM      7  C   UNL     1      -3.899  -3.143  -6.251  0.00  0.00    +0.032 A 
ATOM      8  C   UNL     1      -3.199  -3.866  -7.200  0.00  0.00    +0.051 A 
ATOM      9  C   UNL     1      -3.316  -5.245  -7.236  0.00  0.00    +0.162 A 
ATOM     10  C   UNL     1      -4.133  -5.897  -6.323  0.00  0.00    +0.164 A 
ATOM     11  C   UNL     1      -4.829  -5.170  -5.372  0.00  0.00    +0.078 A 
ATOM     12  O   UNL     1      -4.241  -7.257  -6.366  0.00  0.00    -0.488 OA
ATOM     13  C   UNL     1      -4.910  -7.795  -7.509  0.00  0.00    +0.232 C 
ATOM     14  C   UNL     1      -3.947  -7.946  -8.676  0.00  0.00    +0.082 C 
ATOM     15  C   UNL     1      -3.422  -6.607  -9.170  0.00  0.00    +0.232 C 
ATOM     16  O   UNL     1      -2.630  -5.971  -8.165  0.00  0.00    -0.488 OA
ENDBRANCH   3   6
ENDBRANCH   1   3
BRANCH   1  17
ATOM     17  C   UNL     1      -3.369  -1.979  -2.891  0.00  0.00    +0.226 C 
BRANCH  17  18
ATOM     18  C   UNL     1      -2.860  -1.692  -1.502  0.00  0.00    +0.323 C 
ATOM     19  O   UNL     1      -3.483  -2.074  -0.540  0.00  0.00    -0.249 OA
BRANCH  18  20
ATOM     20  O   UNL     1      -1.715  -1.012  -1.334  0.00  0.00    -0.459 OA
BRANCH  20  21
ATOM     21  C   UNL     1      -1.293  -0.775   0.011  0.00  0.00    +0.267 C 
BRANCH  21  27
ATOM     22  C   UNL     1      -0.017   1.378   0.010  0.00  0.00    +0.007 A 
ATOM     23  C   UNL     1       1.171   2.086   0.002  0.00  0.00    +0.013 A 
ATOM     24  C   UNL     1       2.377   1.411  -0.013  0.00  0.00    +0.055 A 
ATOM     25  C   UNL     1       2.396   0.029  -0.020  0.00  0.00    +0.013 A 
ATOM     26  C   UNL     1       1.208  -0.679  -0.012  0.00  0.00    +0.007 A 
ATOM     27  C   UNL     1       0.002  -0.004   0.002  0.00  0.00    -0.010 A 
BRANCH  24  28
ATOM     28  C   UNL     1       3.672   2.182  -0.022  0.00  0.00    +0.417 C 
ATOM     29  F   UNL     1       4.086   2.414   1.294  0.00  0.00    -0.166 F 
ATOM     30  F   UNL     1       4.651   1.442  -0.695  0.00  0.00    -0.166 F 
ATOM     31  F   UNL     1       3.482   3.405  -0.674  0.00  0.00    -0.166 F 
ENDBRANCH  24  28
ENDBRANCH  21  27
ENDBRANCH  20  21
ENDBRANCH  18  20
ENDBRANCH  17  18
ENDBRANCH   1  17
TORSDOF 8
