REMARK  Name = ZINC23749079
REMARK  7 active torsions:
REMARK  status: ('A' for Active; 'I' for Inactive)
REMARK    1  A    between atoms: C_1  and  C_2
REMARK    2  A    between atoms: C_7  and  C_8
REMARK    3  A    between atoms: C_8  and  C_10
REMARK    4  A    between atoms: C_8  and  N_20
REMARK    5  A    between atoms: C_16  and  C_18
REMARK    6  A    between atoms: C_23  and  C_26
REMARK    7  A    between atoms: C_26  and  C_27
REMARK                            x       y       z     vdW  Elec       q    Type
REMARK                         _______ _______ _______ _____ _____    ______ ____
ROOT
ATOM      1  C   UNL     1       1.150   3.592   0.010  0.00  0.00    +0.006 C 
ENDROOT
BRANCH   1   2
ATOM      2  C   UNL     1       0.915   4.102   1.409  0.00  0.00    +0.050 A 
ATOM      3  C   UNL     1      -0.217   4.548   1.966  0.00  0.00    +0.282 A 
ATOM      4  N   UNL     1      -0.234   4.974   3.273  0.00  0.00    -0.170 N 
ATOM      5  C   UNL     1       0.942   4.929   3.958  0.00  0.00    +0.199 A 
ATOM      6  S   UNL     1       2.076   4.277   2.756  0.00  0.00    -0.050 S 
ATOM      7  N   UNL     1       0.757   5.368   5.173  0.00  0.00    -0.205 NA
ATOM      8  C   UNL     1      -0.520   5.710   5.328  0.00  0.00    +0.150 A 
ATOM      9  N   UNL     1      -1.163   5.493   4.212  0.00  0.00    -0.147 NA
ATOM     10  C   UNL     1      -1.129   6.263   6.591  0.00  0.00    +0.090 C 
ATOM     11  O   UNL     1      -1.363   4.577   1.234  0.00  0.00    -0.265 OA
ENDBRANCH   1   2
BRANCH   1  18
ATOM     12  C   UNL     1      -0.946   1.605  -0.005  0.00  0.00    +0.044 C 
ATOM     13  C   UNL     1       0.498   1.177   0.058  0.00  0.00    -0.049 A 
ATOM     14  C   UNL     1       0.819  -0.167   0.105  0.00  0.00    +0.003 A 
ATOM     15  C   UNL     1       2.143  -0.560   0.156  0.00  0.00    +0.000 A 
ATOM     16  C   UNL     1       3.147   0.392   0.161  0.00  0.00    +0.000 A 
ATOM     17  C   UNL     1       2.825   1.735   0.113  0.00  0.00    +0.002 A 
ATOM     18  C   UNL     1       1.501   2.128   0.062  0.00  0.00    -0.053 A 
ENDBRANCH   1  18
BRANCH   1  19
ATOM     19  N   UNL     1       2.257   4.339  -0.603  0.00  0.00    +0.387 N 
ATOM     20  C   UNL     1       2.055   5.787  -0.466  0.00  0.00    -0.077 C 
ATOM     21  C   UNL     1       3.290   6.527  -0.984  0.00  0.00    -0.015 C 
ATOM     22  C   UNL     1       3.518   6.163  -2.453  0.00  0.00    -0.010 C 
ATOM     23  C   UNL     1       3.677   4.645  -2.575  0.00  0.00    -0.015 C 
ATOM     24  C   UNL     1       2.431   3.959  -2.011  0.00  0.00    -0.077 C 
ATOM     25  H   UNL     1       3.181   4.077  -0.068  0.00  0.00    -0.080 HD
BRANCH  22  26
ATOM     26  C   UNL     1       4.786   6.852  -2.961  0.00  0.00    +0.038 C 
BRANCH  26  27
ATOM     27  C   UNL     1       4.582   8.345  -2.956  0.00  0.00    -0.047 A 
ATOM     28  C   UNL     1       4.074   8.978  -4.075  0.00  0.00    +0.003 A 
ATOM     29  C   UNL     1       3.883  10.347  -4.068  0.00  0.00    +0.000 A 
ATOM     30  C   UNL     1       4.209  11.085  -2.946  0.00  0.00    +0.000 A 
ATOM     31  C   UNL     1       4.722  10.453  -1.828  0.00  0.00    +0.000 A 
ATOM     32  C   UNL     1       4.909   9.083  -1.833  0.00  0.00    +0.003 A 
ENDBRANCH  26  27
ENDBRANCH  22  26
ENDBRANCH   1  19
TORSDOF 5
