REMARK  Name = ZINC52015921
REMARK  7 active torsions:
REMARK  status: ('A' for Active; 'I' for Inactive)
REMARK    1  A    between atoms: C_1  and  C_2
REMARK    2  A    between atoms: C_2  and  N_3
REMARK    3  A    between atoms: N_3  and  C_4
REMARK    4  A    between atoms: C_9  and  S_10
REMARK    5  A    between atoms: S_10  and  N_13
REMARK    6  A    between atoms: N_13  and  C_14
REMARK    7  A    between atoms: C_20  and  O_22
REMARK                            x       y       z     vdW  Elec       q    Type
REMARK                         _______ _______ _______ _____ _____    ______ ____
ROOT
ATOM      1  S   UNL     1       2.291  -1.085  -3.777  0.00  0.00    +0.060 S 
ATOM      2  O   UNL     1       2.993   0.009  -3.201  0.00  0.00    -0.153 OA
ATOM      3  O   UNL     1       2.834  -1.869  -4.830  0.00  0.00    -0.153 OA
ENDROOT
BRANCH   1   9
ATOM      4  C   UNL     1       1.188  -3.348  -2.708  0.00  0.00    +0.054 A 
ATOM      5  C   UNL     1       0.904  -4.225  -1.668  0.00  0.00    +0.025 A 
ATOM      6  C   UNL     1       1.349  -3.945  -0.391  0.00  0.00    +0.002 A 
ATOM      7  C   UNL     1       2.075  -2.794  -0.146  0.00  0.00    +0.002 A 
ATOM      8  C   UNL     1       2.359  -1.919  -1.179  0.00  0.00    +0.030 A 
ATOM      9  C   UNL     1       1.922  -2.196  -2.460  0.00  0.00    +0.126 A 
BRANCH   4  10
ATOM     10  N   UNL     1       0.740  -3.628  -4.001  0.00  0.00    -0.343 N 
ATOM     11  H   UNL     1       0.996  -3.052  -4.738  0.00  0.00    +0.146 HD
BRANCH  10  13
ATOM     12  C   UNL     1      -0.369  -4.934  -5.746  0.00  0.00    +0.024 C 
ATOM     13  C   UNL     1      -0.116  -4.792  -4.244  0.00  0.00    +0.098 C 
ENDBRANCH  10  13
ENDBRANCH   4  10
ENDBRANCH   1   9
BRANCH   1  14
ATOM     14  N   UNL     1       0.850  -0.484  -4.328  0.00  0.00    -0.184 NA
ATOM     15  H   UNL     1       0.547  -0.695  -5.225  0.00  0.00    +0.148 HD
BRANCH  14  16
ATOM     16  C   UNL     1       0.031   0.367  -3.461  0.00  0.00    +0.105 C 
ATOM     17  C   UNL     1      -1.038  -0.484  -2.773  0.00  0.00    +0.023 C 
ATOM     18  C   UNL     1      -1.893   0.405  -1.867  0.00  0.00    +0.002 C 
ATOM     19  C   UNL     1      -2.568   1.490  -2.708  0.00  0.00    +0.003 C 
ATOM     20  C   UNL     1      -1.499   2.341  -3.396  0.00  0.00    +0.033 C 
ATOM     21  C   UNL     1      -0.644   1.453  -4.302  0.00  0.00    +0.133 C 
BRANCH  21  22
ATOM     22  O   UNL     1       0.354   2.248  -4.945  0.00  0.00    -0.390 OA
ATOM     23  H   UNL     1      -0.003   2.957  -5.496  0.00  0.00    +0.210 HD
ENDBRANCH  21  22
ENDBRANCH  14  16
ENDBRANCH   1  14
TORSDOF 6
