REMARK  Name = ZINC36025129
REMARK  6 active torsions:
REMARK  status: ('A' for Active; 'I' for Inactive)
REMARK    1  A    between atoms: C_1  and  C_2
REMARK    2  A    between atoms: C_5  and  S_8
REMARK    3  A    between atoms: S_8  and  N_11
REMARK    4  A    between atoms: N_21  and  C_22
REMARK    5  A    between atoms: C_22  and  C_23
REMARK    6  A    between atoms: C_27  and  C_29
REMARK                            x       y       z     vdW  Elec       q    Type
REMARK                         _______ _______ _______ _____ _____    ______ ____
ROOT
ATOM      1  N   UNL     1       4.455  -4.071   0.864  0.00  0.00    -0.177 NA
ATOM      2  C   UNL     1       3.880  -4.278  -0.472  0.00  0.00    +0.109 C 
ATOM      3  C   UNL     1       5.012  -4.619  -1.447  0.00  0.00    +0.023 C 
ATOM      4  C   UNL     1       5.808  -5.805  -0.906  0.00  0.00    +0.006 C 
ATOM      5  C   UNL     1       6.419  -5.459   0.451  0.00  0.00    +0.023 C 
ATOM      6  C   UNL     1       5.304  -5.123   1.440  0.00  0.00    +0.109 C 
ATOM      7  N   UNL     1       6.879  -6.164  -1.859  0.00  0.00    +0.399 N 
ATOM      8  C   UNL     1       6.242  -7.202  -2.705  0.00  0.00    +0.018 C 
ATOM      9  C   UNL     1       5.174  -7.814  -1.826  0.00  0.00    +0.198 C 
ATOM     10  O   UNL     1       4.617  -8.874  -2.022  0.00  0.00    -0.278 OA
ATOM     11  N   UNL     1       4.945  -6.984  -0.788  0.00  0.00    -0.310 N 
ATOM     12  H   UNL     1       7.144  -5.364  -2.414  0.00  0.00    -0.082 HD
ATOM     13  H   UNL     1       7.678  -6.542  -1.372  0.00  0.00    -0.082 HD
ENDROOT
BRANCH   1  14
ATOM     14  S   UNL     1       4.157  -2.674   1.703  0.00  0.00    +0.061 S 
ATOM     15  O   UNL     1       4.344  -2.979   3.078  0.00  0.00    -0.153 OA
ATOM     16  O   UNL     1       2.938  -2.149   1.198  0.00  0.00    -0.153 OA
BRANCH  14  21
ATOM     17  C   UNL     1       8.478   1.263   0.208  0.00  0.00    +0.044 C 
ATOM     18  C   UNL     1       7.399   0.280   0.581  0.00  0.00    -0.050 A 
ATOM     19  C   UNL     1       6.228   0.227  -0.152  0.00  0.00    +0.005 A 
ATOM     20  C   UNL     1       5.239  -0.676   0.190  0.00  0.00    +0.029 A 
ATOM     21  C   UNL     1       5.420  -1.525   1.266  0.00  0.00    +0.105 A 
ATOM     22  C   UNL     1       6.591  -1.473   1.998  0.00  0.00    +0.029 A 
ATOM     23  C   UNL     1       7.582  -0.574   1.653  0.00  0.00    +0.005 A 
ENDBRANCH  14  21
ENDBRANCH   1  14
BRANCH  11  24
ATOM     24  C   UNL     1       3.983  -7.223   0.290  0.00  0.00    +0.141 C 
BRANCH  24  25
ATOM     25  C   UNL     1       4.635  -8.044   1.372  0.00  0.00    -0.030 A 
ATOM     26  C   UNL     1       5.554  -9.022   1.039  0.00  0.00    +0.005 A 
ATOM     27  C   UNL     1       6.152  -9.776   2.031  0.00  0.00    +0.001 A 
ATOM     28  C   UNL     1       5.832  -9.551   3.357  0.00  0.00    +0.012 A 
ATOM     29  C   UNL     1       4.914  -8.573   3.691  0.00  0.00    +0.055 A 
ATOM     30  C   UNL     1       4.319  -7.817   2.698  0.00  0.00    +0.017 A 
BRANCH  29  31
ATOM     31  C   UNL     1       4.565  -8.329   5.136  0.00  0.00    +0.417 C 
ATOM     32  F   UNL     1       5.292  -9.208   5.946  0.00  0.00    -0.166 F 
ATOM     33  F   UNL     1       4.883  -7.010   5.476  0.00  0.00    -0.166 F 
ATOM     34  F   UNL     1       3.196  -8.543   5.328  0.00  0.00    -0.166 F 
ENDBRANCH  29  31
ENDBRANCH  24  25
ENDBRANCH  11  24
TORSDOF 5
