REMARK  Name = ZINC35007530
REMARK  9 active torsions:
REMARK  status: ('A' for Active; 'I' for Inactive)
REMARK    1  A    between atoms: C_1  and  C_2
REMARK    2  A    between atoms: C_2  and  C_4
REMARK    3  A    between atoms: C_2  and  N_16
REMARK    4  A    between atoms: N_16  and  C_17
REMARK    5  A    between atoms: C_23  and  C_25
REMARK    6  A    between atoms: C_28  and  C_31
REMARK    7  A    between atoms: C_31  and  C_32
REMARK    8  A    between atoms: C_31  and  C_33
REMARK    9  A    between atoms: C_31  and  C_34
REMARK                            x       y       z     vdW  Elec       q    Type
REMARK                         _______ _______ _______ _____ _____    ______ ____
ROOT
ATOM      1  N   UNL     1      -1.563  -0.184  -0.622  0.00  0.00    -0.285 N 
ATOM      2  C   UNL     1      -1.445  -1.524  -0.714  0.00  0.00    +0.247 C 
ATOM      3  O   UNL     1      -0.350  -2.029  -0.867  0.00  0.00    -0.270 OA
ENDROOT
BRANCH   1   4
ATOM      4  C   UNL     1      -2.380   0.407   0.441  0.00  0.00    +0.077 C 
ATOM      5  C   UNL     1      -2.344  -0.496   1.675  0.00  0.00    +0.022 C 
ATOM      6  C   UNL     1      -3.197   0.121   2.785  0.00  0.00    +0.002 C 
ATOM      7  C   UNL     1      -4.641   0.263   2.299  0.00  0.00    +0.000 C 
ATOM      8  C   UNL     1      -4.677   1.166   1.064  0.00  0.00    +0.002 C 
ATOM      9  C   UNL     1      -3.824   0.548  -0.045  0.00  0.00    +0.022 C 
ENDBRANCH   1   4
BRANCH   2  10
ATOM     10  C   UNL     1      -2.648  -2.379  -0.630  0.00  0.00    +0.037 A 
ATOM     11  C   UNL     1      -3.721  -2.002   0.178  0.00  0.00    +0.013 A 
ATOM     12  C   UNL     1      -4.841  -2.805   0.252  0.00  0.00    +0.005 A 
ATOM     13  C   UNL     1      -4.901  -3.982  -0.473  0.00  0.00    -0.042 A 
ATOM     14  C   UNL     1      -3.841  -4.362  -1.276  0.00  0.00    +0.005 A 
ATOM     15  C   UNL     1      -2.718  -3.565  -1.364  0.00  0.00    +0.013 A 
BRANCH  13  16
ATOM     16  C   UNL     1      -6.127  -4.854  -0.388  0.00  0.00    -0.013 C 
ATOM     17  C   UNL     1      -7.349  -4.063  -0.860  0.00  0.00    +0.015 C 
ATOM     18  C   UNL     1      -5.941  -6.084  -1.277  0.00  0.00    +0.015 C 
ATOM     19  C   UNL     1      -6.337  -5.299   1.061  0.00  0.00    +0.015 C 
ENDBRANCH  13  16
ENDBRANCH   2  10
BRANCH   1  21
ATOM     20  C   UNL     1      -1.902   1.527  -2.336  0.00  0.00    +0.036 C 
ATOM     21  C   UNL     1      -0.874   0.680  -1.583  0.00  0.00    +0.140 C 
BRANCH  21  22
ATOM     22  C   UNL     1       0.082   1.585  -0.850  0.00  0.00    +0.131 A 
ATOM     23  N   UNL     1       0.738   2.539  -1.559  0.00  0.00    -0.309 N 
ATOM     24  H   UNL     1       0.583   2.621  -2.513  0.00  0.00    +0.170 HD
ATOM     25  C   UNL     1       1.607   3.378  -0.947  0.00  0.00    +0.259 A 
ATOM     26  O   UNL     1       2.201   4.238  -1.571  0.00  0.00    -0.267 OA
ATOM     27  C   UNL     1       1.805   3.209   0.500  0.00  0.00    +0.065 A 
ATOM     28  C   UNL     1       2.677   4.019   1.224  0.00  0.00    +0.015 A 
ATOM     29  C   UNL     1       2.824   3.817   2.579  0.00  0.00    +0.001 A 
ATOM     30  C   UNL     1       2.112   2.815   3.225  0.00  0.00    +0.002 A 
ATOM     31  C   UNL     1       1.246   2.003   2.528  0.00  0.00    +0.028 A 
ATOM     32  C   UNL     1       1.079   2.189   1.154  0.00  0.00    +0.078 A 
ATOM     33  N   UNL     1       0.232   1.416   0.429  0.00  0.00    -0.232 NA
ENDBRANCH  21  22
ENDBRANCH   1  21
TORSDOF 5
