REMARK  Name = ZINC04714358
REMARK  2 active torsions:
REMARK  status: ('A' for Active; 'I' for Inactive)
REMARK    1  A    between atoms: C_3  and  C_10
REMARK    2  A    between atoms: C_5  and  N_7
REMARK                            x       y       z     vdW  Elec       q    Type
REMARK                         _______ _______ _______ _____ _____    ______ ____
ROOT
ATOM      1  C   UNL     1       2.350   5.276   0.455  0.00  0.00    +0.105 C 
ATOM      2  C   UNL     1       1.466   6.313  -0.245  0.00  0.00    +0.029 C 
ATOM      3  C   UNL     1       1.595   7.645   0.550  0.00  0.00    +0.033 C 
ATOM      4  C   UNL     1       0.617   7.468   1.695  0.00  0.00    -0.030 C 
ATOM      5  C   UNL     1      -0.279   6.559   1.397  0.00  0.00    -0.023 C 
ATOM      6  C   UNL     1      -0.020   6.001   0.018  0.00  0.00    +0.049 C 
ATOM      7  C   UNL     1      -0.331   4.540  -0.048  0.00  0.00    -0.018 A 
ATOM      8  C   UNL     1      -1.661   4.142  -0.073  0.00  0.00    +0.021 A 
ATOM      9  C   UNL     1      -1.992   2.804  -0.143  0.00  0.00    +0.018 A 
ATOM     10  C   UNL     1      -1.000   1.840  -0.176  0.00  0.00    +0.017 A 
ATOM     11  C   UNL     1       0.326   2.224  -0.150  0.00  0.00    +0.024 A 
ATOM     12  C   UNL     1       0.660   3.571  -0.084  0.00  0.00    +0.031 A 
ATOM     13  N   UNL     1       2.009   3.943  -0.052  0.00  0.00    -0.336 N 
ATOM     14 BR   UNL     1      -3.810   2.285  -0.184  0.00  0.00    -0.050 Br
ATOM     15  H   UNL     1       2.700   3.335  -0.358  0.00  0.00    +0.147 HD
ENDROOT
BRANCH   1  18
ATOM     16  C   UNL     1       2.661   6.203   4.101  0.00  0.00    +0.003 A 
ATOM     17  C   UNL     1       2.883   6.153   2.737  0.00  0.00    +0.005 A 
ATOM     18  C   UNL     1       2.112   5.327   1.942  0.00  0.00    -0.025 A 
ATOM     19  C   UNL     1       1.125   4.543   2.511  0.00  0.00    +0.038 A 
ATOM     20  C   UNL     1       0.907   4.590   3.875  0.00  0.00    +0.127 A 
ATOM     21  C   UNL     1       1.675   5.420   4.670  0.00  0.00    +0.033 A 
BRANCH  20  22
ATOM     22  N   UNL     1      -0.150   3.751   4.484  0.00  0.00    +0.056 N 
ATOM     23  O   UNL     1      -0.826   3.019   3.784  0.00  0.00    -0.126 OA
ATOM     24  O   UNL     1      -0.342   3.792   5.686  0.00  0.00    -0.126 OA
ENDBRANCH  20  22
ENDBRANCH   1  18
TORSDOF 2
