REMARK  Name = ZINC00072096
REMARK  6 active torsions:
REMARK  status: ('A' for Active; 'I' for Inactive)
REMARK    1  A    between atoms: C_1  and  C_2
REMARK    2  A    between atoms: C_2  and  C_3
REMARK    3  A    between atoms: C_2  and  C_4
REMARK    4  A    between atoms: C_2  and  C_5
REMARK    5  A    between atoms: N_7  and  C_8
REMARK    6  A    between atoms: C_8  and  C_9
REMARK                            x       y       z     vdW  Elec       q    Type
REMARK                         _______ _______ _______ _____ _____    ______ ____
ROOT
ATOM      1  C   UNL     1       0.002  -0.004   0.002  0.00  0.00    -0.022 A 
ATOM      2  C   UNL     1       1.122  -0.691   0.385  0.00  0.00    +0.007 A 
ATOM      3  C   UNL     1       1.197  -2.083   0.403  0.00  0.00    +0.024 A 
ATOM      4  C   UNL     1       0.107  -2.838   0.010  0.00  0.00    +0.042 A 
ATOM      5  C   UNL     1      -1.022  -2.127  -0.381  0.00  0.00    +0.016 A 
ATOM      6  C   UNL     1      -1.126  -0.735  -0.404  0.00  0.00    -0.011 A 
ATOM      7  C   UNL     1      -2.349  -0.190  -0.830  0.00  0.00    +0.009 A 
ATOM      8  C   UNL     1      -3.361  -1.037  -1.196  0.00  0.00    +0.001 A 
ATOM      9  C   UNL     1      -3.240  -2.426  -1.167  0.00  0.00    +0.014 A 
ATOM     10  C   UNL     1      -2.053  -3.003  -0.754  0.00  0.00    +0.046 A 
ATOM     11  C   UNL     1      -1.476  -4.339  -0.564  0.00  0.00    +0.249 C 
ATOM     12  O   UNL     1      -2.039  -5.397  -0.773  0.00  0.00    -0.270 OA
ATOM     13  N   UNL     1      -0.203  -4.187  -0.113  0.00  0.00    -0.281 N 
ATOM     14  H   UNL     1       0.403  -4.916   0.094  0.00  0.00    +0.155 HD
ENDROOT
BRANCH   1  15
ATOM     15  C   UNL     1      -0.018   1.503   0.010  0.00  0.00    +0.140 C 
BRANCH  15  18
ATOM     16  C   UNL     1      -0.843   3.297   1.437  0.00  0.00    +0.219 C 
ATOM     17  O   UNL     1      -0.401   4.096   0.639  0.00  0.00    -0.275 OA
ATOM     18  N   UNL     1      -0.704   1.975   1.216  0.00  0.00    -0.311 N 
ATOM     19  H   UNL     1      -1.058   1.337   1.854  0.00  0.00    +0.149 HD
BRANCH  16  21
ATOM     20  C   UNL     1      -1.569   5.313   2.686  0.00  0.00    +0.020 C 
ATOM     21  C   UNL     1      -1.548   3.783   2.677  0.00  0.00    +0.039 C 
ATOM     22  C   UNL     1      -2.984   3.254   2.688  0.00  0.00    +0.020 C 
ATOM     23  C   UNL     1      -0.808   3.276   3.917  0.00  0.00    +0.020 C 
ENDBRANCH  16  21
ENDBRANCH  15  18
ENDBRANCH   1  15
TORSDOF 3
