REMARK  Name = ZINC25585547
REMARK  10 active torsions:
REMARK  status: ('A' for Active; 'I' for Inactive)
REMARK    1  A    between atoms: C_1  and  C_2
REMARK    2  A    between atoms: C_3  and  C_22
REMARK    3  A    between atoms: N_7  and  C_8
REMARK    4  A    between atoms: C_8  and  N_10
REMARK    5  A    between atoms: C_11  and  C_13
REMARK    6  A    between atoms: C_16  and  N_19
REMARK    7  A    between atoms: C_22  and  C_24
REMARK    8  A    between atoms: C_25  and  C_26
REMARK    9  A    between atoms: C_26  and  C_34
REMARK   10  A    between atoms: C_27  and  C_28
REMARK                            x       y       z     vdW  Elec       q    Type
REMARK                         _______ _______ _______ _____ _____    ______ ____
ROOT
ATOM      1  C   UNL     1       5.821  -9.231  -0.360  0.00  0.00    +0.064 C 
ATOM      2  C   UNL     1       4.627  -8.312  -0.316  0.00  0.00    +0.032 A 
ATOM      3  C   UNL     1       3.334  -8.816  -0.261  0.00  0.00    +0.081 A 
ATOM      4  S   UNL     1       2.391  -7.298  -0.230  0.00  0.00    -0.049 S 
ATOM      5  C   UNL     1       3.732  -6.197  -0.289  0.00  0.00    +0.163 A 
ATOM      6  N   UNL     1       4.774  -7.013  -0.334  0.00  0.00    -0.339 N 
ATOM      7  N   UNL     1       3.716  -4.814  -0.295  0.00  0.00    -0.169 NA
ATOM      8  H   UNL     1       5.781  -6.574  -0.387  0.00  0.00    +0.167 HD
ENDROOT
BRANCH   7   9
ATOM      9  C   UNL     1       2.542  -4.154  -0.250  0.00  0.00    +0.163 C 
ATOM     10  S   UNL     1       1.070  -5.027  -0.185  0.00  0.00    -0.016 S 
BRANCH   9  11
ATOM     11  N   UNL     1       2.526  -2.806  -0.256  0.00  0.00    -0.262 N 
ATOM     12  C   UNL     1       1.352  -2.146  -0.211  0.00  0.00    +0.250 C 
ATOM     13  O   UNL     1       0.307  -2.766  -0.165  0.00  0.00    -0.270 OA
ATOM     14  H   UNL     1       3.471  -2.245  -0.297  0.00  0.00    +0.157 HD
BRANCH  12  15
ATOM     15  C   UNL     1       1.335  -0.668  -0.217  0.00  0.00    +0.037 A 
ATOM     16  C   UNL     1       0.120   0.019  -0.170  0.00  0.00    +0.015 A 
ATOM     17  C   UNL     1       0.111   1.398  -0.176  0.00  0.00    +0.033 A 
ATOM     18  C   UNL     1       1.302   2.101  -0.228  0.00  0.00    +0.126 A 
ATOM     19  C   UNL     1       2.509   1.426  -0.275  0.00  0.00    +0.033 A 
ATOM     20  C   UNL     1       2.533   0.047  -0.269  0.00  0.00    +0.015 A 
BRANCH  18  21
ATOM     21  N   UNL     1       1.285   3.581  -0.234  0.00  0.00    +0.056 N 
ATOM     22  O   UNL     1       0.224   4.178  -0.194  0.00  0.00    -0.126 OA
ATOM     23  O   UNL     1       2.331   4.202  -0.280  0.00  0.00    -0.126 OA
ENDBRANCH  18  21
ENDBRANCH  12  15
ENDBRANCH   9  11
ENDBRANCH   7   9
BRANCH   3  24
ATOM     24  C   UNL     1       2.872 -10.206  -0.236  0.00  0.00    +0.194 C 
ATOM     25  O   UNL     1       3.680 -11.118  -0.265  0.00  0.00    -0.287 OA
BRANCH  24  26
ATOM     26  C   UNL     1       1.441 -10.499  -0.176  0.00  0.00    +0.052 C 
ATOM     27  C   UNL     1       1.013 -11.786  -0.153  0.00  0.00    +0.007 C 
BRANCH  27  28
ATOM     28  C   UNL     1      -0.369 -12.069  -0.096  0.00  0.00    -0.050 C 
ATOM     29  C   UNL     1      -0.796 -13.353  -0.073  0.00  0.00    +0.011 C 
ATOM     30  C   UNL     1      -1.368 -10.942  -0.060  0.00  0.00    +0.044 C 
BRANCH  29  31
ATOM     31  C   UNL     1      -2.232 -13.652  -0.182  0.00  0.00    -0.025 A 
ATOM     32  C   UNL     1      -2.772 -14.759   0.482  0.00  0.00    +0.008 A 
ATOM     33  C   UNL     1      -4.120 -15.029   0.380  0.00  0.00    +0.001 A 
ATOM     34  C   UNL     1      -4.936 -14.215  -0.387  0.00  0.00    +0.000 A 
ATOM     35  C   UNL     1      -4.409 -13.122  -1.051  0.00  0.00    +0.001 A 
ATOM     36  C   UNL     1      -3.064 -12.834  -0.954  0.00  0.00    +0.008 A 
ENDBRANCH  29  31
ENDBRANCH  27  28
ENDBRANCH  24  26
ENDBRANCH   3  24
TORSDOF 8
