REMARK  Name = ZINC40338406
REMARK  5 active torsions:
REMARK  status: ('A' for Active; 'I' for Inactive)
REMARK    1  A    between atoms: C_1  and  C_2
REMARK    2  A    between atoms: C_3  and  N_21
REMARK    3  A    between atoms: C_5  and  C_9
REMARK    4  A    between atoms: N_14  and  S_17
REMARK    5  A    between atoms: S_17  and  N_20
REMARK                            x       y       z     vdW  Elec       q    Type
REMARK                         _______ _______ _______ _____ _____    ______ ____
ROOT
ATOM      1  C   UNL     1       0.059  -4.258  -0.016  0.00  0.00    +0.247 C 
ATOM      2  O   UNL     1      -0.045  -4.864  -1.065  0.00  0.00    -0.270 OA
ATOM      3  N   UNL     1       0.176  -4.934   1.144  0.00  0.00    -0.295 N 
ATOM      4  C   UNL     1       0.168  -4.220   2.429  0.00  0.00    +0.125 C 
ATOM      5  C   UNL     1      -0.937  -4.814   3.312  0.00  0.00    +0.129 C 
ATOM      6  N   UNL     1      -0.800  -6.277   3.315  0.00  0.00    -0.164 NA
ATOM      7  C   UNL     1      -0.792  -6.990   2.030  0.00  0.00    +0.129 C 
ATOM      8  C   UNL     1       0.306  -6.397   1.147  0.00  0.00    +0.125 C 
ENDROOT
BRANCH   1  13
ATOM      9  C   UNL     1       0.052   1.503  -0.015  0.00  0.00    +0.048 C 
ATOM     10  C   UNL     1       0.054  -0.004  -0.015  0.00  0.00    +0.005 A 
ATOM     11  C   UNL     1       0.947  -0.694   0.797  0.00  0.00    +0.031 A 
ATOM     12  C   UNL     1       0.951  -2.081   0.799  0.00  0.00    +0.036 A 
ATOM     13  C   UNL     1       0.059  -2.779  -0.014  0.00  0.00    +0.041 A 
ATOM     14  C   UNL     1      -0.834  -2.078  -0.826  0.00  0.00    +0.051 A 
ATOM     15  C   UNL     1      -0.835  -0.696  -0.818  0.00  0.00    +0.129 A 
ATOM     16  F   UNL     1      -1.704  -0.018  -1.601  0.00  0.00    -0.205 F 
BRANCH  11  17
ATOM     17  N   UNL     1       1.839   0.009   1.610  0.00  0.00    -0.358 N 
ATOM     18  H   UNL     1       1.836   0.979   1.608  0.00  0.00    +0.142 HD
ATOM     19  H   UNL     1       2.462  -0.473   2.176  0.00  0.00    +0.142 HD
ENDBRANCH  11  17
ENDBRANCH   1  13
BRANCH   6  20
ATOM     20  S   UNL     1      -0.657  -7.107   4.741  0.00  0.00    +0.095 S 
ATOM     21  O   UNL     1      -0.004  -8.331   4.434  0.00  0.00    -0.141 OA
ATOM     22  O   UNL     1      -0.145  -6.189   5.696  0.00  0.00    -0.141 OA
BRANCH  20  23
ATOM     23  N   UNL     1      -2.188  -7.499   5.235  0.00  0.00    -0.193 NA
ATOM     24  H   UNL     1      -2.953  -7.235   4.700  0.00  0.00    +0.145 HD
ATOM     25  H   UNL     1      -2.321  -7.993   6.059  0.00  0.00    +0.145 HD
ENDBRANCH  20  23
ENDBRANCH   6  20
TORSDOF 4
