REMARK  Name = ZINC33479024
REMARK  14 active torsions:
REMARK  status: ('A' for Active; 'I' for Inactive)
REMARK    1  A    between atoms: C_1  and  C_2
REMARK    2  A    between atoms: C_2  and  N_3
REMARK    3  A    between atoms: C_4  and  N_27
REMARK    4  A    between atoms: C_5  and  C_13
REMARK    5  A    between atoms: C_6  and  C_12
REMARK    6  A    between atoms: C_7  and  C_10
REMARK    7  A    between atoms: N_17  and  C_21
REMARK    8  A    between atoms: C_21  and  C_22
REMARK    9  A    between atoms: C_22  and  C_23
REMARK   10  A    between atoms: C_23  and  O_24
REMARK   11  A    between atoms: O_24  and  C_25
REMARK   12  A    between atoms: C_25  and  C_26
REMARK   13  A    between atoms: N_30  and  C_33
REMARK   14  A    between atoms: C_33  and  C_34
REMARK                            x       y       z     vdW  Elec       q    Type
REMARK                         _______ _______ _______ _____ _____    ______ ____
ROOT
ATOM      1  N   UNL     1      -0.647   1.509   1.280  0.00  0.00    -0.295 N 
ATOM      2  C   UNL     1      -1.601   0.758   1.889  0.00  0.00    +0.112 A 
ATOM      3  C   UNL     1      -2.343   1.280   2.962  0.00  0.00    +0.019 A 
ATOM      4  C   UNL     1      -2.090   2.589   3.405  0.00  0.00    -0.017 A 
ATOM      5  C   UNL     1      -1.107   3.338   2.764  0.00  0.00    +0.120 A 
ATOM      6  C   UNL     1      -0.383   2.763   1.688  0.00  0.00    +0.270 A 
ATOM      7  O   UNL     1       0.482   3.412   1.127  0.00  0.00    -0.266 OA
ATOM      8  C   UNL     1      -2.870   3.173   4.554  0.00  0.00    +0.046 C 
ENDROOT
BRANCH   3   9
ATOM      9  C   UNL     1      -3.370   0.465   3.614  0.00  0.00    +0.032 C 
ATOM     10  C   UNL     1      -3.201   0.059   4.902  0.00  0.00    +0.077 C 
ATOM     11  C   UNL     1      -4.020  -0.797   5.699  0.00  0.00    +0.258 C 
ATOM     12  O   UNL     1      -5.041  -1.284   5.250  0.00  0.00    -0.269 OA
ATOM     13  N   UNL     1      -3.635  -1.044   6.940  0.00  0.00    -0.255 N 
ATOM     14  C   UNL     1      -2.501  -0.503   7.437  0.00  0.00    +0.121 C 
ATOM     15  S   UNL     1      -1.821  -0.684   8.998  0.00  0.00    -0.027 S 
ATOM     16  S   UNL     1      -1.889   0.445   6.053  0.00  0.00    -0.061 S 
BRANCH  13  17
ATOM     17  C   UNL     1      -4.451  -1.917   7.788  0.00  0.00    +0.117 C 
BRANCH  17  18
ATOM     18  C   UNL     1      -3.987  -3.365   7.623  0.00  0.00    +0.047 C 
BRANCH  18  19
ATOM     19  C   UNL     1      -4.839  -4.277   8.508  0.00  0.00    +0.161 C 
BRANCH  19  20
ATOM     20  O   UNL     1      -4.406  -5.630   8.355  0.00  0.00    -0.380 OA
BRANCH  20  21
ATOM     21  C   UNL     1      -5.141  -6.569   9.143  0.00  0.00    +0.156 C 
ATOM     22  C   UNL     1      -4.595  -7.977   8.900  0.00  0.00    +0.034 C 
ENDBRANCH  20  21
ENDBRANCH  19  20
ENDBRANCH  18  19
ENDBRANCH  17  18
ENDBRANCH  13  17
ENDBRANCH   3   9
BRANCH   2  23
ATOM     23  N   UNL     1      -1.842  -0.512   1.454  0.00  0.00    -0.320 N 
ATOM     24  C   UNL     1      -3.192  -0.628   0.887  0.00  0.00    +0.088 C 
ATOM     25  C   UNL     1      -3.393  -2.044   0.340  0.00  0.00    -0.060 C 
ATOM     26  N   UNL     1      -3.195  -3.017   1.423  0.00  0.00    +0.382 N 
ATOM     27  C   UNL     1      -1.845  -2.901   1.991  0.00  0.00    -0.060 C 
ATOM     28  C   UNL     1      -1.643  -1.486   2.538  0.00  0.00    +0.088 C 
ATOM     29  H   UNL     1      -3.919  -2.791   2.220  0.00  0.00    -0.082 HD
BRANCH  26  30
ATOM     30  C   UNL     1      -3.454  -4.385   0.956  0.00  0.00    -0.082 C 
ATOM     31  C   UNL     1      -4.936  -4.533   0.605  0.00  0.00    -0.017 C 
ENDBRANCH  26  30
ENDBRANCH   2  23
BRANCH   1  33
ATOM     32  C   UNL     1      -0.541   1.349  -1.158  0.00  0.00    +0.027 C 
ATOM     33  C   UNL     1       0.112   0.941   0.164  0.00  0.00    +0.123 C 
ENDBRANCH   1  33
BRANCH   5  34
ATOM     34  C   UNL     1      -0.826   4.676   3.190  0.00  0.00    +0.105 C 
ATOM     35  N   UNL     1      -0.603   5.737   3.529  0.00  0.00    -0.191 NA
ENDBRANCH   5  34
TORSDOF 10
