REMARK  Name = ZINC15230823
REMARK  7 active torsions:
REMARK  status: ('A' for Active; 'I' for Inactive)
REMARK    1  A    between atoms: C_1  and  C_2
REMARK    2  A    between atoms: C_3  and  C_27
REMARK    3  A    between atoms: C_4  and  C_17
REMARK    4  A    between atoms: C_22  and  C_23
REMARK    5  A    between atoms: C_27  and  O_29
REMARK    6  A    between atoms: O_29  and  C_30
REMARK    7  A    between atoms: C_30  and  C_31
REMARK                            x       y       z     vdW  Elec       q    Type
REMARK                         _______ _______ _______ _____ _____    ______ ____
ROOT
ATOM      1  C   UNL     1      -3.827   5.540  -0.465  0.00  0.00    +0.061 C 
ATOM      2  C   UNL     1      -2.448   5.027  -0.138  0.00  0.00    +0.017 C 
ATOM      3  C   UNL     1      -1.397   5.861  -0.211  0.00  0.00    +0.065 C 
ATOM      4  C   UNL     1      -0.004   5.404   0.112  0.00  0.00    +0.096 C 
ATOM      5  C   UNL     1       0.081   3.904   0.115  0.00  0.00    +0.067 A 
ATOM      6  C   UNL     1      -1.042   3.136   0.180  0.00  0.00    +0.113 A 
ATOM      7  N   UNL     1      -0.927   1.766   0.185  0.00  0.00    -0.295 N 
ATOM      8  H   UNL     1      -1.749   1.198   0.227  0.00  0.00    +0.172 HD
ATOM      9  C   UNL     1       0.286   1.185   0.135  0.00  0.00    +0.328 A 
ATOM     10  O   UNL     1       0.370  -0.027   0.147  0.00  0.00    -0.247 OA
ATOM     11  N   UNL     1       1.406   1.927   0.067  0.00  0.00    -0.275 N 
ATOM     12  H   UNL     1       2.297   1.476   0.024  0.00  0.00    +0.173 HD
ATOM     13  C   UNL     1       1.337   3.273   0.055  0.00  0.00    +0.260 A 
ATOM     14  O   UNL     1       2.356   3.939  -0.008  0.00  0.00    -0.267 OA
ATOM     15  N   UNL     1      -2.285   3.720   0.230  0.00  0.00    -0.304 N 
ATOM     16  H   UNL     1      -3.050   3.204   0.528  0.00  0.00    +0.153 HD
ENDROOT
BRANCH   4  17
ATOM     17  C   UNL     1       0.384   5.925   1.472  0.00  0.00    -0.023 A 
ATOM     18  C   UNL     1      -0.357   5.573   2.585  0.00  0.00    +0.005 A 
ATOM     19  C   UNL     1      -0.001   6.051   3.832  0.00  0.00    +0.000 A 
ATOM     20  C   UNL     1       1.097   6.881   3.966  0.00  0.00    +0.001 A 
ATOM     21  C   UNL     1       1.838   7.232   2.854  0.00  0.00    +0.012 A 
ATOM     22  C   UNL     1       1.484   6.751   1.607  0.00  0.00    +0.059 A 
BRANCH  22  23
ATOM     23  C   UNL     1       2.296   7.130   0.395  0.00  0.00    +0.418 C 
ATOM     24  F   UNL     1       3.416   7.866   0.795  0.00  0.00    -0.166 F 
ATOM     25  F   UNL     1       2.712   5.971  -0.269  0.00  0.00    -0.166 F 
ATOM     26  F   UNL     1       1.512   7.905  -0.467  0.00  0.00    -0.166 F 
ENDBRANCH  22  23
ENDBRANCH   4  17
BRANCH   3  27
ATOM     27  C   UNL     1      -1.609   7.203  -0.603  0.00  0.00    +0.338 C 
ATOM     28  O   UNL     1      -2.708   7.561  -0.981  0.00  0.00    -0.245 OA
BRANCH  27  29
ATOM     29  O   UNL     1      -0.591   8.088  -0.556  0.00  0.00    -0.457 OA
BRANCH  29  30
ATOM     30  C   UNL     1      -0.875   9.427  -0.967  0.00  0.00    +0.259 C 
BRANCH  30  31
ATOM     31  C   UNL     1       0.372  10.264  -0.848  0.00  0.00    +0.006 C 
ATOM     32  C   UNL     1       0.708  11.079  -1.817  0.00  0.00    +0.007 C 
ENDBRANCH  30  31
ENDBRANCH  29  30
ENDBRANCH  27  29
ENDBRANCH   3  27
TORSDOF 6
