REMARK  Name = ZINC04656821
REMARK  9 active torsions:
REMARK  status: ('A' for Active; 'I' for Inactive)
REMARK    1  A    between atoms: C_1  and  C_2
REMARK    2  A    between atoms: C_2  and  N_3
REMARK    3  A    between atoms: N_3  and  C_4
REMARK    4  A    between atoms: N_3  and  C_6
REMARK    5  A    between atoms: C_4  and  C_5
REMARK    6  A    between atoms: C_9  and  C_12
REMARK    7  A    between atoms: C_21  and  C_29
REMARK    8  A    between atoms: C_23  and  C_24
REMARK    9  A    between atoms: C_23  and  C_26
REMARK                            x       y       z     vdW  Elec       q    Type
REMARK                         _______ _______ _______ _____ _____    ______ ____
ROOT
ATOM      1  C   UNL     1       4.317  -2.794   2.401  0.00  0.00    +0.066 C 
ATOM      2  C   UNL     1       5.608  -2.497   1.636  0.00  0.00    +0.027 C 
ATOM      3  C   UNL     1       5.443  -2.677   0.147  0.00  0.00    +0.009 C 
ATOM      4  C   UNL     1       6.008  -4.012  -0.334  0.00  0.00    +0.005 C 
ATOM      5  C   UNL     1       7.495  -4.072   0.044  0.00  0.00    +0.027 C 
ATOM      6  C   UNL     1       7.590  -3.996   1.548  0.00  0.00    -0.026 C 
ATOM      7  C   UNL     1       6.714  -3.303   2.249  0.00  0.00    -0.047 C 
ATOM      8  C   UNL     1       6.801  -3.307   3.733  0.00  0.00    +0.164 C 
ATOM      9  C   UNL     1       5.745  -2.863   4.460  0.00  0.00    +0.065 C 
ATOM     10  C   UNL     1       4.481  -2.336   3.850  0.00  0.00    +0.188 C 
ATOM     11  N   UNL     1       5.838  -2.897   5.823  0.00  0.00    -0.304 NA
ATOM     12  H   UNL     1       5.099  -2.586   6.368  0.00  0.00    +0.186 HD
ENDROOT
BRANCH   1  16
ATOM     13  C   UNL     1       1.066  -0.689   0.593  0.00  0.00    +0.030 A 
ATOM     14  C   UNL     1       2.280  -0.048   0.802  0.00  0.00    +0.023 A 
ATOM     15  C   UNL     1       3.327  -0.729   1.391  0.00  0.00    +0.006 A 
ATOM     16  C   UNL     1       3.171  -2.052   1.763  0.00  0.00    -0.041 A 
ATOM     17  C   UNL     1       1.965  -2.695   1.552  0.00  0.00    +0.006 A 
ATOM     18  C   UNL     1       0.912  -2.018   0.968  0.00  0.00    +0.023 A 
BRANCH  13  19
ATOM     19  N   UNL     1       0.004  -0.001   0.002  0.00  0.00    -0.330 N 
BRANCH  19  21
ATOM     20  C   UNL     1      -0.228   2.308   0.773  0.00  0.00    +0.024 C 
ATOM     21  C   UNL     1       0.167   1.400  -0.393  0.00  0.00    +0.102 C 
ENDBRANCH  19  21
BRANCH  19  22
ATOM     22  C   UNL     1      -1.274  -0.681  -0.223  0.00  0.00    +0.102 C 
ATOM     23  C   UNL     1      -1.266  -1.338  -1.605  0.00  0.00    +0.024 C 
ENDBRANCH  19  22
ENDBRANCH  13  19
ENDBRANCH   1  16
BRANCH  10  24
ATOM     24  C   UNL     1       4.507  -0.864   3.888  0.00  0.00    +0.091 C 
ATOM     25  N   UNL     1       4.527   0.271   3.917  0.00  0.00    -0.195 NA
ENDBRANCH  10  24
BRANCH  10  26
ATOM     26  C   UNL     1       3.334  -2.815   4.638  0.00  0.00    +0.091 C 
ATOM     27  N   UNL     1       2.448  -3.186   5.246  0.00  0.00    -0.195 NA
ENDBRANCH  10  26
BRANCH   8  28
ATOM     28  C   UNL     1       7.985  -3.774   4.388  0.00  0.00    +0.076 C 
ATOM     29  N   UNL     1       8.925  -4.145   4.908  0.00  0.00    -0.196 NA
ENDBRANCH   8  28
TORSDOF 7
