REMARK  Name = ZINC08623351
REMARK  6 active torsions:
REMARK  status: ('A' for Active; 'I' for Inactive)
REMARK    1  A    between atoms: C_1  and  C_2
REMARK    2  A    between atoms: C_4  and  C_31
REMARK    3  A    between atoms: C_6  and  C_8
REMARK    4  A    between atoms: C_16  and  C_18
REMARK    5  A    between atoms: C_18  and  N_19
REMARK    6  A    between atoms: C_20  and  C_22
REMARK                            x       y       z     vdW  Elec       q    Type
REMARK                         _______ _______ _______ _____ _____    ______ ____
ROOT
ATOM      1  C   UNL     1      -2.521   1.125   0.141  0.00  0.00    +0.024 C 
ATOM      2  C   UNL     1      -2.339  -0.145  -0.694  0.00  0.00    -0.068 C 
ATOM      3  C   UNL     1      -4.152  -1.243   0.480  0.00  0.00    -0.078 C 
ATOM      4  C   UNL     1      -4.386  -0.004   1.348  0.00  0.00    -0.015 C 
ATOM      5  C   UNL     1      -3.053   0.735   1.526  0.00  0.00    -0.007 C 
ATOM      6  C   UNL     1      -2.049  -0.219   2.185  0.00  0.00    -0.010 C 
ATOM      7  C   UNL     1      -1.881  -1.453   1.293  0.00  0.00    -0.051 C 
ATOM      8  N   UNL     1      -2.729  -1.338   0.088  0.00  0.00    +0.383 N 
ATOM      9  H   UNL     1      -2.599  -2.175  -0.492  0.00  0.00    -0.081 HD
ENDROOT
BRANCH   1  15
ATOM     10  C   UNL     1       1.988   2.005  -1.532  0.00  0.00    +0.088 C 
ATOM     11  C   UNL     1       0.928   2.248  -0.488  0.00  0.00    +0.127 A 
ATOM     12  N   UNL     1       1.194   3.056   0.517  0.00  0.00    -0.232 NA
ATOM     13  C   UNL     1       0.281   3.294   1.457  0.00  0.00    +0.076 A 
ATOM     14  C   UNL     1      -0.966   2.671   1.360  0.00  0.00    +0.052 A 
ATOM     15  C   UNL     1      -1.196   1.826   0.289  0.00  0.00    +0.047 A 
ATOM     16  N   UNL     1      -0.238   1.645  -0.608  0.00  0.00    -0.237 NA
BRANCH  13  17
ATOM     17  C   UNL     1       0.583   4.205   2.587  0.00  0.00    +0.014 A 
ATOM     18  C   UNL     1      -0.323   5.203   2.943  0.00  0.00    +0.011 A 
ATOM     19  C   UNL     1      -0.036   6.048   3.996  0.00  0.00    +0.001 A 
ATOM     20  C   UNL     1       1.147   5.905   4.699  0.00  0.00    +0.001 A 
ATOM     21  C   UNL     1       2.050   4.918   4.352  0.00  0.00    +0.016 A 
ATOM     22  C   UNL     1       1.772   4.063   3.303  0.00  0.00    +0.027 A 
ATOM     23 BR   UNL     1       3.004   2.707   2.833  0.00  0.00    -0.050 Br
ENDBRANCH  13  17
ENDBRANCH   1  15
BRANCH   7  24
ATOM     24  C   UNL     1      -0.418  -1.575   0.861  0.00  0.00    +0.089 C 
BRANCH  24  25
ATOM     25  N   UNL     1      -0.279  -2.686  -0.083  0.00  0.00    -0.313 N 
ATOM     26  C   UNL     1       0.908  -2.919  -0.679  0.00  0.00    +0.244 C 
ATOM     27  O   UNL     1       1.884  -2.266  -0.366  0.00  0.00    -0.270 OA
ATOM     28  H   UNL     1      -1.040  -3.254  -0.279  0.00  0.00    +0.149 HD
BRANCH  26  29
ATOM     29  C   UNL     1       1.022  -3.968  -1.711  0.00  0.00    +0.040 A 
ATOM     30  C   UNL     1      -0.099  -4.720  -2.072  0.00  0.00    +0.017 A 
ATOM     31  C   UNL     1       0.009  -5.698  -3.037  0.00  0.00    +0.050 A 
ATOM     32  C   UNL     1       1.229  -5.940  -3.652  0.00  0.00    +0.166 A 
ATOM     33  C   UNL     1       2.353  -5.193  -3.296  0.00  0.00    +0.167 A 
ATOM     34  C   UNL     1       2.249  -4.207  -2.334  0.00  0.00    +0.062 A 
ATOM     35  O   UNL     1       3.415  -5.622  -4.039  0.00  0.00    -0.453 OA
ATOM     36  C   UNL     1       2.842  -6.354  -5.139  0.00  0.00    +0.466 C 
ATOM     37  O   UNL     1       1.590  -6.835  -4.616  0.00  0.00    -0.453 OA
ENDBRANCH  26  29
ENDBRANCH  24  25
ENDBRANCH   7  24
TORSDOF 5
