REMARK  Name = ZINC10816946
REMARK  12 active torsions:
REMARK  status: ('A' for Active; 'I' for Inactive)
REMARK    1  A    between atoms: C_1  and  C_2
REMARK    2  A    between atoms: C_2  and  N_57
REMARK    3  A    between atoms: C_3  and  C_4
REMARK    4  A    between atoms: C_3  and  N_57
REMARK    5  A    between atoms: C_5  and  C_6
REMARK    6  A    between atoms: C_5  and  N_57
REMARK    7  A    between atoms: C_6  and  N_7
REMARK    8  A    between atoms: C_13  and  S_17
REMARK    9  A    between atoms: S_17  and  C_18
REMARK   10  A    between atoms: C_19  and  C_21
REMARK   11  A    between atoms: C_24  and  C_27
REMARK   12  A    between atoms: C_27  and  C_29
REMARK                            x       y       z     vdW  Elec       q    Type
REMARK                         _______ _______ _______ _____ _____    ______ ____
ROOT
ATOM      1  N   UNL     1      -0.042  -0.685  -0.697  0.00  0.00    -0.248 N 
ATOM      2  C   UNL     1      -0.557  -1.795  -0.049  0.00  0.00    +0.168 A 
ATOM      3  N   UNL     1      -0.278  -3.063  -0.241  0.00  0.00    -0.224 NA
ATOM      4  C   UNL     1      -0.863  -4.051   0.472  0.00  0.00    +0.080 A 
ATOM      5  C   UNL     1      -0.651  -5.446   0.365  0.00  0.00    +0.030 A 
ATOM      6  C   UNL     1      -1.324  -6.318   1.162  0.00  0.00    +0.017 A 
ATOM      7  C   UNL     1      -2.244  -5.878   2.112  0.00  0.00    +0.009 A 
ATOM      8  C   UNL     1      -2.479  -4.515   2.246  0.00  0.00    +0.032 A 
ATOM      9  C   UNL     1      -1.801  -3.633   1.443  0.00  0.00    +0.042 A 
ATOM     10  S   UNL     1      -1.766  -1.865   1.265  0.00  0.00    -0.052 S 
ATOM     11  C   UNL     1      -0.460   0.550  -0.354  0.00  0.00    +0.252 C 
ATOM     12  O   UNL     1      -1.319   0.687   0.495  0.00  0.00    -0.270 OA
ENDROOT
BRANCH  11  13
ATOM     13  C   UNL     1       0.123   1.739  -1.015  0.00  0.00    +0.037 A 
ATOM     14  C   UNL     1       1.468   1.740  -1.389  0.00  0.00    +0.014 A 
ATOM     15  C   UNL     1       2.011   2.843  -2.009  0.00  0.00    +0.012 A 
ATOM     16  C   UNL     1       1.217   3.968  -2.254  0.00  0.00    +0.017 A 
ATOM     17  C   UNL     1      -0.129   3.968  -1.874  0.00  0.00    +0.012 A 
ATOM     18  C   UNL     1      -0.670   2.861  -1.259  0.00  0.00    +0.014 A 
BRANCH  16  19
ATOM     19  C   UNL     1       1.797   5.152  -2.913  0.00  0.00    +0.160 C 
ATOM     20  O   UNL     1       1.108   6.126  -3.125  0.00  0.00    -0.292 OA
ATOM     21  C   UNL     1       3.248   5.151  -3.322  0.00  0.00    +0.091 C 
ENDBRANCH  16  19
ENDBRANCH  11  13
BRANCH   7  22
ATOM     22  S   UNL     1      -3.099  -7.035   3.129  0.00  0.00    -0.129 S 
ATOM     23  C   UNL     1      -2.466  -8.646   2.588  0.00  0.00    +0.090 C 
ENDBRANCH   7  22
BRANCH   1  24
ATOM     24  C   UNL     1       0.957  -0.852  -1.756  0.00  0.00    +0.097 C 
BRANCH  24  25
ATOM     25  C   UNL     1       2.208  -1.515  -1.176  0.00  0.00    -0.059 C 
BRANCH  25  26
ATOM     26  N   UNL     1       3.137  -1.823  -2.284  0.00  0.00    +0.380 N 
ATOM     27  H   UNL     1       2.596  -2.174  -3.084  0.00  0.00    -0.082 HD
BRANCH  26  29
ATOM     28  C   UNL     1       4.738  -0.090  -1.548  0.00  0.00    -0.017 C 
ATOM     29  C   UNL     1       3.861  -0.601  -2.692  0.00  0.00    -0.082 C 
ENDBRANCH  26  29
BRANCH  26  30
ATOM     30  C   UNL     1       4.099  -2.863  -1.862  0.00  0.00    -0.082 C 
ATOM     31  C   UNL     1       4.965  -3.253  -3.062  0.00  0.00    -0.017 C 
ENDBRANCH  26  30
ENDBRANCH  25  26
ENDBRANCH  24  25
ENDBRANCH   1  24
TORSDOF 8
