REMARK  Name = ZINC10775262
REMARK  9 active torsions:
REMARK  status: ('A' for Active; 'I' for Inactive)
REMARK    1  A    between atoms: C_1  and  N_60
REMARK    2  A    between atoms: C_2  and  N_60
REMARK    3  A    between atoms: C_3  and  C_4
REMARK    4  A    between atoms: C_3  and  N_60
REMARK    5  A    between atoms: C_4  and  C_5
REMARK    6  A    between atoms: C_5  and  N_6
REMARK    7  A    between atoms: C_17  and  C_19
REMARK    8  A    between atoms: N_25  and  S_26
REMARK    9  A    between atoms: S_26  and  C_29
REMARK                            x       y       z     vdW  Elec       q    Type
REMARK                         _______ _______ _______ _____ _____    ______ ____
ROOT
ATOM      1  N   UNL     1       1.518   3.061  -2.790  0.00  0.00    -0.249 N 
ATOM      2  C   UNL     1       0.439   3.352  -3.611  0.00  0.00    +0.168 A 
ATOM      3  N   UNL     1       0.433   3.932  -4.788  0.00  0.00    -0.224 NA
ATOM      4  C   UNL     1      -0.704   4.150  -5.484  0.00  0.00    +0.080 A 
ATOM      5  C   UNL     1      -0.847   4.756  -6.754  0.00  0.00    +0.032 A 
ATOM      6  C   UNL     1      -2.084   4.909  -7.322  0.00  0.00    +0.040 A 
ATOM      7  C   UNL     1      -3.237   4.477  -6.678  0.00  0.00    +0.125 A 
ATOM      8  C   UNL     1      -3.133   3.880  -5.433  0.00  0.00    +0.055 A 
ATOM      9  C   UNL     1      -1.897   3.724  -4.858  0.00  0.00    +0.043 A 
ATOM     10  S   UNL     1      -1.298   3.039  -3.331  0.00  0.00    -0.052 S 
ATOM     11  F   UNL     1      -4.445   4.639  -7.259  0.00  0.00    -0.205 F 
ATOM     12  C   UNL     1       1.317   2.461  -1.600  0.00  0.00    +0.240 C 
ATOM     13  O   UNL     1       0.188   2.277  -1.197  0.00  0.00    -0.273 OA
ENDROOT
BRANCH  12  14
ATOM     14  C   UNL     1       2.494   2.018  -0.771  0.00  0.00    +0.166 C 
ATOM     15  C   UNL     1       2.519   2.797   0.548  0.00  0.00    +0.030 C 
ATOM     16  C   UNL     1       3.634   2.247   1.440  0.00  0.00    +0.003 C 
ATOM     17  C   UNL     1       3.359   0.774   1.754  0.00  0.00    +0.017 C 
ATOM     18  C   UNL     1       3.340  -0.026   0.453  0.00  0.00    +0.110 C 
ATOM     19  N   UNL     1       2.375   0.585  -0.472  0.00  0.00    -0.164 NA
BRANCH  19  20
ATOM     20  S   UNL     1       1.172  -0.323  -1.158  0.00  0.00    +0.068 S 
ATOM     21  O   UNL     1       1.645  -1.663  -1.194  0.00  0.00    -0.152 OA
ATOM     22  O   UNL     1       0.756   0.370  -2.326  0.00  0.00    -0.152 OA
BRANCH  20  23
ATOM     23  C   UNL     1      -0.195  -0.302  -0.046  0.00  0.00    +0.143 A 
ATOM     24  C   UNL     1      -1.313   0.463  -0.083  0.00  0.00    +0.036 A 
ATOM     25  C   UNL     1      -2.267   0.304   0.905  0.00  0.00    +0.010 A 
ATOM     26  C   UNL     1      -2.050  -0.604   1.888  0.00  0.00    +0.047 A 
ATOM     27  S   UNL     1      -0.462  -1.276   1.426  0.00  0.00    -0.077 S 
ENDBRANCH  20  23
ENDBRANCH  19  20
ENDBRANCH  12  14
BRANCH   1  28
ATOM     28  C   UNL     1       2.876   3.407  -3.216  0.00  0.00    +0.114 C 
BRANCH  28  29
ATOM     29  C   UNL     1       3.493   2.222  -3.962  0.00  0.00    +0.001 C 
BRANCH  29  30
ATOM     30  C   UNL     1       4.912   2.582  -4.407  0.00  0.00    -0.078 C 
BRANCH  30  33
ATOM     31  C   UNL     1       6.767   1.829  -5.768  0.00  0.00    -0.097 C 
ATOM     32  C   UNL     1       5.701   0.301  -4.222  0.00  0.00    -0.097 C 
ATOM     33  N   UNL     1       5.487   1.437  -5.143  0.00  0.00    +0.376 N 
ATOM     34  H   UNL     1       4.830   1.150  -5.879  0.00  0.00    -0.083 HD
ENDBRANCH  30  33
ENDBRANCH  29  30
ENDBRANCH  28  29
ENDBRANCH   1  28
TORSDOF 7
