REMARK  Name = ZINC39653120
REMARK  14 active torsions:
REMARK  status: ('A' for Active; 'I' for Inactive)
REMARK    1  A    between atoms: C_1  and  C_2
REMARK    2  A    between atoms: C_4  and  C_11
REMARK    3  A    between atoms: N_5  and  C_7
REMARK    4  A    between atoms: C_7  and  C_8
REMARK    5  A    between atoms: C_7  and  C_9
REMARK    6  A    between atoms: C_7  and  C_10
REMARK    7  A    between atoms: C_15  and  C_24
REMARK    8  A    between atoms: N_26  and  C_27
REMARK    9  A    between atoms: C_27  and  C_28
REMARK   10  A    between atoms: C_28  and  C_29
REMARK   11  A    between atoms: C_31  and  O_37
REMARK   12  A    between atoms: C_33  and  O_35
REMARK   13  A    between atoms: O_35  and  C_36
REMARK   14  A    between atoms: O_37  and  C_38
REMARK                            x       y       z     vdW  Elec       q    Type
REMARK                         _______ _______ _______ _____ _____    ______ ____
ROOT
ATOM      1  C   UNL     1      -0.591  -4.010  -1.480  0.00  0.00    +0.265 C 
ATOM      2  O   UNL     1      -0.831  -3.821  -2.657  0.00  0.00    -0.268 OA
ATOM      3  N   UNL     1      -0.691  -5.251  -0.962  0.00  0.00    -0.295 N 
ATOM      4  C   UNL     1      -0.572  -5.655   0.458  0.00  0.00    +0.121 C 
ATOM      5  C   UNL     1      -1.654  -6.742   0.647  0.00  0.00    +0.100 C 
ATOM      6  C   UNL     1      -1.894  -7.306  -0.763  0.00  0.00    -0.004 C 
ATOM      7  C   UNL     1      -0.953  -6.518  -1.686  0.00  0.00    +0.115 C 
ATOM      8  C   UNL     1      -3.344  -7.081  -1.183  0.00  0.00    -0.010 C 
ATOM      9  C   UNL     1      -3.572  -7.702  -2.564  0.00  0.00    -0.082 C 
ATOM     10  N   UNL     1      -3.273  -9.138  -2.513  0.00  0.00    +0.379 N 
ATOM     11  C   UNL     1      -1.854  -9.343  -2.200  0.00  0.00    -0.082 C 
ATOM     12  C   UNL     1      -1.552  -8.792  -0.803  0.00  0.00    -0.010 C 
ATOM     13  H   UNL     1      -3.840  -9.573  -1.801  0.00  0.00    -0.086 HD
ATOM     14  H   UNL     1      -3.482  -9.555  -3.407  0.00  0.00    -0.086 HD
ENDROOT
BRANCH   1  18
ATOM     15  C   UNL     1       1.018  -1.178   2.408  0.00  0.00    +0.067 C 
ATOM     16  C   UNL     1       0.508  -1.635   1.066  0.00  0.00    +0.061 A 
ATOM     17  C   UNL     1       0.259  -2.957   0.687  0.00  0.00    +0.057 A 
ATOM     18  C   UNL     1      -0.192  -2.885  -0.620  0.00  0.00    +0.124 A 
ATOM     19  N   UNL     1      -0.191  -1.559  -0.951  0.00  0.00    -0.254 N 
ATOM     20  N   UNL     1       0.215  -0.865   0.050  0.00  0.00    -0.175 NA
BRANCH  19  21
ATOM     21  C   UNL     1      -0.597  -1.014  -2.249  0.00  0.00    +0.056 C 
ATOM     22  C   UNL     1      -2.013  -1.488  -2.581  0.00  0.00    +0.036 C 
ATOM     23  C   UNL     1      -0.572   0.515  -2.189  0.00  0.00    +0.036 C 
ATOM     24  C   UNL     1       0.370  -1.498  -3.331  0.00  0.00    +0.036 C 
ENDBRANCH  19  21
ENDBRANCH   1  18
BRANCH   5  25
ATOM     25  C   UNL     1      -1.155  -7.824   1.570  0.00  0.00    +0.218 C 
ATOM     26  O   UNL     1       0.034  -8.045   1.659  0.00  0.00    -0.275 OA
ATOM     27  N   UNL     1      -2.031  -8.545   2.297  0.00  0.00    -0.315 N 
ATOM     28  H   UNL     1      -2.985  -8.423   2.169  0.00  0.00    +0.149 HD
BRANCH  27  29
ATOM     29  C   UNL     1      -1.543  -9.515   3.280  0.00  0.00    +0.109 C 
BRANCH  29  30
ATOM     30  C   UNL     1      -2.733 -10.194   3.962  0.00  0.00    +0.054 C 
BRANCH  30  31
ATOM     31  C   UNL     1      -2.230 -11.192   4.974  0.00  0.00    -0.039 A 
ATOM     32  C   UNL     1      -1.991 -12.498   4.593  0.00  0.00    +0.049 A 
ATOM     33  C   UNL     1      -1.529 -13.419   5.523  0.00  0.00    +0.124 A 
ATOM     34  C   UNL     1      -1.306 -13.027   6.834  0.00  0.00    +0.091 A 
ATOM     35  C   UNL     1      -1.546 -11.715   7.213  0.00  0.00    +0.124 A 
ATOM     36  C   UNL     1      -2.004 -10.797   6.278  0.00  0.00    +0.049 A 
BRANCH  35  37
ATOM     37  O   UNL     1      -1.329 -11.328   8.497  0.00  0.00    -0.495 OA
ATOM     38  C   UNL     1      -0.853 -12.324   9.404  0.00  0.00    +0.277 C 
ENDBRANCH  35  37
BRANCH  33  39
ATOM     39  O   UNL     1      -1.294 -14.704   5.149  0.00  0.00    -0.495 OA
ATOM     40  C   UNL     1      -0.819 -15.598   6.158  0.00  0.00    +0.277 C 
ENDBRANCH  33  39
ENDBRANCH  30  31
ENDBRANCH  29  30
ENDBRANCH  27  29
ENDBRANCH   5  25
TORSDOF 8
