REMARK  Name = ZINC00293386
REMARK  4 active torsions:
REMARK  status: ('A' for Active; 'I' for Inactive)
REMARK    1  A    between atoms: C_1  and  C_2
REMARK    2  A    between atoms: C_7  and  C_15
REMARK    3  A    between atoms: C_9  and  C_13
REMARK    4  A    between atoms: C_10  and  N_12
REMARK                            x       y       z     vdW  Elec       q    Type
REMARK                         _______ _______ _______ _____ _____    ______ ____
ROOT
ATOM      1  C   UNL     1       6.176   0.385  -4.929  0.00  0.00    +0.008 C 
ATOM      2  C   UNL     1       5.366   0.696  -3.668  0.00  0.00    +0.001 C 
ATOM      3  C   UNL     1       6.278   0.631  -2.442  0.00  0.00    +0.078 C 
ATOM      4  C   UNL     1       5.487   0.977  -1.202  0.00  0.00    +0.115 C 
ATOM      5  C   UNL     1       4.455   1.839  -1.264  0.00  0.00    +0.046 C 
ATOM      6  C   UNL     1       3.676   2.194  -0.021  0.00  0.00    +0.101 C 
ATOM      7  C   UNL     1       4.468   1.838   1.205  0.00  0.00    +0.098 C 
ATOM      8  C   UNL     1       5.503   0.967   1.124  0.00  0.00    +0.198 C 
ATOM      9  O   UNL     1       5.847   0.397  -0.042  0.00  0.00    -0.445 OA
ATOM     10  C   UNL     1       4.069   2.432  -2.481  0.00  0.00    +0.164 C 
ATOM     11  O   UNL     1       3.143   3.217  -2.495  0.00  0.00    -0.292 OA
ATOM     12  C   UNL     1       4.783   2.110  -3.766  0.00  0.00    +0.083 C 
ENDROOT
BRANCH   6  13
ATOM     13  C   UNL     1       2.374   1.434  -0.013  0.00  0.00    -0.034 A 
ATOM     14  C   UNL     1       2.393   0.040  -0.021  0.00  0.00    +0.005 A 
ATOM     15  C   UNL     1       1.236  -0.676  -0.014  0.00  0.00    +0.009 A 
ATOM     16  C   UNL     1       0.002  -0.004   0.002  0.00  0.00    -0.018 A 
ATOM     17  C   UNL     1      -1.213  -0.710   0.011  0.00  0.00    +0.008 A 
ATOM     18  C   UNL     1      -2.389  -0.025   0.027  0.00  0.00    +0.001 A 
ATOM     19  C   UNL     1      -2.408   1.369   0.034  0.00  0.00    +0.001 A 
ATOM     20  C   UNL     1      -1.251   2.085   0.031  0.00  0.00    +0.008 A 
ATOM     21  C   UNL     1      -0.017   1.413   0.010  0.00  0.00    -0.018 A 
ATOM     22  C   UNL     1       1.198   2.119   0.002  0.00  0.00    +0.013 A 
ENDBRANCH   6  13
BRANCH   8  23
ATOM     23  N   UNL     1       6.214   0.660   2.258  0.00  0.00    -0.328 N 
ATOM     24  H   UNL     1       6.957   0.038   2.211  0.00  0.00    +0.145 HD
ATOM     25  H   UNL     1       5.974   1.066   3.105  0.00  0.00    +0.145 HD
ENDBRANCH   8  23
BRANCH   7  26
ATOM     26  C   UNL     1       4.128   2.423   2.467  0.00  0.00    +0.101 C 
ATOM     27  N   UNL     1       3.858   2.887   3.468  0.00  0.00    -0.191 NA
ENDBRANCH   7  26
TORSDOF 3
