REMARK  Name = ZINC02663963
REMARK  9 active torsions:
REMARK  status: ('A' for Active; 'I' for Inactive)
REMARK    1  A    between atoms: C_4  and  C_7
REMARK    2  A    between atoms: C_7  and  C_9
REMARK    3  A    between atoms: C_7  and  N_30
REMARK    4  A    between atoms: C_9  and  C_10
REMARK    5  A    between atoms: C_10  and  O_12
REMARK    6  A    between atoms: O_12  and  C_13
REMARK    7  A    between atoms: C_13  and  C_14
REMARK    8  A    between atoms: C_17  and  C_19
REMARK    9  A    between atoms: C_31  and  C_33
REMARK                            x       y       z     vdW  Elec       q    Type
REMARK                         _______ _______ _______ _____ _____    ______ ____
ROOT
ATOM      1  C   UNL     1      -9.580   2.404   0.220  0.00  0.00    +0.310 C 
ATOM      2  O   UNL     1      -9.836   1.383   0.814  0.00  0.00    -0.251 OA
ENDROOT
BRANCH   1   3
ATOM      3  C   UNL     1     -10.695   3.313  -0.230  0.00  0.00    +0.147 C 
BRANCH   3   4
ATOM      4  C   UNL     1     -12.040   2.716   0.187  0.00  0.00    +0.114 C 
BRANCH   4   8
ATOM      5  C   UNL     1     -15.210   5.108  -1.387  0.00  0.00    +0.000 A 
ATOM      6  C   UNL     1     -14.848   3.936  -2.023  0.00  0.00    +0.000 A 
ATOM      7  C   UNL     1     -13.822   3.161  -1.513  0.00  0.00    +0.005 A 
ATOM      8  C   UNL     1     -13.158   3.560  -0.368  0.00  0.00    -0.027 A 
ATOM      9  C   UNL     1     -13.524   4.730   0.271  0.00  0.00    +0.005 A 
ATOM     10  C   UNL     1     -14.547   5.506  -0.241  0.00  0.00    +0.000 A 
ENDBRANCH   4   8
BRANCH   4  11
ATOM     11  N   UNL     1     -12.129   2.688   1.649  0.00  0.00    -0.304 N 
ATOM     12  C   UNL     1     -12.933   1.794   2.259  0.00  0.00    +0.246 C 
ATOM     13  O   UNL     1     -13.584   1.011   1.595  0.00  0.00    -0.270 OA
ATOM     14  H   UNL     1     -11.610   3.313   2.179  0.00  0.00    +0.150 HD
BRANCH  12  15
ATOM     15  C   UNL     1     -13.023   1.766   3.733  0.00  0.00    +0.055 A 
ATOM     16  C   UNL     1     -12.272   2.661   4.499  0.00  0.00    +0.014 A 
ATOM     17  C   UNL     1     -12.364   2.633   5.875  0.00  0.00    +0.001 A 
ATOM     18  C   UNL     1     -13.191   1.714   6.498  0.00  0.00    +0.001 A 
ATOM     19  C   UNL     1     -13.933   0.821   5.748  0.00  0.00    +0.021 A 
ATOM     20  C   UNL     1     -13.855   0.841   4.368  0.00  0.00    +0.053 A 
ATOM     21 CL   UNL     1     -14.787  -0.281   3.427  0.00  0.00    -0.083 Cl
ENDBRANCH  12  15
ENDBRANCH   4  11
ENDBRANCH   3   4
ENDBRANCH   1   3
BRANCH   1  22
ATOM     22  O   UNL     1      -8.304   2.728  -0.040  0.00  0.00    -0.455 OA
BRANCH  22  23
ATOM     23  C   UNL     1      -7.282   1.806   0.424  0.00  0.00    +0.328 C 
BRANCH  23  24
ATOM     24  C   UNL     1      -5.922   2.331   0.045  0.00  0.00    +0.257 C 
ATOM     25  O   UNL     1      -5.823   3.380  -0.555  0.00  0.00    -0.272 OA
ATOM     26  N   UNL     1      -4.815   1.636   0.374  0.00  0.00    -0.250 N 
ATOM     27  C   UNL     1      -3.598   2.106   0.036  0.00  0.00    +0.263 C 
ATOM     28  O   UNL     1      -3.499   3.155  -0.565  0.00  0.00    -0.271 OA
ATOM     29  H   UNL     1      -4.895   0.797   0.855  0.00  0.00    +0.158 HD
BRANCH  27  30
ATOM     30  C   UNL     1      -2.361   1.329   0.404  0.00  0.00    +0.296 C 
ATOM     31  C   UNL     1      -2.350  -0.011  -0.344  0.00  0.00    +0.283 C 
ATOM     32  O   UNL     1      -1.158  -0.717   0.017  0.00  0.00    -0.484 OA
ATOM     33  C   UNL     1       0.002  -0.004   0.002  0.00  0.00    +0.162 A 
ATOM     34  C   UNL     1       1.214  -0.677  -0.017  0.00  0.00    +0.049 A 
ATOM     35  C   UNL     1       2.400   0.032  -0.027  0.00  0.00    +0.004 A 
ATOM     36  C   UNL     1       2.382   1.415  -0.017  0.00  0.00    +0.004 A 
ATOM     37  C   UNL     1       1.177   2.091   0.002  0.00  0.00    +0.049 A 
ATOM     38  C   UNL     1      -0.017   1.385   0.010  0.00  0.00    +0.163 A 
ATOM     39  O   UNL     1      -1.195   2.066   0.019  0.00  0.00    -0.473 OA
ENDBRANCH  27  30
ENDBRANCH  23  24
ENDBRANCH  22  23
ENDBRANCH   1  22
TORSDOF 9
