REMARK  Name = ZINC49543745
REMARK  8 active torsions:
REMARK  status: ('A' for Active; 'I' for Inactive)
REMARK    1  A    between atoms: C_1  and  C_2
REMARK    2  A    between atoms: C_2  and  C_3
REMARK    3  A    between atoms: C_2  and  C_4
REMARK    4  A    between atoms: C_4  and  C_5
REMARK    5  A    between atoms: N_16  and  C_17
REMARK    6  A    between atoms: C_17  and  C_18
REMARK    7  A    between atoms: N_20  and  C_21
REMARK    8  A    between atoms: C_26  and  O_27
REMARK                            x       y       z     vdW  Elec       q    Type
REMARK                         _______ _______ _______ _____ _____    ______ ____
ROOT
ATOM      1  C   UNL     1      -1.457  -2.072   0.032  0.00  0.00    +0.162 C 
ATOM      2  N   UNL     1      -0.970  -2.565   1.325  0.00  0.00    -0.325 N 
ATOM      3  C   UNL     1      -1.832  -2.551   2.416  0.00  0.00    +0.041 A 
ATOM      4  C   UNL     1      -1.365  -2.423   3.713  0.00  0.00    +0.024 A 
ATOM      5  C   UNL     1      -2.260  -2.425   4.766  0.00  0.00    +0.002 A 
ATOM      6  C   UNL     1      -3.620  -2.555   4.533  0.00  0.00    +0.001 A 
ATOM      7  C   UNL     1      -4.102  -2.680   3.247  0.00  0.00    +0.015 A 
ATOM      8  C   UNL     1      -3.212  -2.674   2.176  0.00  0.00    +0.058 A 
ATOM      9  C   UNL     1      -3.679  -2.780   0.782  0.00  0.00    +0.250 C 
ATOM     10  O   UNL     1      -4.840  -3.051   0.543  0.00  0.00    -0.270 OA
ATOM     11  N   UNL     1      -2.809  -2.572  -0.222  0.00  0.00    -0.270 N 
ATOM     12  H   UNL     1      -0.062  -2.895   1.418  0.00  0.00    +0.148 HD
ENDROOT
BRANCH   1  13
ATOM     13  C   UNL     1      -1.479  -0.542   0.049  0.00  0.00    +0.045 C 
BRANCH  13  15
ATOM     14  C   UNL     1       0.830  -0.384  -0.892  0.00  0.00    +0.007 C 
ATOM     15  C   UNL     1      -0.064  -0.015   0.293  0.00  0.00    -0.014 C 
ATOM     16  C   UNL     1      -0.105   1.507   0.445  0.00  0.00    +0.007 C 
ENDBRANCH  13  15
ENDBRANCH   1  13
BRANCH  11  17
ATOM     17  C   UNL     1      -3.226  -2.853  -1.598  0.00  0.00    +0.205 C 
BRANCH  17  18
ATOM     18  C   UNL     1      -2.899  -4.283  -1.940  0.00  0.00    +0.235 C 
ATOM     19  O   UNL     1      -2.369  -4.998  -1.116  0.00  0.00    -0.274 OA
ATOM     20  N   UNL     1      -3.194  -4.768  -3.162  0.00  0.00    -0.281 N 
ATOM     21  H   UNL     1      -3.678  -4.218  -3.799  0.00  0.00    +0.155 HD
BRANCH  20  22
ATOM     22  C   UNL     1      -2.804  -6.067  -3.514  0.00  0.00    +0.075 A 
ATOM     23  C   UNL     1      -2.784  -7.071  -2.557  0.00  0.00    +0.027 A 
ATOM     24  C   UNL     1      -2.398  -8.351  -2.907  0.00  0.00    +0.002 A 
ATOM     25  C   UNL     1      -2.031  -8.635  -4.209  0.00  0.00    +0.004 A 
ATOM     26  C   UNL     1      -2.049  -7.640  -5.169  0.00  0.00    +0.047 A 
ATOM     27  C   UNL     1      -2.439  -6.355  -4.828  0.00  0.00    +0.138 A 
BRANCH  27  28
ATOM     28  O   UNL     1      -2.462  -5.376  -5.771  0.00  0.00    -0.505 OA
ATOM     29  H   UNL     1      -1.629  -4.892  -5.856  0.00  0.00    +0.292 HD
ENDBRANCH  27  28
ENDBRANCH  20  22
ENDBRANCH  17  18
ENDBRANCH  11  17
TORSDOF 6
