REMARK  Name = ZINC63503405
REMARK  10 active torsions:
REMARK  status: ('A' for Active; 'I' for Inactive)
REMARK    1  A    between atoms: C_1  and  C_2
REMARK    2  A    between atoms: C_6  and  O_9
REMARK    3  A    between atoms: C_7  and  C_8
REMARK    4  A    between atoms: O_9  and  C_10
REMARK    5  A    between atoms: C_10  and  C_11
REMARK    6  A    between atoms: C_13  and  C_19
REMARK    7  A    between atoms: C_16  and  O_17
REMARK    8  A    between atoms: O_17  and  C_18
REMARK    9  A    between atoms: C_26  and  O_31
REMARK   10  A    between atoms: O_31  and  C_32
REMARK                            x       y       z     vdW  Elec       q    Type
REMARK                         _______ _______ _______ _____ _____    ______ ____
ROOT
ATOM      1  C   UNL     1       0.079  -4.787   3.662  0.00  0.00    +0.032 A 
ATOM      2  C   UNL     1       0.067  -3.954   4.764  0.00  0.00    +0.015 A 
ATOM      3  C   UNL     1       0.084  -4.491   6.038  0.00  0.00    -0.028 A 
ATOM      4  C   UNL     1       0.113  -5.862   6.213  0.00  0.00    +0.009 A 
ATOM      5  C   UNL     1       0.124  -6.699   5.115  0.00  0.00    +0.046 A 
ATOM      6  C   UNL     1       0.102  -6.164   3.835  0.00  0.00    +0.126 A 
ENDROOT
BRANCH   3   7
ATOM      7  C   UNL     1       0.072  -3.579   7.239  0.00  0.00    +0.111 C 
ATOM      8  C   UNL     1       1.246  -3.923   8.159  0.00  0.00    +0.128 C 
ATOM      9  C   UNL     1       0.968  -5.321   8.699  0.00  0.00    -0.035 C 
ATOM     10  C   UNL     1       2.041  -6.049   8.425  0.00  0.00    +0.003 A 
ATOM     11  C   UNL     1       2.404  -7.434   8.764  0.00  0.00    +0.055 A 
ATOM     12  C   UNL     1       3.604  -7.882   8.301  0.00  0.00    +0.121 A 
ATOM     13  C   UNL     1       4.488  -7.107   7.537  0.00  0.00    +0.047 A 
ATOM     14  C   UNL     1       4.257  -5.820   7.173  0.00  0.00    +0.029 A 
ATOM     15  C   UNL     1       2.991  -5.221   7.619  0.00  0.00    +0.043 A 
ATOM     16  N   UNL     1       2.518  -4.004   7.442  0.00  0.00    -0.376 N 
ATOM     17  C   UNL     1      -0.363  -5.683   9.312  0.00  0.00    +0.048 C 
ATOM     18  C   UNL     1      -1.439  -5.168   8.338  0.00  0.00    +0.086 C 
ATOM     19  N   UNL     1      -1.178  -3.767   7.992  0.00  0.00    -0.307 NA
ATOM     20  H   UNL     1      -1.196  -3.182   8.813  0.00  0.00    +0.123 HD
ATOM     21  H   UNL     1       2.927  -3.290   6.928  0.00  0.00    +0.160 HD
BRANCH  12  22
ATOM     22  O   UNL     1       3.967  -9.157   8.599  0.00  0.00    -0.495 OA
ATOM     23  C   UNL     1       5.230  -9.605   8.103  0.00  0.00    +0.277 C 
ENDBRANCH  12  22
ENDBRANCH   3   7
BRANCH   6  24
ATOM     24  O   UNL     1       0.107  -6.986   2.753  0.00  0.00    -0.495 OA
ATOM     25  C   UNL     1       0.131  -8.392   3.006  0.00  0.00    +0.277 C 
ENDBRANCH   6  24
BRANCH   1  26
ATOM     26  C   UNL     1       0.061  -4.202   2.274  0.00  0.00    +0.268 C 
BRANCH  26  27
ATOM     27  O   UNL     1       0.040  -2.776   2.359  0.00  0.00    -0.487 OA
BRANCH  27  33
ATOM     28  C   UNL     1      -0.043   1.502   0.010  0.00  0.00    +0.044 C 
ATOM     29  C   UNL     1      -0.019  -0.004   0.002  0.00  0.00    -0.044 A 
ATOM     30  C   UNL     1      -0.016  -0.689  -1.200  0.00  0.00    +0.004 A 
ATOM     31  C   UNL     1       0.006  -2.071  -1.211  0.00  0.00    +0.004 A 
ATOM     32  C   UNL     1       0.024  -2.772  -0.020  0.00  0.00    +0.046 A 
ATOM     33  C   UNL     1       0.021  -2.088   1.186  0.00  0.00    +0.124 A 
ATOM     34  C   UNL     1       0.005  -0.701   1.195  0.00  0.00    -0.006 A 
ATOM     35  C   UNL     1       0.009   0.046   2.504  0.00  0.00    +0.048 C 
ENDBRANCH  27  33
ENDBRANCH  26  27
ENDBRANCH   1  26
TORSDOF 6
