REMARK  Name = ZINC19820438
REMARK  11 active torsions:
REMARK  status: ('A' for Active; 'I' for Inactive)
REMARK    1  A    between atoms: C_1  and  C_2
REMARK    2  A    between atoms: C_2  and  C_3
REMARK    3  A    between atoms: C_2  and  C_4
REMARK    4  A    between atoms: C_2  and  C_5
REMARK    5  A    between atoms: C_8  and  C_11
REMARK    6  A    between atoms: C_12  and  C_27
REMARK    7  A    between atoms: C_13  and  N_19
REMARK    8  A    between atoms: C_15  and  S_17
REMARK    9  A    between atoms: S_17  and  C_18
REMARK   10  A    between atoms: N_19  and  C_20
REMARK   11  A    between atoms: C_20  and  C_21
REMARK                            x       y       z     vdW  Elec       q    Type
REMARK                         _______ _______ _______ _____ _____    ______ ____
ROOT
ATOM      1  C   UNL     1      -0.016   1.325   0.009  0.00  0.00    +0.095 A 
ATOM      2  C   UNL     1       1.210   2.023   0.001  0.00  0.00    +0.117 A 
ATOM      3  C   UNL     1       2.402   1.269  -0.014  0.00  0.00    +0.141 A 
ATOM      4  N   UNL     1       2.323  -0.057  -0.020  0.00  0.00    -0.206 NA
ATOM      5  C   UNL     1       1.148  -0.671  -0.013  0.00  0.00    +0.190 A 
ATOM      6  N   UNL     1       0.002  -0.004   0.002  0.00  0.00    -0.220 NA
ENDROOT
BRANCH   1  10
ATOM      7  C   UNL     1      -3.704   3.437   0.039  0.00  0.00    -0.042 A 
ATOM      8  C   UNL     1      -3.598   2.246  -0.657  0.00  0.00    +0.005 A 
ATOM      9  C   UNL     1      -2.403   1.555  -0.670  0.00  0.00    +0.010 A 
ATOM     10  C   UNL     1      -1.301   2.061   0.019  0.00  0.00    +0.002 A 
ATOM     11  C   UNL     1      -1.416   3.260   0.723  0.00  0.00    +0.010 A 
ATOM     12  C   UNL     1      -2.615   3.943   0.725  0.00  0.00    +0.005 A 
BRANCH   7  14
ATOM     13  C   UNL     1      -6.101   3.300   0.659  0.00  0.00    +0.015 C 
ATOM     14  C   UNL     1      -5.012   4.185   0.049  0.00  0.00    -0.013 C 
ATOM     15  C   UNL     1      -4.864   5.459   0.883  0.00  0.00    +0.015 C 
ATOM     16  C   UNL     1      -5.399   4.556  -1.384  0.00  0.00    +0.015 C 
ENDBRANCH   7  14
ENDBRANCH   1  10
BRANCH   5  17
ATOM     17  S   UNL     1       1.108  -2.433  -0.022  0.00  0.00    -0.089 S 
ATOM     18  C   UNL     1       2.882  -2.787  -0.040  0.00  0.00    +0.093 C 
ENDBRANCH   5  17
BRANCH   3  19
ATOM     19  N   UNL     1       3.630   1.898  -0.022  0.00  0.00    -0.325 N 
ATOM     20  H   UNL     1       3.685   2.997  -0.017  0.00  0.00    +0.148 HD
BRANCH  19  21
ATOM     21  C   UNL     1       4.861   1.103  -0.038  0.00  0.00    +0.134 C 
BRANCH  21  22
ATOM     22  C   UNL     1       6.072   2.038  -0.044  0.00  0.00    +0.135 C 
ATOM     23  C   UNL     1       7.372   1.211  -0.061  0.00  0.00    +0.035 C 
ATOM     24  C   UNL     1       8.100   1.675  -1.346  0.00  0.00    +0.031 C 
ATOM     25  C   UNL     1       7.439   3.051  -1.615  0.00  0.00    +0.160 C 
ATOM     26  O   UNL     1       6.062   2.843  -1.236  0.00  0.00    -0.375 OA
ENDBRANCH  21  22
ENDBRANCH  19  21
ENDBRANCH   3  19
BRANCH   2  27
ATOM     27  C   UNL     1       1.243   3.454   0.008  0.00  0.00    +0.105 C 
ATOM     28  N   UNL     1       1.269   4.590   0.014  0.00  0.00    -0.191 NA
ENDBRANCH   2  27
TORSDOF 7
