REMARK  Name = ZINC34944083
REMARK  13 active torsions:
REMARK  status: ('A' for Active; 'I' for Inactive)
REMARK    1  A    between atoms: C_1  and  C_2
REMARK    2  A    between atoms: C_2  and  C_3
REMARK    3  A    between atoms: C_3  and  C_4
REMARK    4  A    between atoms: C_4  and  N_5
REMARK    5  A    between atoms: N_8  and  C_9
REMARK    6  A    between atoms: N_8  and  C_32
REMARK    7  A    between atoms: C_9  and  C_10
REMARK    8  A    between atoms: C_10  and  C_11
REMARK    9  A    between atoms: N_16  and  C_19
REMARK   10  A    between atoms: C_19  and  C_20
REMARK   11  A    between atoms: C_19  and  C_26
REMARK   12  A    between atoms: C_32  and  C_34
REMARK   13  A    between atoms: C_32  and  C_35
REMARK                            x       y       z     vdW  Elec       q    Type
REMARK                         _______ _______ _______ _____ _____    ______ ____
ROOT
ATOM      1  C   UNL     1      -5.298  -7.265   2.253  0.00  0.00    +0.217 C 
ATOM      2  O   UNL     1      -5.376  -8.058   1.338  0.00  0.00    -0.276 OA
ATOM      3  N   UNL     1      -5.474  -7.682   3.522  0.00  0.00    -0.299 N 
ATOM      4  C   UNL     1      -5.389  -6.737   4.646  0.00  0.00    +0.123 C 
ATOM      5  C   UNL     1      -6.641  -6.899   5.514  0.00  0.00    +0.104 C 
ATOM      6  N   UNL     1      -6.787  -8.309   5.899  0.00  0.00    -0.289 NA
ATOM      7  C   UNL     1      -6.994  -9.164   4.722  0.00  0.00    +0.104 C 
ATOM      8  C   UNL     1      -5.762  -9.093   3.821  0.00  0.00    +0.123 C 
ENDROOT
BRANCH   1   9
ATOM      9  C   UNL     1      -5.003  -5.815   1.970  0.00  0.00    +0.115 C 
BRANCH   9  10
ATOM     10  C   UNL     1      -4.849  -5.610   0.462  0.00  0.00    +0.119 C 
BRANCH  10  14
ATOM     11  N   UNL     1      -2.773  -2.628  -0.092  0.00  0.00    -0.299 N 
ATOM     12  C   UNL     1      -3.145  -3.913   0.069  0.00  0.00    +0.303 C 
ATOM     13  O   UNL     1      -2.304  -4.790   0.100  0.00  0.00    -0.253 OA
ATOM     14  N   UNL     1      -4.450  -4.226   0.195  0.00  0.00    -0.278 N 
ATOM     15  H   UNL     1      -3.447  -1.937  -0.193  0.00  0.00    +0.150 HD
BRANCH  14  16
ATOM     16  C   UNL     1      -5.470  -3.182   0.065  0.00  0.00    +0.105 C 
ATOM     17  C   UNL     1      -6.861  -3.816   0.138  0.00  0.00    +0.033 C 
BRANCH  16  18
ATOM     18  C   UNL     1      -5.313  -2.185   1.183  0.00  0.00    -0.027 A 
ATOM     19  C   UNL     1      -4.908  -2.608   2.435  0.00  0.00    +0.005 A 
ATOM     20  C   UNL     1      -4.763  -1.693   3.461  0.00  0.00    +0.000 A 
ATOM     21  C   UNL     1      -5.024  -0.354   3.235  0.00  0.00    +0.000 A 
ATOM     22  C   UNL     1      -5.429   0.069   1.983  0.00  0.00    +0.000 A 
ATOM     23  C   UNL     1      -5.569  -0.845   0.956  0.00  0.00    +0.005 A 
ENDBRANCH  16  18
ENDBRANCH  14  16
BRANCH  11  24
ATOM     24  C   UNL     1      -1.352  -2.274  -0.115  0.00  0.00    +0.106 C 
BRANCH  24  25
ATOM     25  C   UNL     1      -1.205  -0.763  -0.308  0.00  0.00    +0.018 C 
BRANCH  25  27
ATOM     26  C   UNL     1       0.426   1.117  -0.525  0.00  0.00    +0.004 C 
ATOM     27  C   UNL     1       0.279  -0.394  -0.332  0.00  0.00    -0.002 C 
ENDBRANCH  25  27
ENDBRANCH  24  25
ENDBRANCH  11  24
ENDBRANCH  10  14
ENDBRANCH   9  10
ENDBRANCH   1   9
BRANCH   6  28
ATOM     28  C   UNL     1      -7.876  -8.480   6.870  0.00  0.00    +0.117 C 
BRANCH  28  29
ATOM     29  C   UNL     1      -7.995  -9.936   7.240  0.00  0.00    -0.026 A 
ATOM     30  C   UNL     1      -6.857 -10.697   7.428  0.00  0.00    +0.005 A 
ATOM     31  C   UNL     1      -6.966 -12.032   7.768  0.00  0.00    +0.000 A 
ATOM     32  C   UNL     1      -8.214 -12.607   7.919  0.00  0.00    +0.000 A 
ATOM     33  C   UNL     1      -9.353 -11.845   7.732  0.00  0.00    +0.000 A 
ATOM     34  C   UNL     1      -9.243 -10.509   7.397  0.00  0.00    +0.005 A 
ENDBRANCH  28  29
BRANCH  28  35
ATOM     35  C   UNL     1      -7.577  -7.670   8.106  0.00  0.00    -0.026 A 
ATOM     36  C   UNL     1      -6.287  -7.610   8.598  0.00  0.00    +0.005 A 
ATOM     37  C   UNL     1      -6.013  -6.868   9.732  0.00  0.00    +0.000 A 
ATOM     38  C   UNL     1      -7.030  -6.185  10.373  0.00  0.00    +0.000 A 
ATOM     39  C   UNL     1      -8.320  -6.245   9.880  0.00  0.00    +0.000 A 
ATOM     40  C   UNL     1      -8.593  -6.984   8.745  0.00  0.00    +0.005 A 
ENDBRANCH  28  35
ENDBRANCH   6  28
TORSDOF 11
