REMARK  Name = ZINC09596594
REMARK  7 active torsions:
REMARK  status: ('A' for Active; 'I' for Inactive)
REMARK    1  A    between atoms: C_1  and  C_2
REMARK    2  A    between atoms: C_6  and  N_9
REMARK    3  A    between atoms: C_7  and  C_8
REMARK    4  A    between atoms: C_13  and  S_14
REMARK    5  A    between atoms: S_14  and  C_15
REMARK    6  A    between atoms: C_15  and  C_16
REMARK    7  A    between atoms: N_18  and  N_19
REMARK                            x       y       z     vdW  Elec       q    Type
REMARK                         _______ _______ _______ _____ _____    ______ ____
ROOT
ATOM      1  C   UNL     1       4.955   2.154   4.595  0.00  0.00    +0.240 C 
ATOM      2  O   UNL     1       4.068   2.866   5.016  0.00  0.00    -0.273 OA
ATOM      3  N   UNL     1       6.059   1.942   5.338  0.00  0.00    -0.223 N 
ATOM      4  H   UNL     1       6.768   1.372   5.001  0.00  0.00    +0.174 HD
ENDROOT
BRANCH   3   5
ATOM      5  N   UNL     1       6.182   2.544   6.597  0.00  0.00    -0.137 N 
ATOM      6  C   UNL     1       6.036   1.890   7.768  0.00  0.00    +0.263 C 
ATOM      7  O   UNL     1       5.784   0.715   7.926  0.00  0.00    -0.271 OA
ATOM      8  C   UNL     1       6.255   2.931   8.842  0.00  0.00    +0.114 C 
ATOM      9  C   UNL     1       7.454   2.558   9.707  0.00  0.00    +0.035 C 
ATOM     10  C   UNL     1       7.675   3.638  10.769  0.00  0.00    +0.003 C 
ATOM     11  C   UNL     1       6.420   3.764  11.635  0.00  0.00    +0.000 C 
ATOM     12  C   UNL     1       5.232   4.162  10.758  0.00  0.00    +0.003 C 
ATOM     13  C   UNL     1       5.000   3.085   9.695  0.00  0.00    +0.035 C 
ATOM     14  N   UNL     1       6.523   4.165   8.093  0.00  0.00    -0.284 N 
ATOM     15  C   UNL     1       6.465   3.838   6.787  0.00  0.00    +0.326 C 
ATOM     16  O   UNL     1       6.646   4.631   5.884  0.00  0.00    -0.251 OA
ATOM     17  H   UNL     1       6.709   5.041   8.464  0.00  0.00    +0.151 HD
ENDBRANCH   3   5
BRANCH   1  18
ATOM     18  C   UNL     1       4.822   1.506   3.240  0.00  0.00    +0.174 C 
BRANCH  18  19
ATOM     19  S   UNL     1       3.242   1.980   2.497  0.00  0.00    -0.078 S 
BRANCH  19  24
ATOM     20  N   UNL     1       2.404   1.105  -0.015  0.00  0.00    -0.294 N 
ATOM     21  C   UNL     1       2.881   0.297  -1.025  0.00  0.00    +0.113 A 
ATOM     22  C   UNL     1       4.086  -0.150  -0.633  0.00  0.00    +0.131 A 
ATOM     23  N   UNL     1       4.350   0.352   0.585  0.00  0.00    -0.230 NA
ATOM     24  C   UNL     1       3.348   1.109   0.969  0.00  0.00    +0.174 A 
BRANCH  20  30
ATOM     25  C   UNL     1      -0.077   5.351   0.030  0.00  0.00    +0.044 C 
ATOM     26  C   UNL     1      -0.051   3.844   0.022  0.00  0.00    -0.046 A 
ATOM     27  C   UNL     1      -1.237   3.133   0.030  0.00  0.00    +0.004 A 
ATOM     28  C   UNL     1      -1.218   1.751   0.017  0.00  0.00    +0.002 A 
ATOM     29  C   UNL     1      -0.013   1.076   0.008  0.00  0.00    +0.026 A 
ATOM     30  C   UNL     1       1.179   1.787   0.000  0.00  0.00    +0.052 A 
ATOM     31  C   UNL     1       1.157   3.175   0.008  0.00  0.00    -0.024 A 
ATOM     32  C   UNL     1       2.449   3.951  -0.001  0.00  0.00    +0.046 C 
ENDBRANCH  20  30
ENDBRANCH  19  24
ENDBRANCH  18  19
ENDBRANCH   1  18
TORSDOF 5
