REMARK  Name = ZINC35703230
REMARK  16 active torsions:
REMARK  status: ('A' for Active; 'I' for Inactive)
REMARK    1  A    between atoms: C_1  and  C_2
REMARK    2  A    between atoms: C_9  and  C_20
REMARK    3  A    between atoms: C_10  and  N_11
REMARK    4  A    between atoms: N_11  and  C_12
REMARK    5  A    between atoms: C_12  and  C_13
REMARK    6  A    between atoms: C_12  and  C_14
REMARK    7  A    between atoms: C_12  and  C_15
REMARK    8  A    between atoms: C_15  and  C_16
REMARK    9  A    between atoms: C_16  and  C_17
REMARK   10  A    between atoms: C_16  and  C_18
REMARK   11  A    between atoms: C_16  and  C_19
REMARK   12  A    between atoms: C_23  and  O_28
REMARK   13  A    between atoms: C_24  and  O_26
REMARK   14  A    between atoms: O_26  and  C_27
REMARK   15  A    between atoms: O_28  and  C_29
REMARK   16  A    between atoms: C_29  and  C_31
REMARK                            x       y       z     vdW  Elec       q    Type
REMARK                         _______ _______ _______ _____ _____    ______ ____
ROOT
ATOM      1  C   UNL     1      -0.933   1.309  -4.488  0.00  0.00    +0.044 C 
ATOM      2  C   UNL     1      -0.638   0.015  -3.774  0.00  0.00    -0.046 A 
ATOM      3  C   UNL     1      -1.159  -1.196  -4.264  0.00  0.00    +0.021 A 
ATOM      4  C   UNL     1      -0.898  -2.356  -3.629  0.00  0.00    +0.094 A 
ATOM      5  N   UNL     1      -0.123  -2.374  -2.500  0.00  0.00    -0.289 N 
ATOM      6  C   UNL     1       0.400  -1.205  -1.997  0.00  0.00    +0.117 A 
ATOM      7  C   UNL     1       0.137   0.015  -2.657  0.00  0.00    +0.048 A 
ATOM      8  N   UNL     1       1.103  -1.490  -0.913  0.00  0.00    -0.338 N 
ATOM      9  C   UNL     1       1.055  -2.816  -0.690  0.00  0.00    +0.087 A 
ATOM     10  C   UNL     1       0.286  -3.389  -1.681  0.00  0.00    +0.129 A 
ATOM     11  H   UNL     1       1.577  -0.845  -0.366  0.00  0.00    +0.167 HD
ENDROOT
BRANCH   9  12
ATOM     12  C   UNL     1       1.714  -3.535   0.426  0.00  0.00    +0.005 A 
ATOM     13  C   UNL     1       2.384  -4.735   0.185  0.00  0.00    +0.014 A 
ATOM     14  C   UNL     1       2.998  -5.404   1.224  0.00  0.00    +0.051 A 
ATOM     15  C   UNL     1       2.950  -4.886   2.510  0.00  0.00    +0.173 A 
ATOM     16  C   UNL     1       2.283  -3.688   2.757  0.00  0.00    +0.163 A 
ATOM     17  C   UNL     1       1.671  -3.011   1.717  0.00  0.00    +0.059 A 
BRANCH  16  18
ATOM     18  O   UNL     1       2.237  -3.183   4.018  0.00  0.00    -0.491 OA
ATOM     19  C   UNL     1       1.535  -1.952   4.199  0.00  0.00    +0.277 C 
ENDBRANCH  16  18
BRANCH  15  20
ATOM     20  O   UNL     1       3.556  -5.548   3.531  0.00  0.00    -0.419 OA
BRANCH  20  21
ATOM     21  C   UNL     1       2.829  -6.449   4.220  0.00  0.00    +0.345 C 
ATOM     22  O   UNL     1       1.698  -6.715   3.866  0.00  0.00    -0.245 OA
BRANCH  21  23
ATOM     23  C   UNL     1       3.407  -7.112   5.406  0.00  0.00    +0.059 A 
ATOM     24  C   UNL     1       4.705  -6.804   5.819  0.00  0.00    +0.016 A 
ATOM     25  C   UNL     1       5.239  -7.426   6.927  0.00  0.00    +0.021 A 
ATOM     26  C   UNL     1       4.491  -8.356   7.630  0.00  0.00    +0.041 A 
ATOM     27  C   UNL     1       3.203  -8.667   7.226  0.00  0.00    +0.021 A 
ATOM     28  C   UNL     1       2.656  -8.046   6.123  0.00  0.00    +0.016 A 
ATOM     29 CL   UNL     1       5.171  -9.136   9.025  0.00  0.00    -0.084 Cl
ENDBRANCH  21  23
ENDBRANCH  20  21
ENDBRANCH  15  20
ENDBRANCH   9  12
BRANCH  10  30
ATOM     30  N   UNL     1      -0.016  -4.744  -1.821  0.00  0.00    -0.323 N 
ATOM     31  H   UNL     1       0.210  -5.367  -1.112  0.00  0.00    +0.148 HD
BRANCH  30  32
ATOM     32  C   UNL     1      -0.674  -5.226  -3.038  0.00  0.00    +0.028 C 
ATOM     33  C   UNL     1      -2.089  -4.650  -3.115  0.00  0.00    +0.031 C 
ATOM     34  C   UNL     1       0.127  -4.779  -4.262  0.00  0.00    +0.031 C 
BRANCH  32  35
ATOM     35  C   UNL     1      -0.747  -6.755  -3.007  0.00  0.00    +0.031 C 
BRANCH  35  36
ATOM     36  C   UNL     1       0.547  -7.315  -2.412  0.00  0.00    -0.036 C 
ATOM     37  C   UNL     1       0.368  -7.523  -0.907  0.00  0.00    +0.010 C 
ATOM     38  C   UNL     1       0.876  -8.653  -3.076  0.00  0.00    +0.010 C 
ATOM     39  C   UNL     1       1.691  -6.329  -2.658  0.00  0.00    +0.010 C 
ENDBRANCH  35  36
ENDBRANCH  32  35
ENDBRANCH  30  32
ENDBRANCH  10  30
TORSDOF 9
