REMARK  Name = ZINC11617167
REMARK  6 active torsions:
REMARK  status: ('A' for Active; 'I' for Inactive)
REMARK    1  A    between atoms: C_1  and  C_2
REMARK    2  A    between atoms: C_5  and  C_8
REMARK    3  A    between atoms: C_17  and  C_20
REMARK    4  A    between atoms: N_22  and  C_23
REMARK    5  A    between atoms: C_23  and  C_25
REMARK    6  A    between atoms: C_23  and  C_26
REMARK                            x       y       z     vdW  Elec       q    Type
REMARK                         _______ _______ _______ _____ _____    ______ ____
ROOT
ATOM      1  C   UNL     1       0.059  -4.275  -0.021  0.00  0.00    -0.003 C 
ATOM      2  C   UNL     1       1.323  -4.772   0.684  0.00  0.00    +0.015 C 
ATOM      3  C   UNL     1       1.343  -6.302   0.676  0.00  0.00    -0.009 C 
ATOM      4  C   UNL     1       0.109  -6.833   1.407  0.00  0.00    +0.007 C 
ATOM      5  C   UNL     1      -1.155  -6.336   0.701  0.00  0.00    -0.009 C 
ATOM      6  C   UNL     1      -1.175  -4.806   0.710  0.00  0.00    +0.015 C 
ATOM      7  C   UNL     1      -1.163  -6.838  -0.744  0.00  0.00    +0.019 C 
ATOM      8  C   UNL     1       0.072  -6.307  -1.475  0.00  0.00    +0.048 C 
ATOM      9  C   UNL     1       1.335  -6.804  -0.769  0.00  0.00    +0.019 C 
ATOM     10  C   UNL     1       0.051  -4.777  -1.467  0.00  0.00    +0.027 C 
ENDROOT
BRANCH   1  15
ATOM     11  C   UNL     1      -0.018   1.503   0.010  0.00  0.00    +0.044 C 
ATOM     12  C   UNL     1       0.002  -0.004   0.002  0.00  0.00    -0.050 A 
ATOM     13  C   UNL     1      -0.006  -0.689  -1.199  0.00  0.00    +0.003 A 
ATOM     14  C   UNL     1       0.018  -2.071  -1.206  0.00  0.00    +0.004 A 
ATOM     15  C   UNL     1       0.039  -2.768  -0.013  0.00  0.00    -0.041 A 
ATOM     16  C   UNL     1       0.042  -2.084   1.188  0.00  0.00    +0.004 A 
ATOM     17  C   UNL     1       0.023  -0.702   1.195  0.00  0.00    +0.003 A 
ENDBRANCH   1  15
BRANCH   8  18
ATOM     18  C   UNL     1       0.064  -6.802  -2.899  0.00  0.00    +0.220 C 
ATOM     19  O   UNL     1       0.044  -6.009  -3.816  0.00  0.00    -0.275 OA
ATOM     20  N   UNL     1       0.080  -8.126  -3.152  0.00  0.00    -0.304 N 
ATOM     21  H   UNL     1       0.096  -8.760  -2.418  0.00  0.00    +0.149 HD
BRANCH  20  22
ATOM     22  C   UNL     1       0.072  -8.607  -4.536  0.00  0.00    +0.156 C 
ATOM     23  C   UNL     1      -1.369  -8.675  -5.044  0.00  0.00    +0.038 C 
BRANCH  22  24
ATOM     24  C   UNL     1       0.691  -9.979  -4.594  0.00  0.00    +0.231 C 
ATOM     25  O   UNL     1       1.098 -10.505  -3.579  0.00  0.00    -0.274 OA
ATOM     26  N   UNL     1       0.792 -10.624  -5.774  0.00  0.00    -0.328 N 
ATOM     27  H   UNL     1       0.466 -10.204  -6.585  0.00  0.00    +0.145 HD
ATOM     28  H   UNL     1       1.190 -11.508  -5.811  0.00  0.00    +0.145 HD
ENDBRANCH  22  24
ENDBRANCH  20  22
ENDBRANCH   8  18
TORSDOF 4
