REMARK  Name = ZINC15933901
REMARK  6 active torsions:
REMARK  status: ('A' for Active; 'I' for Inactive)
REMARK    1  A    between atoms: C_5  and  C_7
REMARK    2  A    between atoms: C_7  and  N_8
REMARK    3  A    between atoms: C_10  and  C_17
REMARK    4  A    between atoms: N_18  and  N_19
REMARK    5  A    between atoms: C_20  and  C_22
REMARK    6  A    between atoms: C_25  and  N_28
REMARK                            x       y       z     vdW  Elec       q    Type
REMARK                         _______ _______ _______ _____ _____    ______ ____
ROOT
ATOM      1  N   UNL     1       1.368  -2.681   1.350  0.00  0.00    -0.342 N 
ATOM      2  C   UNL     1       2.550  -3.014   1.941  0.00  0.00    +0.096 A 
ATOM      3  C   UNL     1       2.324  -3.434   3.215  0.00  0.00    +0.020 A 
ATOM      4  C   UNL     1       0.869  -3.353   3.432  0.00  0.00    +0.009 A 
ATOM      5  C   UNL     1       0.324  -2.870   2.230  0.00  0.00    +0.050 A 
ATOM      6  C   UNL     1      -1.050  -2.680   2.131  0.00  0.00    +0.026 A 
ATOM      7  C   UNL     1      -1.862  -2.963   3.208  0.00  0.00    +0.002 A 
ATOM      8  C   UNL     1      -1.323  -3.438   4.395  0.00  0.00    +0.001 A 
ATOM      9  C   UNL     1       0.035  -3.639   4.511  0.00  0.00    +0.010 A 
ENDROOT
BRANCH   3  10
ATOM     10  C   UNL     1       3.335  -3.883   4.186  0.00  0.00    +0.140 C 
ATOM     11  N   UNL     1       2.971  -4.259   5.375  0.00  0.00    -0.187 NA
BRANCH  11  12
ATOM     12  N   UNL     1       3.933  -4.686   6.300  0.00  0.00    -0.203 N 
ATOM     13  C   UNL     1       3.555  -5.076   7.534  0.00  0.00    +0.263 C 
ATOM     14  O   UNL     1       2.379  -5.057   7.844  0.00  0.00    -0.268 OA
ATOM     15  H   UNL     1       4.871  -4.701   6.052  0.00  0.00    +0.178 HD
BRANCH  13  16
ATOM     16  C   UNL     1       4.568  -5.525   8.507  0.00  0.00    +0.038 A 
ATOM     17  C   UNL     1       5.921  -5.542   8.153  0.00  0.00    +0.015 A 
ATOM     18  C   UNL     1       6.863  -5.962   9.064  0.00  0.00    +0.023 A 
ATOM     19  C   UNL     1       6.471  -6.370  10.336  0.00  0.00    +0.025 A 
ATOM     20  C   UNL     1       5.125  -6.354  10.691  0.00  0.00    +0.023 A 
ATOM     21  C   UNL     1       4.178  -5.930   9.787  0.00  0.00    +0.015 A 
BRANCH  19  22
ATOM     22  N   UNL     1       7.426  -6.794  11.254  0.00  0.00    -0.358 N 
ATOM     23  H   UNL     1       8.364  -6.805  11.007  0.00  0.00    +0.142 HD
ATOM     24  H   UNL     1       7.154  -7.079  12.140  0.00  0.00    +0.142 HD
ENDBRANCH  19  22
ENDBRANCH  13  16
ENDBRANCH  11  12
ENDBRANCH   3  10
BRANCH   1  25
ATOM     25  C   UNL     1       1.228  -2.186  -0.022  0.00  0.00    +0.159 C 
BRANCH  25  30
ATOM     26  C   UNL     1      -0.017   1.378   0.010  0.00  0.00    +0.000 A 
ATOM     27  C   UNL     1       1.171   2.087   0.002  0.00  0.00    +0.003 A 
ATOM     28  C   UNL     1       2.377   1.414  -0.013  0.00  0.00    +0.039 A 
ATOM     29  C   UNL     1       2.397   0.029  -0.021  0.00  0.00    +0.128 A 
ATOM     30  C   UNL     1       1.208  -0.679  -0.013  0.00  0.00    +0.007 A 
ATOM     31  C   UNL     1       0.002  -0.004   0.002  0.00  0.00    +0.008 A 
ATOM     32  F   UNL     1       3.577  -0.630  -0.036  0.00  0.00    -0.205 F 
ENDBRANCH  25  30
ENDBRANCH   1  25
TORSDOF 6
