REMARK  Name = ZINC11904653
REMARK  7 active torsions:
REMARK  status: ('A' for Active; 'I' for Inactive)
REMARK    1  A    between atoms: C_1  and  C_2
REMARK    2  A    between atoms: C_4  and  C_28
REMARK    3  A    between atoms: C_5  and  N_9
REMARK    4  A    between atoms: N_9  and  S_10
REMARK    5  A    between atoms: S_10  and  C_13
REMARK    6  A    between atoms: C_16  and  N_20
REMARK    7  A    between atoms: C_18  and  C_19
REMARK                            x       y       z     vdW  Elec       q    Type
REMARK                         _______ _______ _______ _____ _____    ______ ____
ROOT
ATOM      1  C   UNL     1      -1.692  -1.689  -3.783  0.00  0.00    +0.111 A 
ATOM      2  C   UNL     1      -2.592  -1.452  -4.806  0.00  0.00    +0.031 A 
ATOM      3  C   UNL     1      -3.811  -2.101  -4.820  0.00  0.00    +0.027 A 
ATOM      4  C   UNL     1      -4.136  -2.985  -3.800  0.00  0.00    +0.060 A 
ATOM      5  C   UNL     1      -3.233  -3.216  -2.771  0.00  0.00    +0.030 A 
ATOM      6  C   UNL     1      -2.014  -2.568  -2.765  0.00  0.00    -0.022 A 
ATOM      7  C   UNL     1      -1.033  -2.818  -1.649  0.00  0.00    +0.046 C 
ENDROOT
BRANCH   4   8
ATOM      8  N   UNL     1      -5.372  -3.641  -3.808  0.00  0.00    -0.144 N 
ATOM      9  C   UNL     1      -5.647  -4.815  -3.220  0.00  0.00    +0.240 C 
ATOM     10  O   UNL     1      -4.800  -5.402  -2.581  0.00  0.00    -0.274 OA
ATOM     11  C   UNL     1      -7.027  -5.383  -3.366  0.00  0.00    +0.122 C 
ATOM     12  C   UNL     1      -7.990  -4.245  -3.795  0.00  0.00    +0.198 C 
ATOM     13  S   UNL     1      -6.768  -3.103  -4.561  0.00  0.00    +0.052 S 
ATOM     14  O   UNL     1      -6.962  -1.772  -4.106  0.00  0.00    -0.155 OA
ATOM     15  O   UNL     1      -6.596  -3.395  -5.942  0.00  0.00    -0.155 OA
ENDBRANCH   4   8
BRANCH   1  16
ATOM     16  S   UNL     1      -0.136  -0.863  -3.772  0.00  0.00    +0.073 S 
ATOM     17  O   UNL     1      -0.107  -0.035  -4.927  0.00  0.00    -0.150 OA
ATOM     18  O   UNL     1       0.849  -1.856  -3.522  0.00  0.00    -0.150 OA
BRANCH  16  19
ATOM     19  N   UNL     1      -0.129   0.151  -2.463  0.00  0.00    -0.215 N 
ATOM     20  H   UNL     1       0.468  -0.023  -1.718  0.00  0.00    +0.174 HD
BRANCH  19  25
ATOM     21  C   UNL     1      -3.582   4.649  -2.326  0.00  0.00    +0.044 C 
ATOM     22  C   UNL     1      -2.666   3.453  -2.365  0.00  0.00    -0.049 A 
ATOM     23  C   UNL     1      -2.882   2.390  -1.507  0.00  0.00    +0.008 A 
ATOM     24  C   UNL     1      -2.045   1.292  -1.539  0.00  0.00    -0.026 A 
ATOM     25  C   UNL     1      -0.981   1.258  -2.432  0.00  0.00    +0.069 A 
ATOM     26  C   UNL     1      -0.771   2.324  -3.298  0.00  0.00    +0.064 A 
ATOM     27  C   UNL     1      -1.612   3.420  -3.260  0.00  0.00    +0.025 A 
ATOM     28 CL   UNL     1       0.552   2.284  -4.421  0.00  0.00    -0.082 Cl
ATOM     29  C   UNL     1      -2.281   0.135  -0.603  0.00  0.00    +0.046 C 
ENDBRANCH  19  25
ENDBRANCH  16  19
ENDBRANCH   1  16
TORSDOF 4
