REMARK  Name = ZINC32482741
REMARK  7 active torsions:
REMARK  status: ('A' for Active; 'I' for Inactive)
REMARK    1  A    between atoms: C_1  and  C_2
REMARK    2  A    between atoms: C_2  and  C_3
REMARK    3  A    between atoms: C_2  and  C_4
REMARK    4  A    between atoms: C_2  and  C_5
REMARK    5  A    between atoms: C_8  and  S_11
REMARK    6  A    between atoms: S_11  and  N_14
REMARK    7  A    between atoms: C_20  and  C_22
REMARK                            x       y       z     vdW  Elec       q    Type
REMARK                         _______ _______ _______ _____ _____    ______ ____
ROOT
ATOM      1  N   UNL     1       3.263  -0.856  -6.896  0.00  0.00    -0.174 NA
ATOM      2  C   UNL     1       2.105  -0.979  -7.792  0.00  0.00    +0.128 C 
ATOM      3  C   UNL     1       1.088   0.111  -7.432  0.00  0.00    +0.125 C 
ATOM      4  N   UNL     1       1.789   1.400  -7.354  0.00  0.00    -0.295 N 
ATOM      5  C   UNL     1       2.947   1.524  -6.458  0.00  0.00    +0.125 C 
ATOM      6  C   UNL     1       3.961   0.436  -6.815  0.00  0.00    +0.128 C 
ATOM      7  C   UNL     1       1.377   2.450  -8.092  0.00  0.00    +0.247 C 
ATOM      8  O   UNL     1       1.921   3.530  -7.968  0.00  0.00    -0.270 OA
ENDROOT
BRANCH   7   9
ATOM      9  C   UNL     1       0.265   2.289  -9.049  0.00  0.00    +0.039 A 
ATOM     10  C   UNL     1      -0.945   1.722  -8.624  0.00  0.00    +0.014 A 
ATOM     11  C   UNL     1      -1.978   1.567  -9.498  0.00  0.00    +0.011 A 
ATOM     12  C   UNL     1      -1.834   1.975 -10.829  0.00  0.00    -0.000 A 
ATOM     13  C   UNL     1      -2.716   1.955 -11.995  0.00  0.00    +0.027 A 
ATOM     14  C   UNL     1      -2.026   2.487 -13.020  0.00  0.00    +0.083 A 
ATOM     15  N   UNL     1      -0.776   2.846 -12.604  0.00  0.00    -0.361 N 
ATOM     16  H   UNL     1      -0.097   3.251 -13.165  0.00  0.00    +0.165 HD
ATOM     17  C   UNL     1      -0.623   2.547 -11.267  0.00  0.00    +0.047 A 
ATOM     18  C   UNL     1       0.422   2.705 -10.369  0.00  0.00    +0.039 A 
ENDBRANCH   7   9
BRANCH   1  19
ATOM     19  S   UNL     1       3.769  -2.146  -5.990  0.00  0.00    +0.061 S 
ATOM     20  O   UNL     1       5.141  -1.920  -5.693  0.00  0.00    -0.153 OA
ATOM     21  O   UNL     1       3.317  -3.315  -6.660  0.00  0.00    -0.153 OA
BRANCH  19  25
ATOM     22  C   UNL     1       1.547  -1.971  -2.051  0.00  0.00    -0.042 A 
ATOM     23  C   UNL     1       1.009  -2.667  -3.117  0.00  0.00    +0.006 A 
ATOM     24  C   UNL     1       1.688  -2.720  -4.320  0.00  0.00    +0.029 A 
ATOM     25  C   UNL     1       2.904  -2.077  -4.457  0.00  0.00    +0.105 A 
ATOM     26  C   UNL     1       3.441  -1.380  -3.391  0.00  0.00    +0.029 A 
ATOM     27  C   UNL     1       2.760  -1.323  -2.189  0.00  0.00    +0.006 A 
BRANCH  22  29
ATOM     28  C   UNL     1       0.489  -0.456  -0.397  0.00  0.00    +0.015 C 
ATOM     29  C   UNL     1       0.807  -1.913  -0.739  0.00  0.00    -0.013 C 
ATOM     30  C   UNL     1       1.677  -2.518   0.364  0.00  0.00    +0.015 C 
ATOM     31  C   UNL     1      -0.497  -2.705  -0.853  0.00  0.00    +0.015 C 
ENDBRANCH  22  29
ENDBRANCH  19  25
ENDBRANCH   1  19
TORSDOF 4
