REMARK  Name = ZINC66704486
REMARK  6 active torsions:
REMARK  status: ('A' for Active; 'I' for Inactive)
REMARK    1  A    between atoms: C_1  and  C_2
REMARK    2  A    between atoms: C_2  and  C_4
REMARK    3  A    between atoms: C_2  and  N_13
REMARK    4  A    between atoms: N_16  and  C_17
REMARK    5  A    between atoms: C_17  and  C_18
REMARK    6  A    between atoms: C_22  and  C_24
REMARK                            x       y       z     vdW  Elec       q    Type
REMARK                         _______ _______ _______ _____ _____    ______ ____
ROOT
ATOM      1  N   UNL     1       0.688  -0.476  -1.203  0.00  0.00    -0.293 N 
ATOM      2  C   UNL     1       0.006  -0.608  -2.358  0.00  0.00    +0.300 C 
ATOM      3  O   UNL     1      -1.178  -0.335  -2.400  0.00  0.00    -0.253 OA
ATOM      4  N   UNL     1       0.637  -1.043  -3.467  0.00  0.00    -0.292 N 
ATOM      5  H   UNL     1       1.632  -0.695  -1.170  0.00  0.00    +0.151 HD
ATOM      6  H   UNL     1       1.582  -1.261  -3.434  0.00  0.00    +0.151 HD
ENDROOT
BRANCH   1   8
ATOM      7  C   UNL     1      -0.019   1.526   0.010  0.00  0.00    +0.033 C 
ATOM      8  C   UNL     1       0.002  -0.004   0.002  0.00  0.00    +0.102 C 
BRANCH   8   9
ATOM      9  C   UNL     1       0.731  -0.503   1.223  0.00  0.00    -0.022 A 
ATOM     10  C   UNL     1       2.113  -0.513   1.246  0.00  0.00    +0.047 A 
ATOM     11  C   UNL     1       2.784  -0.972   2.366  0.00  0.00    +0.162 A 
ATOM     12  C   UNL     1       2.070  -1.421   3.466  0.00  0.00    +0.193 A 
ATOM     13  C   UNL     1       0.684  -1.409   3.441  0.00  0.00    +0.162 A 
ATOM     14  C   UNL     1       0.017  -0.945   2.321  0.00  0.00    +0.047 A 
ATOM     15  F   UNL     1      -0.015  -1.847   4.511  0.00  0.00    -0.202 F 
ATOM     16  F   UNL     1       2.723  -1.869   4.560  0.00  0.00    -0.199 F 
ATOM     17  F   UNL     1       4.135  -0.983   2.387  0.00  0.00    -0.202 F 
ENDBRANCH   8   9
ENDBRANCH   1   8
BRANCH   4  18
ATOM     18  C   UNL     1      -0.104  -1.186  -4.723  0.00  0.00    +0.181 C 
BRANCH  18  19
ATOM     19  C   UNL     1       0.825  -1.684  -5.800  0.00  0.00    +0.143 A 
ATOM     20  N   UNL     1       0.988  -2.968  -6.167  0.00  0.00    -0.261 N 
ATOM     21  H   UNL     1       0.536  -3.740  -5.793  0.00  0.00    +0.190 HD
ATOM     22  N   UNL     1       1.942  -2.971  -7.199  0.00  0.00    -0.152 NA
ATOM     23  C   UNL     1       2.293  -1.716  -7.393  0.00  0.00    +0.188 A 
ATOM     24  N   UNL     1       1.605  -0.942  -6.541  0.00  0.00    -0.209 NA
BRANCH  23  25
ATOM     25  C   UNL     1       3.278  -1.241  -8.387  0.00  0.00    +0.058 A 
ATOM     26  C   UNL     1       4.008  -1.964  -9.293  0.00  0.00    +0.019 A 
ATOM     27  C   UNL     1       4.875  -1.296 -10.129  0.00  0.00    +0.008 A 
ATOM     28  C   UNL     1       4.979   0.055 -10.031  0.00  0.00    +0.046 A 
ATOM     29  S   UNL     1       3.820   0.426  -8.726  0.00  0.00    -0.093 S 
ENDBRANCH  23  25
ENDBRANCH  18  19
ENDBRANCH   4  18
TORSDOF 5
