REMARK  Name = ZINC35606355
REMARK  9 active torsions:
REMARK  status: ('A' for Active; 'I' for Inactive)
REMARK    1  A    between atoms: C_1  and  C_2
REMARK    2  A    between atoms: C_2  and  CA_3
REMARK    3  A    between atoms: CA_3  and  C_5
REMARK    4  A    between atoms: CA_3  and  N_7
REMARK    5  A    between atoms: C_5  and  O_6
REMARK    6  A    between atoms: N_7  and  C_8
REMARK    7  A    between atoms: C_11  and  S_14
REMARK    8  A    between atoms: S_14  and  N_17
REMARK    9  A    between atoms: N_17  and  C_18
REMARK                            x       y       z     vdW  Elec       q    Type
REMARK                         _______ _______ _______ _____ _____    ______ ____
ROOT
ATOM      1  C   UNL     1      -2.631   1.213  -1.149  0.00  0.00    +0.028 A 
ATOM      2  C   UNL     1      -2.465   2.094  -0.088  0.00  0.00    +0.025 A 
ATOM      3  C   UNL     1      -2.947   3.385  -0.183  0.00  0.00    +0.030 A 
ATOM      4  C   UNL     1      -3.595   3.800  -1.332  0.00  0.00    +0.105 A 
ATOM      5  C   UNL     1      -3.762   2.925  -2.390  0.00  0.00    +0.030 A 
ATOM      6  C   UNL     1      -3.277   1.635  -2.304  0.00  0.00    +0.025 A 
ENDROOT
BRANCH   4   7
ATOM      7  S   UNL     1      -4.209   5.447  -1.448  0.00  0.00    +0.058 S 
ATOM      8  O   UNL     1      -5.255   5.424  -2.410  0.00  0.00    -0.153 OA
ATOM      9  O   UNL     1      -4.409   5.901  -0.116  0.00  0.00    -0.153 OA
BRANCH   7  10
ATOM     10  N   UNL     1      -2.998   6.378  -2.089  0.00  0.00    -0.193 NA
ATOM     11  C   UNL     1      -2.537   6.137  -3.458  0.00  0.00    +0.127 C 
ATOM     12  H   UNL     1      -2.595   7.082  -1.557  0.00  0.00    +0.148 HD
ENDBRANCH   7  10
ENDBRANCH   4   7
BRANCH   1  13
ATOM     13  N   UNL     1      -2.144  -0.093  -1.056  0.00  0.00    -0.339 N 
ATOM     14  H   UNL     1      -2.332  -0.732  -1.762  0.00  0.00    +0.146 HD
BRANCH  13  15
ATOM     15  CA  UNL     1      -1.349  -0.498   0.106  0.00  0.00    +0.095 C 
BRANCH  15  17
ATOM     16  C   UNL     1       0.600  -1.154  -1.313  0.00  0.00    +0.006 C 
ATOM     17  C   UNL     1      -0.421  -1.649  -0.287  0.00  0.00    +0.021 C 
ENDBRANCH  15  17
BRANCH  15  18
ATOM     18  C   UNL     1      -2.284  -0.956   1.228  0.00  0.00    +0.178 C 
BRANCH  18  19
ATOM     19  O   UNL     1      -2.980  -2.134   0.816  0.00  0.00    -0.393 OA
ATOM     20  H   UNL     1      -3.592  -2.482   1.480  0.00  0.00    +0.209 HD
ENDBRANCH  18  19
ENDBRANCH  15  18
ENDBRANCH  13  15
ENDBRANCH   1  13
TORSDOF 7
