REMARK  Name = ZINC29456810
REMARK  7 active torsions:
REMARK  status: ('A' for Active; 'I' for Inactive)
REMARK    1  A    between atoms: C_1  and  C_2
REMARK    2  A    between atoms: C_5  and  N_9
REMARK    3  A    between atoms: C_6  and  C_8
REMARK    4  A    between atoms: C_10  and  C_12
REMARK    5  A    between atoms: C_12  and  C_14
REMARK    6  A    between atoms: C_12  and  N_15
REMARK    7  A    between atoms: N_15  and  C_16
REMARK                            x       y       z     vdW  Elec       q    Type
REMARK                         _______ _______ _______ _____ _____    ______ ____
ROOT
ATOM      1  C   UNL     1      -3.712  -1.062  -0.201  0.00  0.00    +0.154 C 
ATOM      2  C   UNL     1      -4.564  -0.800   1.042  0.00  0.00    +0.038 C 
ENDROOT
BRANCH   1   4
ATOM      3  N   UNL     1      -2.428   1.041   0.019  0.00  0.00    -0.284 N 
ATOM      4  C   UNL     1      -2.415  -0.302  -0.090  0.00  0.00    +0.237 C 
ATOM      5  O   UNL     1      -1.359  -0.900  -0.098  0.00  0.00    -0.273 OA
ATOM      6  H   UNL     1      -3.384   1.575   0.118  0.00  0.00    +0.155 HD
BRANCH   3  11
ATOM      7  C   UNL     1       2.446   3.944  -0.044  0.00  0.00    +0.044 C 
ATOM      8  C   UNL     1       1.152   3.172  -0.024  0.00  0.00    -0.050 A 
ATOM      9  C   UNL     1       1.082   1.928  -0.626  0.00  0.00    +0.005 A 
ATOM     10  C   UNL     1      -0.102   1.218  -0.610  0.00  0.00    +0.024 A 
ATOM     11  C   UNL     1      -1.225   1.756   0.006  0.00  0.00    +0.036 A 
ATOM     12  C   UNL     1      -1.150   3.002   0.613  0.00  0.00    -0.029 A 
ATOM     13  C   UNL     1       0.038   3.708   0.594  0.00  0.00    +0.008 A 
ATOM     14  C   UNL     1      -2.364   3.587   1.288  0.00  0.00    +0.045 C 
ENDBRANCH   3  11
ENDBRANCH   1   4
BRANCH   1  15
ATOM     15  N   UNL     1      -3.430  -2.496  -0.308  0.00  0.00    -0.333 N 
ATOM     16  H   UNL     1      -2.493  -2.904   0.099  0.00  0.00    +0.147 HD
BRANCH  15  17
ATOM     17  C   UNL     1      -4.353  -3.346  -0.926  0.00  0.00    +0.031 A 
ATOM     18  C   UNL     1      -5.539  -2.832  -1.435  0.00  0.00    +0.027 A 
ATOM     19  C   UNL     1      -6.449  -3.670  -2.051  0.00  0.00    +0.051 A 
ATOM     20  C   UNL     1      -6.186  -5.026  -2.154  0.00  0.00    +0.173 A 
ATOM     21  C   UNL     1      -5.001  -5.546  -1.640  0.00  0.00    +0.174 A 
ATOM     22  C   UNL     1      -4.087  -4.705  -1.027  0.00  0.00    +0.072 A 
ATOM     23  O   UNL     1      -4.981  -6.892  -1.864  0.00  0.00    -0.395 OA
ATOM     24  C   UNL     1      -6.344  -7.254  -2.154  0.00  0.00    +0.589 C 
ATOM     25  O   UNL     1      -6.909  -6.048  -2.701  0.00  0.00    -0.395 OA
ATOM     26  F   UNL     1      -7.014  -7.624  -0.983  0.00  0.00    -0.125 F 
ATOM     27  F   UNL     1      -6.392  -8.289  -3.094  0.00  0.00    -0.125 F 
ENDBRANCH  15  17
ENDBRANCH   1  15
TORSDOF 4
