REMARK  Name = ZINC31964563
REMARK  7 active torsions:
REMARK  status: ('A' for Active; 'I' for Inactive)
REMARK    1  A    between atoms: C_1  and  C_2
REMARK    2  A    between atoms: C_2  and  C_4
REMARK    3  A    between atoms: C_2  and  N_25
REMARK    4  A    between atoms: C_4  and  N_5
REMARK    5  A    between atoms: C_6  and  C_8
REMARK    6  A    between atoms: C_12  and  S_14
REMARK    7  A    between atoms: S_14  and  N_17
REMARK                            x       y       z     vdW  Elec       q    Type
REMARK                         _______ _______ _______ _____ _____    ______ ____
ROOT
ATOM      1  N   UNL     1      -2.812   1.421   2.538  0.00  0.00    -0.313 N 
ATOM      2  C   UNL     1      -4.089   1.059   2.771  0.00  0.00    +0.244 C 
ATOM      3  O   UNL     1      -4.703   0.424   1.936  0.00  0.00    -0.270 OA
ATOM      4  H   UNL     1      -2.257   1.996   3.293  0.00  0.00    +0.149 HD
ENDROOT
BRANCH   2   5
ATOM      5  C   UNL     1      -4.743   1.435   4.042  0.00  0.00    +0.039 A 
ATOM      6  C   UNL     1      -4.039   2.159   5.006  0.00  0.00    +0.014 A 
ATOM      7  C   UNL     1      -4.656   2.510   6.188  0.00  0.00    +0.023 A 
ATOM      8  C   UNL     1      -5.968   2.137   6.425  0.00  0.00    +0.067 A 
ATOM      9  C   UNL     1      -6.671   1.413   5.475  0.00  0.00    +0.124 A 
ATOM     10  C   UNL     1      -6.066   1.061   4.287  0.00  0.00    +0.043 A 
ATOM     11 CL   UNL     1      -6.737   2.577   7.918  0.00  0.00    -0.082 Cl
BRANCH   9  12
ATOM     12  S   UNL     1      -8.340   0.943   5.786  0.00  0.00    +0.062 S 
ATOM     13  O   UNL     1      -9.015   2.111   6.232  0.00  0.00    -0.153 OA
ATOM     14  O   UNL     1      -8.770   0.201   4.653  0.00  0.00    -0.153 OA
BRANCH  12  15
ATOM     15  N   UNL     1      -8.322  -0.111   7.063  0.00  0.00    -0.177 NA
ATOM     16  C   UNL     1      -8.196  -1.525   6.793  0.00  0.00    +0.109 C 
ATOM     17  C   UNL     1      -9.594  -2.150   6.599  0.00  0.00    +0.017 C 
ATOM     18  C   UNL     1     -10.309  -2.210   7.883  0.00  0.00    +0.001 C 
ATOM     19  C   UNL     1     -10.586  -0.848   8.513  0.00  0.00    +0.001 C 
ATOM     20  C   UNL     1      -9.382  -0.411   9.310  0.00  0.00    +0.017 C 
ATOM     21  C   UNL     1      -8.442   0.433   8.430  0.00  0.00    +0.109 C 
ENDBRANCH  12  15
ENDBRANCH   9  12
ENDBRANCH   2   5
BRANCH   1  22
ATOM     22  C   UNL     1      -2.164   1.050   1.278  0.00  0.00    +0.089 C 
BRANCH  22  24
ATOM     23  C   UNL     1      -0.013   1.086   0.008  0.00  0.00    -0.012 C 
ATOM     24  C   UNL     1      -0.729   1.579   1.267  0.00  0.00    -0.054 C 
BRANCH  24  25
ATOM     25  N   UNL     1      -0.018   1.093   2.457  0.00  0.00    +0.385 N 
ATOM     26  C   UNL     1       1.265   1.789   2.626  0.00  0.00    -0.073 C 
ATOM     27  C   UNL     1       1.768   1.561   4.061  0.00  0.00    +0.024 C 
ATOM     28  C   UNL     1       1.626   0.106   4.368  0.00  0.00    -0.011 A 
ATOM     29  C   UNL     1       0.909  -0.809   3.657  0.00  0.00    -0.054 A 
ATOM     30  C   UNL     1       0.925  -2.118   4.133  0.00  0.00    +0.009 A 
ATOM     31  C   UNL     1       1.627  -2.424   5.249  0.00  0.00    +0.045 A 
ATOM     32  S   UNL     1       2.321  -0.838   5.694  0.00  0.00    -0.101 S 
ATOM     33  C   UNL     1       0.147  -0.366   2.411  0.00  0.00    -0.042 C 
ATOM     34  H   UNL     1      -0.631   1.321   3.342  0.00  0.00    -0.081 HD
ENDBRANCH  24  25
ENDBRANCH  22  24
ENDBRANCH   1  22
TORSDOF 6
