REMARK  Name = ZINC39686756
REMARK  10 active torsions:
REMARK  status: ('A' for Active; 'I' for Inactive)
REMARK    1  A    between atoms: C_1  and  C_2
REMARK    2  A    between atoms: C_7  and  C_8
REMARK    3  A    between atoms: C_8  and  C_9
REMARK    4  A    between atoms: C_13  and  C_22
REMARK    5  A    between atoms: N_24  and  C_25
REMARK    6  A    between atoms: C_25  and  C_27
REMARK    7  A    between atoms: C_25  and  C_28
REMARK    8  A    between atoms: C_28  and  C_29
REMARK    9  A    between atoms: C_34  and  O_35
REMARK   10  A    between atoms: O_35  and  C_36
REMARK                            x       y       z     vdW  Elec       q    Type
REMARK                         _______ _______ _______ _____ _____    ______ ____
ROOT
ATOM      1  C   UNL     1      -1.541   0.372   2.919  0.00  0.00    +0.220 C 
ATOM      2  O   UNL     1      -2.475   0.095   2.197  0.00  0.00    -0.275 OA
ATOM      3  N   UNL     1      -1.749   1.072   4.052  0.00  0.00    -0.300 N 
ATOM      4  C   UNL     1      -0.743   1.507   5.048  0.00  0.00    +0.121 C 
ATOM      5  C   UNL     1      -1.189   2.928   5.460  0.00  0.00    +0.100 C 
ATOM      6  C   UNL     1      -2.696   2.970   5.153  0.00  0.00    -0.004 C 
ATOM      7  C   UNL     1      -3.036   1.587   4.579  0.00  0.00    +0.115 C 
ATOM      8  C   UNL     1      -3.489   3.221   6.432  0.00  0.00    -0.010 C 
ATOM      9  C   UNL     1      -4.979   3.316   6.093  0.00  0.00    -0.082 C 
ATOM     10  N   UNL     1      -5.196   4.408   5.136  0.00  0.00    +0.379 N 
ATOM     11  C   UNL     1      -4.505   4.114   3.875  0.00  0.00    -0.082 C 
ATOM     12  C   UNL     1      -2.995   4.052   4.121  0.00  0.00    -0.010 C 
ATOM     13  H   UNL     1      -6.185   4.508   4.961  0.00  0.00    -0.086 HD
ATOM     14  H   UNL     1      -4.837   5.268   5.522  0.00  0.00    -0.086 HD
ENDROOT
BRANCH   5  15
ATOM     15  C   UNL     1      -0.945   3.150   6.930  0.00  0.00    +0.218 C 
ATOM     16  O   UNL     1      -1.008   2.217   7.703  0.00  0.00    -0.275 OA
ATOM     17  N   UNL     1      -0.655   4.385   7.387  0.00  0.00    -0.312 N 
ATOM     18  H   UNL     1      -0.605   5.130   6.769  0.00  0.00    +0.149 HD
BRANCH  17  19
ATOM     19  C   UNL     1      -0.417   4.600   8.816  0.00  0.00    +0.074 C 
ATOM     20  C   UNL     1      -1.754   4.809   9.530  0.00  0.00    +0.028 C 
BRANCH  19  21
ATOM     21  C   UNL     1       0.461   5.838   9.006  0.00  0.00    +0.060 C 
BRANCH  21  22
ATOM     22  C   UNL     1       1.822   5.585   8.409  0.00  0.00    -0.004 A 
ATOM     23  C   UNL     1       2.853   5.131   9.207  0.00  0.00    +0.007 A 
ATOM     24  C   UNL     1       4.102   4.899   8.660  0.00  0.00    +0.000 A 
ATOM     25  C   UNL     1       4.321   5.121   7.313  0.00  0.00    +0.004 A 
ATOM     26  C   UNL     1       3.293   5.575   6.510  0.00  0.00    +0.046 A 
ATOM     27  C   UNL     1       2.038   5.803   7.056  0.00  0.00    +0.123 A 
BRANCH  27  28
ATOM     28  O   UNL     1       1.023   6.245   6.267  0.00  0.00    -0.495 OA
ATOM     29  C   UNL     1       1.317   6.448   4.884  0.00  0.00    +0.277 C 
ENDBRANCH  27  28
ENDBRANCH  21  22
ENDBRANCH  19  21
ENDBRANCH  17  19
ENDBRANCH   5  15
BRANCH   1  30
ATOM     30  C   UNL     1      -0.147  -0.067   2.550  0.00  0.00    +0.131 C 
BRANCH  30  37
ATOM     31  C   UNL     1      -0.065   1.361   0.040  0.00  0.00    +0.044 C 
ATOM     32  C   UNL     1      -0.149  -0.144   0.048  0.00  0.00    -0.047 A 
ATOM     33  C   UNL     1      -0.181  -0.841  -1.145  0.00  0.00    +0.003 A 
ATOM     34  C   UNL     1      -0.257  -2.221  -1.137  0.00  0.00    +0.000 A 
ATOM     35  C   UNL     1      -0.302  -2.904   0.064  0.00  0.00    +0.000 A 
ATOM     36  C   UNL     1      -0.270  -2.207   1.257  0.00  0.00    +0.004 A 
ATOM     37  C   UNL     1      -0.188  -0.827   1.249  0.00  0.00    -0.036 A 
ENDBRANCH  30  37
ENDBRANCH   1  30
TORSDOF 7
