REMARK  Name = ZINC43090525
REMARK  6 active torsions:
REMARK  status: ('A' for Active; 'I' for Inactive)
REMARK    1  A    between atoms: C_1  and  C_2
REMARK    2  A    between atoms: C_2  and  C_3
REMARK    3  A    between atoms: C_3  and  C_5
REMARK    4  A    between atoms: C_3  and  N_23
REMARK    5  A    between atoms: C_5  and  C_7
REMARK    6  A    between atoms: C_5  and  N_14
REMARK                            x       y       z     vdW  Elec       q    Type
REMARK                         _______ _______ _______ _____ _____    ______ ____
ROOT
ATOM      1  C   UNL     1       0.582  -1.966   1.193  0.00  0.00    +0.074 C 
ENDROOT
BRANCH   1   2
ATOM      2  N   UNL     1      -0.784  -2.497   1.090  0.00  0.00    -0.292 NA
ATOM      3  C   UNL     1      -0.783  -3.966   1.134  0.00  0.00    +0.090 C 
ATOM      4  C   UNL     1      -2.210  -4.454   1.438  0.00  0.00    +0.058 C 
ATOM      5  C   UNL     1      -3.147  -3.703   0.550  0.00  0.00    -0.005 A 
ATOM      6  C   UNL     1      -2.861  -2.583  -0.172  0.00  0.00    -0.023 A 
ATOM      7  C   UNL     1      -3.898  -2.055  -0.937  0.00  0.00    +0.013 A 
ATOM      8  C   UNL     1      -5.113  -2.651  -0.934  0.00  0.00    +0.046 A 
ATOM      9  S   UNL     1      -4.847  -4.025   0.178  0.00  0.00    -0.101 S 
ATOM     10  C   UNL     1      -1.461  -1.981  -0.106  0.00  0.00    +0.121 C 
ENDBRANCH   1   2
BRANCH   1  11
ATOM     11  C   UNL     1       1.180  -2.370   2.516  0.00  0.00    -0.018 A 
ATOM     12  C   UNL     1       0.376  -2.471   3.636  0.00  0.00    +0.006 A 
ATOM     13  C   UNL     1       0.924  -2.843   4.849  0.00  0.00    +0.000 A 
ATOM     14  C   UNL     1       2.277  -3.113   4.943  0.00  0.00    +0.001 A 
ATOM     15  C   UNL     1       3.082  -3.013   3.824  0.00  0.00    +0.015 A 
ATOM     16  C   UNL     1       2.532  -2.646   2.608  0.00  0.00    +0.022 A 
ATOM     17 BR   UNL     1       3.631  -2.515   1.075  0.00  0.00    -0.050 Br
ENDBRANCH   1  11
BRANCH   1  18
ATOM     18  C   UNL     1       0.545  -0.440   1.095  0.00  0.00    -0.053 C 
BRANCH  18  19
ATOM     19  N   UNL     1      -0.218   0.105   2.227  0.00  0.00    +0.381 N 
ATOM     20  H   UNL     1      -0.335   1.100   2.105  0.00  0.00    -0.090 HD
ATOM     21  H   UNL     1      -1.123  -0.339   2.266  0.00  0.00    -0.090 HD
ATOM     22  H   UNL     1       0.282  -0.073   3.085  0.00  0.00    -0.090 HD
ENDBRANCH  18  19
BRANCH  18  24
ATOM     23  C   UNL     1       1.944   1.621   0.904  0.00  0.00    +0.002 C 
ATOM     24  C   UNL     1       1.973   0.109   1.131  0.00  0.00    -0.018 C 
ENDBRANCH  18  24
ENDBRANCH   1  18
TORSDOF 5
