REMARK  Name = ZINC14732947
REMARK  10 active torsions:
REMARK  status: ('A' for Active; 'I' for Inactive)
REMARK    1  A    between atoms: C_1  and  C_2
REMARK    2  A    between atoms: C_3  and  C_10
REMARK    3  A    between atoms: C_10  and  N_68
REMARK    4  A    between atoms: C_12  and  O_28
REMARK    5  A    between atoms: N_15  and  C_19
REMARK    6  A    between atoms: C_19  and  C_20
REMARK    7  A    between atoms: C_20  and  C_21
REMARK    8  A    between atoms: C_21  and  N_22
REMARK    9  A    between atoms: O_28  and  C_29
REMARK   10  A    between atoms: C_29  and  C_30
REMARK                            x       y       z     vdW  Elec       q    Type
REMARK                         _______ _______ _______ _____ _____    ______ ____
ROOT
ATOM      1  C   UNL     1      -0.734   1.582  -1.230  0.00  0.00    -0.044 C 
ATOM      2  C   UNL     1      -0.013   1.086   0.008  0.00  0.00    +0.120 C 
ATOM      3  C   UNL     1      -0.717   1.573   1.277  0.00  0.00    +0.137 C 
ATOM      4  N   UNL     1      -1.796   0.626   1.603  0.00  0.00    -0.301 N 
ATOM      5  C   UNL     1      -2.880   0.560   0.826  0.00  0.00    +0.199 C 
ATOM      6  O   UNL     1      -3.765  -0.228   1.089  0.00  0.00    -0.278 OA
ATOM      7  C   UNL     1      -3.009   1.464  -0.381  0.00  0.00    +0.019 C 
ATOM      8  N   UNL     1      -2.066   0.974  -1.416  0.00  0.00    +0.391 N 
ATOM      9  H   UNL     1      -1.980  -0.045  -1.327  0.00  0.00    -0.080 HD
ENDROOT
BRANCH   8  10
ATOM     10  C   UNL     1      -2.579   1.292  -2.757  0.00  0.00    -0.021 C 
BRANCH  10  13
ATOM     11  C   UNL     1      -2.630  -1.559  -4.008  0.00  0.00    +0.067 C 
ATOM     12  C   UNL     1      -3.831  -0.774  -3.547  0.00  0.00    +0.059 A 
ATOM     13  C   UNL     1      -3.807   0.456  -3.008  0.00  0.00    +0.030 A 
ATOM     14  N   UNL     1      -5.121   0.822  -2.729  0.00  0.00    -0.299 N 
ATOM     15  C   UNL     1      -5.798   1.898  -2.198  0.00  0.00    +0.100 A 
ATOM     16  C   UNL     1      -7.125   1.881  -2.084  0.00  0.00    +0.067 A 
ATOM     17  S   UNL     1      -7.531   0.272  -2.746  0.00  0.00    -0.058 S 
ATOM     18  C   UNL     1      -5.875  -0.251  -3.126  0.00  0.00    +0.178 A 
ATOM     19  N   UNL     1      -5.107  -1.187  -3.603  0.00  0.00    -0.226 NA
ENDBRANCH  10  13
ENDBRANCH   8  10
BRANCH   4  20
ATOM     20  C   UNL     1      -1.680  -0.242   2.778  0.00  0.00    +0.109 C 
BRANCH  20  21
ATOM     21  C   UNL     1      -2.281   0.464   3.995  0.00  0.00    +0.038 C 
BRANCH  21  22
ATOM     22  C   UNL     1      -2.160  -0.443   5.222  0.00  0.00    +0.109 C 
BRANCH  22  23
ATOM     23  N   UNL     1      -2.736   0.233   6.387  0.00  0.00    -0.301 N 
ATOM     24  C   UNL     1      -1.978   1.096   7.301  0.00  0.00    +0.108 C 
ATOM     25  C   UNL     1      -3.043   1.910   8.073  0.00  0.00    +0.028 C 
ATOM     26  C   UNL     1      -4.270   0.972   7.998  0.00  0.00    +0.097 C 
ATOM     27  C   UNL     1      -4.024   0.138   6.760  0.00  0.00    +0.216 C 
ATOM     28  O   UNL     1      -4.865  -0.520   6.187  0.00  0.00    -0.276 OA
ENDBRANCH  22  23
ENDBRANCH  21  22
ENDBRANCH  20  21
ENDBRANCH   4  20
BRANCH   2  29
ATOM     29  O   UNL     1       1.330   1.575  -0.002  0.00  0.00    -0.372 OA
BRANCH  29  30
ATOM     30  C   UNL     1       2.269   0.707   0.637  0.00  0.00    +0.195 C 
BRANCH  30  31
ATOM     31  C   UNL     1       3.645   1.318   0.568  0.00  0.00    -0.022 A 
ATOM     32  C   UNL     1       4.473   1.037  -0.503  0.00  0.00    +0.006 A 
ATOM     33  C   UNL     1       5.733   1.601  -0.569  0.00  0.00    +0.000 A 
ATOM     34  C   UNL     1       6.169   2.438   0.441  0.00  0.00    +0.000 A 
ATOM     35  C   UNL     1       5.343   2.716   1.514  0.00  0.00    +0.000 A 
ATOM     36  C   UNL     1       4.081   2.155   1.577  0.00  0.00    +0.006 A 
ENDBRANCH  30  31
ENDBRANCH  29  30
ENDBRANCH   2  29
TORSDOF 9
