REMARK  Name = ZINC20355150
REMARK  13 active torsions:
REMARK  status: ('A' for Active; 'I' for Inactive)
REMARK    1  A    between atoms: C_1  and  C_2
REMARK    2  A    between atoms: C_2  and  O_3
REMARK    3  A    between atoms: O_3  and  C_4
REMARK    4  A    between atoms: C_4  and  C_5
REMARK    5  A    between atoms: C_4  and  O_31
REMARK    6  A    between atoms: C_5  and  N_6
REMARK    7  A    between atoms: C_7  and  C_9
REMARK    8  A    between atoms: C_9  and  N_10
REMARK    9  A    between atoms: C_13  and  S_21
REMARK   10  A    between atoms: S_21  and  N_24
REMARK   11  A    between atoms: C_27  and  C_30
REMARK   12  A    between atoms: O_31  and  C_32
REMARK   13  A    between atoms: C_32  and  C_33
REMARK                            x       y       z     vdW  Elec       q    Type
REMARK                         _______ _______ _______ _____ _____    ______ ____
ROOT
ATOM      1  N   UNL     1       2.310   3.984  -7.215  0.00  0.00    -0.256 N 
ATOM      2  C   UNL     1       2.929   4.403  -6.029  0.00  0.00    +0.081 A 
ATOM      3  C   UNL     1       2.175   4.747  -4.919  0.00  0.00    +0.055 A 
ATOM      4  C   UNL     1       2.806   5.159  -3.760  0.00  0.00    +0.107 A 
ATOM      5  C   UNL     1       4.186   5.233  -3.707  0.00  0.00    +0.032 A 
ATOM      6  C   UNL     1       4.945   4.885  -4.810  0.00  0.00    +0.049 A 
ATOM      7  C   UNL     1       4.320   4.473  -5.974  0.00  0.00    +0.143 A 
ATOM      8  O   UNL     1       5.051   4.133  -7.070  0.00  0.00    -0.481 OA
ATOM      9  C   UNL     1       4.515   3.103  -7.905  0.00  0.00    +0.325 C 
ATOM     10  C   UNL     1       3.052   3.365  -8.158  0.00  0.00    +0.258 C 
ATOM     11  O   UNL     1       2.544   3.021  -9.204  0.00  0.00    -0.271 OA
ENDROOT
BRANCH   4  12
ATOM     12  S   UNL     1       1.849   5.597  -2.347  0.00  0.00    +0.061 S 
ATOM     13  O   UNL     1       0.564   5.970  -2.826  0.00  0.00    -0.153 OA
ATOM     14  O   UNL     1       2.653   6.469  -1.565  0.00  0.00    -0.153 OA
BRANCH  12  15
ATOM     15  N   UNL     1       1.637   4.220  -1.452  0.00  0.00    -0.177 NA
ATOM     16  C   UNL     1       2.602   3.850  -0.407  0.00  0.00    +0.110 C 
ATOM     17  C   UNL     1       3.083   2.418  -0.664  0.00  0.00    +0.020 C 
ATOM     18  C   UNL     1       1.871   1.488  -0.758  0.00  0.00    -0.012 C 
ATOM     19  C   UNL     1       0.986   1.917  -1.930  0.00  0.00    +0.020 C 
ATOM     20  C   UNL     1       0.482   3.343  -1.688  0.00  0.00    +0.110 C 
ATOM     21  C   UNL     1       2.348   0.051  -0.980  0.00  0.00    +0.007 C 
ENDBRANCH  12  15
ENDBRANCH   4  12
BRANCH   1  22
ATOM     22  C   UNL     1       0.878   4.214  -7.428  0.00  0.00    +0.209 C 
BRANCH  22  24
ATOM     23  N   UNL     1      -0.566   5.975  -8.392  0.00  0.00    -0.309 N 
ATOM     24  C   UNL     1       0.678   5.550  -8.096  0.00  0.00    +0.231 C 
ATOM     25  O   UNL     1       1.636   6.242  -8.368  0.00  0.00    -0.274 OA
ATOM     26  H   UNL     1      -1.435   5.348  -8.145  0.00  0.00    +0.149 HD
BRANCH  23  27
ATOM     27  C   UNL     1      -0.761   7.274  -9.042  0.00  0.00    +0.165 C 
BRANCH  27  28
ATOM     28  C   UNL     1      -2.256   7.514  -9.264  0.00  0.00    +0.267 C 
BRANCH  28  29
ATOM     29  O   UNL     1      -2.785   6.480 -10.096  0.00  0.00    -0.350 OA
BRANCH  29  31
ATOM     30  C   UNL     1      -4.462   5.682 -11.643  0.00  0.00    +0.034 C 
ATOM     31  C   UNL     1      -3.888   6.894 -10.906  0.00  0.00    +0.159 C 
ENDBRANCH  29  31
ENDBRANCH  28  29
BRANCH  28  32
ATOM     32  O   UNL     1      -2.932   7.505  -8.005  0.00  0.00    -0.350 OA
BRANCH  32  33
ATOM     33  C   UNL     1      -4.263   8.021  -8.057  0.00  0.00    +0.159 C 
ATOM     34  C   UNL     1      -4.828   8.119  -6.638  0.00  0.00    +0.034 C 
ENDBRANCH  32  33
ENDBRANCH  28  32
ENDBRANCH  27  28
ENDBRANCH  23  27
ENDBRANCH  22  24
ENDBRANCH   1  22
TORSDOF 10
