REMARK  Name = ZINC47388119
REMARK  9 active torsions:
REMARK  status: ('A' for Active; 'I' for Inactive)
REMARK    1  A    between atoms: C_1  and  C_2
REMARK    2  A    between atoms: C_4  and  C_24
REMARK    3  A    between atoms: C_6  and  C_23
REMARK    4  A    between atoms: C_10  and  C_11
REMARK    5  A    between atoms: N_13  and  C_14
REMARK    6  A    between atoms: C_14  and  C_15
REMARK    7  A    between atoms: C_15  and  N_20
REMARK    8  A    between atoms: N_20  and  C_21
REMARK    9  A    between atoms: N_20  and  C_22
REMARK                            x       y       z     vdW  Elec       q    Type
REMARK                         _______ _______ _______ _____ _____    ______ ____
ROOT
ATOM      1  C   UNL     1       2.206   0.070   1.490  0.00  0.00    +0.251 C 
ATOM      2  O   UNL     1       2.438   1.260   1.582  0.00  0.00    -0.270 OA
ATOM      3  N   UNL     1       2.544  -0.763   2.495  0.00  0.00    -0.312 N 
ATOM      4  H   UNL     1       2.358  -1.712   2.422  0.00  0.00    +0.149 HD
ENDROOT
BRANCH   1  14
ATOM      5  C   UNL     1       1.340   1.704  -0.914  0.00  0.00    +0.046 C 
ATOM      6  C   UNL     1       1.146   0.213  -0.823  0.00  0.00    -0.020 A 
ATOM      7  C   UNL     1       0.545  -0.484  -1.884  0.00  0.00    +0.032 A 
ATOM      8  C   UNL     1       0.052   0.008  -3.118  0.00  0.00    +0.050 A 
ATOM      9  N   UNL     1      -0.480  -0.830  -3.980  0.00  0.00    -0.237 NA
ATOM     10  C   UNL     1      -0.576  -2.127  -3.741  0.00  0.00    +0.128 A 
ATOM     11  N   UNL     1      -0.138  -2.651  -2.613  0.00  0.00    -0.225 NA
ATOM     12  C   UNL     1       0.409  -1.885  -1.695  0.00  0.00    +0.113 A 
ATOM     13  S   UNL     1       1.111  -2.150  -0.088  0.00  0.00    -0.064 S 
ATOM     14  C   UNL     1       1.556  -0.462   0.283  0.00  0.00    +0.079 A 
ATOM     15  C   UNL     1      -1.198  -3.024  -4.780  0.00  0.00    +0.088 C 
ATOM     16  C   UNL     1       0.137   1.478  -3.438  0.00  0.00    +0.066 C 
ENDBRANCH   1  14
BRANCH   3  17
ATOM     17  C   UNL     1       3.191  -0.233   3.698  0.00  0.00    +0.092 C 
BRANCH  17  18
ATOM     18  C   UNL     1       3.587  -1.392   4.616  0.00  0.00    -0.050 C 
ATOM     19  C   UNL     1       2.324  -2.084   5.169  0.00  0.00    -0.010 C 
ATOM     20  C   UNL     1       2.703  -2.460   6.623  0.00  0.00    -0.001 C 
ATOM     21  C   UNL     1       3.546  -1.245   7.082  0.00  0.00    -0.001 C 
ATOM     22  C   UNL     1       4.364  -0.859   5.832  0.00  0.00    -0.010 C 
BRANCH  18  23
ATOM     23  N   UNL     1       4.410  -2.359   3.878  0.00  0.00    +0.381 N 
ATOM     24  C   UNL     1       5.643  -1.705   3.419  0.00  0.00    -0.096 C 
ATOM     25  C   UNL     1       4.751  -3.484   4.758  0.00  0.00    -0.096 C 
ATOM     26  H   UNL     1       3.894  -2.700   3.081  0.00  0.00    -0.082 HD
ENDBRANCH  18  23
ENDBRANCH  17  18
ENDBRANCH   3  17
TORSDOF 4
