REMARK  Name = ZINC12039847
REMARK  8 active torsions:
REMARK  status: ('A' for Active; 'I' for Inactive)
REMARK    1  A    between atoms: C_4  and  C_7
REMARK    2  A    between atoms: C_7  and  C_8
REMARK    3  A    between atoms: C_8  and  C_9
REMARK    4  A    between atoms: C_9  and  N_10
REMARK    5  A    between atoms: C_21  and  N_64
REMARK    6  A    between atoms: C_25  and  C_26
REMARK    7  A    between atoms: C_25  and  N_64
REMARK    8  A    between atoms: C_29  and  N_32
REMARK                            x       y       z     vdW  Elec       q    Type
REMARK                         _______ _______ _______ _____ _____    ______ ____
ROOT
ATOM      1  N   UNL     1      -1.548  -6.371   0.266  0.00  0.00    -0.299 N 
ATOM      2  C   UNL     1      -1.074  -6.736   1.482  0.00  0.00    +0.203 A 
ATOM      3  N   UNL     1      -0.530  -5.885   2.324  0.00  0.00    -0.230 NA
ATOM      4  C   UNL     1      -0.451  -4.614   1.943  0.00  0.00    +0.116 A 
ATOM      5  C   UNL     1      -0.915  -4.136   0.698  0.00  0.00    +0.076 A 
ATOM      6  C   UNL     1      -1.502  -5.097  -0.192  0.00  0.00    +0.262 A 
ATOM      7  O   UNL     1      -1.933  -4.787  -1.290  0.00  0.00    -0.267 OA
ATOM      8  C   UNL     1      -0.746  -2.715   0.453  0.00  0.00    -0.023 A 
ATOM      9  C   UNL     1      -0.162  -1.995   1.440  0.00  0.00    -0.006 A 
ATOM     10  S   UNL     1       0.185  -3.167   2.727  0.00  0.00    -0.073 S 
ATOM     11  C   UNL     1       0.128  -0.525   1.441  0.00  0.00    +0.027 C 
ATOM     12  C   UNL     1       0.002  -0.004   0.002  0.00  0.00    -0.066 C 
ATOM     13  C   UNL     1      -1.304  -0.532  -0.598  0.00  0.00    -0.011 C 
ATOM     14  C   UNL     1      -1.193  -2.038  -0.840  0.00  0.00    +0.035 C 
ENDROOT
BRANCH  12  15
ATOM     15  N   UNL     1      -0.027   1.471   0.010  0.00  0.00    +0.384 N 
ATOM     16  H   UNL     1      -0.512   1.795   0.855  0.00  0.00    -0.085 HD
ATOM     17  H   UNL     1      -0.528   1.804  -0.822  0.00  0.00    -0.085 HD
BRANCH  15  18
ATOM     18  C   UNL     1       1.346   2.010   0.000  0.00  0.00    -0.046 C 
BRANCH  18  19
ATOM     19  C   UNL     1       1.286   3.516   0.009  0.00  0.00    -0.064 A 
ATOM     20  C   UNL     1       1.252   4.212  -1.186  0.00  0.00    +0.004 A 
ATOM     21  C   UNL     1       1.192   5.591  -1.181  0.00  0.00    +0.028 A 
ATOM     22  C   UNL     1       1.175   6.280   0.025  0.00  0.00    +0.065 A 
ATOM     23  C   UNL     1       1.214   5.579   1.222  0.00  0.00    +0.028 A 
ATOM     24  C   UNL     1       1.269   4.199   1.211  0.00  0.00    +0.004 A 
BRANCH  22  25
ATOM     25  N   UNL     1       1.119   7.681   0.033  0.00  0.00    -0.240 N 
ATOM     26  C   UNL     1       1.082   8.482  -1.056  0.00  0.00    +0.114 A 
ATOM     27  C   UNL     1       1.030   9.763  -0.623  0.00  0.00    +0.041 A 
ATOM     28  C   UNL     1       1.043   9.745   0.776  0.00  0.00    +0.135 A 
ATOM     29  N   UNL     1       1.097   8.498   1.170  0.00  0.00    -0.175 NA
ENDBRANCH  22  25
ENDBRANCH  18  19
ENDBRANCH  15  18
ENDBRANCH  12  15
BRANCH   1  30
ATOM     30  C   UNL     1      -2.135  -7.402  -0.593  0.00  0.00    +0.126 C 
BRANCH  30  31
ATOM     31  C   UNL     1      -3.635  -7.506  -0.311  0.00  0.00    +0.026 C 
BRANCH  31  32
ATOM     32  C   UNL     1      -4.250  -8.582  -1.208  0.00  0.00    +0.037 C 
BRANCH  32  36
ATOM     33  C   UNL     1      -8.438  -8.873  -0.422  0.00  0.00    +0.000 A 
ATOM     34  C   UNL     1      -7.976  -8.002  -1.391  0.00  0.00    +0.000 A 
ATOM     35  C   UNL     1      -6.620  -7.908  -1.645  0.00  0.00    +0.003 A 
ATOM     36  C   UNL     1      -5.727  -8.685  -0.931  0.00  0.00    -0.047 A 
ATOM     37  C   UNL     1      -6.190  -9.560   0.034  0.00  0.00    +0.003 A 
ATOM     38  C   UNL     1      -7.545  -9.650   0.292  0.00  0.00    +0.000 A 
ENDBRANCH  32  36
ENDBRANCH  31  32
ENDBRANCH  30  31
ENDBRANCH   1  30
TORSDOF 8
