REMARK  Name = ZINC14461512
REMARK  8 active torsions:
REMARK  status: ('A' for Active; 'I' for Inactive)
REMARK    1  A    between atoms: C_1  and  C_2
REMARK    2  A    between atoms: C_2  and  N_3
REMARK    3  A    between atoms: N_3  and  C_4
REMARK    4  A    between atoms: N_3  and  C_6
REMARK    5  A    between atoms: C_4  and  C_5
REMARK    6  A    between atoms: C_9  and  C_12
REMARK    7  A    between atoms: C_22  and  N_29
REMARK    8  A    between atoms: C_25  and  O_28
REMARK                            x       y       z     vdW  Elec       q    Type
REMARK                         _______ _______ _______ _____ _____    ______ ____
ROOT
ATOM      1  C   UNL     1       0.338  -6.190  -1.371  0.00  0.00    +0.105 C 
ATOM      2  C   UNL     1       1.407  -6.712  -2.315  0.00  0.00    +0.029 C 
ATOM      3  C   UNL     1       2.866  -6.582  -1.859  0.00  0.00    +0.033 C 
ATOM      4  C   UNL     1       3.515  -7.774  -2.564  0.00  0.00    -0.030 C 
ATOM      5  C   UNL     1       2.608  -8.717  -2.791  0.00  0.00    -0.023 C 
ATOM      6  C   UNL     1       1.286  -8.264  -2.261  0.00  0.00    +0.051 C 
ATOM      7  C   UNL     1      -0.002  -8.641  -2.884  0.00  0.00    +0.014 A 
ATOM      8  C   UNL     1      -0.156  -9.793  -3.626  0.00  0.00    +0.132 A 
ATOM      9  C   UNL     1      -1.383 -10.111  -4.178  0.00  0.00    +0.037 A 
ATOM     10  C   UNL     1      -2.466  -9.272  -3.986  0.00  0.00    +0.049 A 
ATOM     11  C   UNL     1      -2.322  -8.111  -3.247  0.00  0.00    +0.138 A 
ATOM     12  C   UNL     1      -1.086  -7.780  -2.694  0.00  0.00    +0.076 A 
ATOM     13  N   UNL     1      -0.955  -6.580  -1.975  0.00  0.00    -0.334 N 
ATOM     14  H   UNL     1      -1.724  -5.997  -1.874  0.00  0.00    +0.147 HD
ENDROOT
BRANCH   1  18
ATOM     15  C   UNL     1       0.597  -1.937  -1.059  0.00  0.00    +0.013 A 
ATOM     16  C   UNL     1       1.105  -2.737  -0.052  0.00  0.00    +0.022 A 
ATOM     17  C   UNL     1       1.021  -4.113  -0.153  0.00  0.00    +0.007 A 
ATOM     18  C   UNL     1       0.428  -4.689  -1.261  0.00  0.00    -0.027 A 
ATOM     19  C   UNL     1      -0.081  -3.890  -2.267  0.00  0.00    +0.007 A 
ATOM     20  C   UNL     1      -0.001  -2.514  -2.164  0.00  0.00    +0.022 A 
BRANCH  15  21
ATOM     21  N   UNL     1       0.682  -0.546  -0.956  0.00  0.00    -0.394 NA
ATOM     22  H   UNL     1       0.261  -0.122  -1.770  0.00  0.00    +0.126 HD
BRANCH  21  24
ATOM     23  C   UNL     1      -0.042   1.430   0.297  0.00  0.00    +0.022 C 
ATOM     24  C   UNL     1      -0.028  -0.099   0.250  0.00  0.00    +0.081 C 
ENDBRANCH  21  24
BRANCH  21  25
ATOM     25  C   UNL     1       2.093  -0.146  -0.871  0.00  0.00    +0.081 C 
ATOM     26  C   UNL     1       2.803  -0.500  -2.179  0.00  0.00    +0.022 C 
ENDBRANCH  21  25
ENDBRANCH  15  21
ENDBRANCH   1  18
BRANCH   8  27
ATOM     27  N   UNL     1       0.999 -10.694  -3.834  0.00  0.00    +0.057 N 
ATOM     28  O   UNL     1       1.313 -11.027  -4.953  0.00  0.00    -0.126 OA
ATOM     29  O   UNL     1       1.629 -11.098  -2.884  0.00  0.00    -0.126 OA
ENDBRANCH   8  27
BRANCH  11  30
ATOM     30  O   UNL     1      -3.390  -7.290  -3.061  0.00  0.00    -0.505 OA
ATOM     31  H   UNL     1      -3.910  -7.494  -2.271  0.00  0.00    +0.292 HD
ENDBRANCH  11  30
TORSDOF 6
