REMARK  Name = ZINC09129290
REMARK  6 active torsions:
REMARK  status: ('A' for Active; 'I' for Inactive)
REMARK    1  A    between atoms: C_4  and  C_7
REMARK    2  A    between atoms: C_8  and  C_18
REMARK    3  A    between atoms: N_10  and  C_12
REMARK    4  A    between atoms: C_19  and  C_20
REMARK    5  A    between atoms: N_22  and  N_23
REMARK    6  A    between atoms: C_24  and  C_26
REMARK                            x       y       z     vdW  Elec       q    Type
REMARK                         _______ _______ _______ _____ _____    ______ ____
ROOT
ATOM      1  C   UNL     1      -1.192   1.736   0.017  0.00  0.00    +0.017 C 
ATOM      2  C   UNL     1      -0.013   1.076   0.008  0.00  0.00    +0.069 C 
ENDROOT
BRANCH   1   4
ATOM      3  C   UNL     1      -3.810   1.544   0.034  0.00  0.00    +0.100 A 
ATOM      4  C   UNL     1      -2.453   0.985   0.019  0.00  0.00    +0.021 A 
ATOM      5  C   UNL     1      -2.599  -0.390   0.013  0.00  0.00    +0.123 A 
ATOM      6  N   UNL     1      -3.916  -0.664   0.017  0.00  0.00    -0.239 N 
ATOM      7  N   UNL     1      -4.644   0.529   0.027  0.00  0.00    -0.166 NA
BRANCH   3  11
ATOM      8  C   UNL     1      -4.845   5.666   0.083  0.00  0.00    +0.000 A 
ATOM      9  C   UNL     1      -5.635   4.766  -0.609  0.00  0.00    +0.001 A 
ATOM     10  C   UNL     1      -5.304   3.426  -0.628  0.00  0.00    +0.010 A 
ATOM     11  C   UNL     1      -4.171   2.981   0.051  0.00  0.00    +0.003 A 
ATOM     12  C   UNL     1      -3.381   3.893   0.751  0.00  0.00    +0.010 A 
ATOM     13  C   UNL     1      -3.719   5.231   0.758  0.00  0.00    +0.001 A 
ENDBRANCH   3  11
BRANCH   6  14
ATOM     14  C   UNL     1      -4.473  -1.950   0.013  0.00  0.00    +0.065 A 
ATOM     15  C   UNL     1      -3.646  -3.066  -0.003  0.00  0.00    +0.028 A 
ATOM     16  C   UNL     1      -4.198  -4.332  -0.003  0.00  0.00    +0.002 A 
ATOM     17  C   UNL     1      -5.572  -4.489   0.003  0.00  0.00    +0.000 A 
ATOM     18  C   UNL     1      -6.398  -3.379   0.013  0.00  0.00    +0.002 A 
ATOM     19  C   UNL     1      -5.852  -2.110   0.018  0.00  0.00    +0.028 A 
ENDBRANCH   6  14
ENDBRANCH   1   4
BRANCH   2  20
ATOM     20  C   UNL     1       1.205   1.801   0.000  0.00  0.00    +0.253 C 
ATOM     21  O   UNL     1       1.189   3.019   0.007  0.00  0.00    -0.269 OA
ATOM     22  N   UNL     1       2.382   1.143  -0.015  0.00  0.00    -0.231 N 
ATOM     23  H   UNL     1       2.395   0.173  -0.020  0.00  0.00    +0.173 HD
BRANCH  22  24
ATOM     24  N   UNL     1       3.585   1.860  -0.022  0.00  0.00    -0.230 N 
ATOM     25  C   UNL     1       4.761   1.202  -0.037  0.00  0.00    +0.260 C 
ATOM     26  O   UNL     1       4.778  -0.013  -0.044  0.00  0.00    -0.269 OA
ATOM     27  H   UNL     1       3.572   2.830  -0.017  0.00  0.00    +0.173 HD
BRANCH  25  28
ATOM     28  C   UNL     1       6.030   1.958  -0.045  0.00  0.00    +0.042 A 
ATOM     29  C   UNL     1       6.013   3.355  -0.043  0.00  0.00    +0.017 A 
ATOM     30  C   UNL     1       7.197   4.058  -0.045  0.00  0.00    +0.050 A 
ATOM     31  C   UNL     1       8.411   3.383  -0.060  0.00  0.00    +0.166 A 
ATOM     32  C   UNL     1       8.434   1.988  -0.068  0.00  0.00    +0.167 A 
ATOM     33  C   UNL     1       7.250   1.278  -0.060  0.00  0.00    +0.062 A 
ATOM     34  O   UNL     1       9.736   1.575  -0.083  0.00  0.00    -0.453 OA
ATOM     35  C   UNL     1      10.498   2.724  -0.496  0.00  0.00    +0.466 C 
ATOM     36  O   UNL     1       9.695   3.840  -0.069  0.00  0.00    -0.453 OA
ENDBRANCH  25  28
ENDBRANCH  22  24
ENDBRANCH   2  20
TORSDOF 6
