REMARK  Name = ZINC36498440
REMARK  15 active torsions:
REMARK  status: ('A' for Active; 'I' for Inactive)
REMARK    1  A    between atoms: C_1  and  C_2
REMARK    2  A    between atoms: C_2  and  C_3
REMARK    3  A    between atoms: C_2  and  C_4
REMARK    4  A    between atoms: C_2  and  C_5
REMARK    5  A    between atoms: C_5  and  C_6
REMARK    6  A    between atoms: C_6  and  C_7
REMARK    7  A    between atoms: C_6  and  C_8
REMARK    8  A    between atoms: C_6  and  N_9
REMARK    9  A    between atoms: C_10  and  C_12
REMARK   10  A    between atoms: C_12  and  C_14
REMARK   11  A    between atoms: C_12  and  N_24
REMARK   12  A    between atoms: C_16  and  N_21
REMARK   13  A    between atoms: N_24  and  C_25
REMARK   14  A    between atoms: C_25  and  C_26
REMARK   15  A    between atoms: C_31  and  C_33
REMARK                            x       y       z     vdW  Elec       q    Type
REMARK                         _______ _______ _______ _____ _____    ______ ____
ROOT
ATOM      1  C   UNL     1       4.621   0.877  -3.421  0.00  0.00    +0.194 C 
ENDROOT
BRANCH   1   2
ATOM      2  C   UNL     1       4.604  -0.449  -4.136  0.00  0.00    +0.002 A 
ATOM      3  C   UNL     1       5.686  -1.303  -4.034  0.00  0.00    +0.040 A 
ATOM      4  C   UNL     1       5.671  -2.520  -4.690  0.00  0.00    +0.127 A 
ATOM      5  C   UNL     1       4.574  -2.883  -5.449  0.00  0.00    +0.034 A 
ATOM      6  C   UNL     1       3.491  -2.030  -5.551  0.00  0.00    +0.022 A 
ATOM      7  C   UNL     1       3.503  -0.815  -4.890  0.00  0.00    +0.047 A 
ATOM      8 CL   UNL     1       2.141   0.254  -5.012  0.00  0.00    -0.083 Cl
BRANCH   4   9
ATOM      9  N   UNL     1       6.830  -3.433  -4.581  0.00  0.00    +0.056 N 
ATOM     10  O   UNL     1       7.790  -3.116  -3.918  0.00  0.00    -0.126 OA
ATOM     11  O   UNL     1       6.817  -4.498  -5.155  0.00  0.00    -0.126 OA
ENDBRANCH   4   9
ENDBRANCH   1   2
BRANCH   1  13
ATOM     12  N   UNL     1       2.765   0.300  -1.892  0.00  0.00    -0.308 N 
ATOM     13  C   UNL     1       4.039   0.712  -2.041  0.00  0.00    +0.239 C 
ATOM     14  O   UNL     1       4.718   0.949  -1.064  0.00  0.00    -0.273 OA
ATOM     15  H   UNL     1       2.227   0.094  -2.673  0.00  0.00    +0.149 HD
BRANCH  12  16
ATOM     16  C   UNL     1       2.191   0.163  -0.551  0.00  0.00    +0.030 C 
ATOM     17  C   UNL     1       2.509   1.415   0.270  0.00  0.00    +0.031 C 
ATOM     18  C   UNL     1       2.791  -1.064   0.138  0.00  0.00    +0.031 C 
BRANCH  16  19
ATOM     19  C   UNL     1       0.674  -0.003  -0.660  0.00  0.00    +0.031 C 
BRANCH  19  21
ATOM     20  C   UNL     1       0.358   0.523  -3.082  0.00  0.00    +0.010 C 
ATOM     21  C   UNL     1       0.119   1.018  -1.654  0.00  0.00    -0.036 C 
ATOM     22  C   UNL     1       0.826   2.360  -1.455  0.00  0.00    +0.010 C 
ATOM     23  C   UNL     1      -1.383   1.194  -1.420  0.00  0.00    +0.010 C 
ENDBRANCH  19  21
ENDBRANCH  16  19
ENDBRANCH  12  16
ENDBRANCH   1  13
BRANCH   1  24
ATOM     24  N   UNL     1       6.002   1.357  -3.315  0.00  0.00    -0.272 N 
ATOM     25  C   UNL     1       6.877   0.719  -2.513  0.00  0.00    +0.283 C 
ATOM     26  O   UNL     1       8.030   1.101  -2.445  0.00  0.00    -0.267 OA
BRANCH  25  27
ATOM     27  C   UNL     1       6.439  -0.436  -1.722  0.00  0.00    +0.189 A 
ATOM     28  C   UNL     1       7.160  -1.058  -0.743  0.00  0.00    +0.054 A 
ATOM     29  C   UNL     1       6.362  -2.104  -0.257  0.00  0.00    +0.042 A 
ATOM     30  C   UNL     1       5.203  -2.076  -0.951  0.00  0.00    +0.196 A 
ATOM     31  O   UNL     1       5.251  -1.066  -1.829  0.00  0.00    -0.458 OA
ENDBRANCH  25  27
BRANCH  24  32
ATOM     32  C   UNL     1       6.430   2.530  -4.080  0.00  0.00    +0.183 C 
BRANCH  32  33
ATOM     33  C   UNL     1       6.201   3.775  -3.262  0.00  0.00    +0.122 A 
ATOM     34  C   UNL     1       7.086   4.336  -2.418  0.00  0.00    +0.046 A 
ATOM     35  C   UNL     1       6.460   5.478  -1.867  0.00  0.00    +0.041 A 
ATOM     36  C   UNL     1       5.230   5.546  -2.407  0.00  0.00    +0.195 A 
ATOM     37  O   UNL     1       5.081   4.516  -3.256  0.00  0.00    -0.466 OA
ENDBRANCH  32  33
ENDBRANCH  24  32
ENDBRANCH   1  24
TORSDOF 10
