REMARK  Name = ZINC15503923
REMARK  4 active torsions:
REMARK  status: ('A' for Active; 'I' for Inactive)
REMARK    1  A    between atoms: C_4  and  N_17
REMARK    2  A    between atoms: C_5  and  N_7
REMARK    3  A    between atoms: N_7  and  N_8
REMARK    4  A    between atoms: C_9  and  C_11
REMARK                            x       y       z     vdW  Elec       q    Type
REMARK                         _______ _______ _______ _____ _____    ______ ____
ROOT
ATOM      1  N   UNL     1      -1.362  -0.397   0.046  0.00  0.00    -0.262 N 
ATOM      2  H   UNL     1      -2.141   0.179  -0.008  0.00  0.00    +0.170 HD
ENDROOT
BRANCH   1   7
ATOM      3  C   UNL     1       2.301  -0.119  -0.043  0.00  0.00    +0.002 A 
ATOM      4  C   UNL     1       2.459   1.255  -0.031  0.00  0.00    +0.002 A 
ATOM      5  C   UNL     1       1.351   2.081   0.007  0.00  0.00    +0.034 A 
ATOM      6  C   UNL     1       0.082   1.536   0.033  0.00  0.00    +0.148 A 
ATOM      7  C   UNL     1      -0.080   0.157   0.020  0.00  0.00    +0.075 A 
ATOM      8  C   UNL     1       1.035  -0.670  -0.017  0.00  0.00    +0.027 A 
BRANCH   6   9
ATOM      9  N   UNL     1      -1.104   2.421   0.067  0.00  0.00    +0.058 N 
ATOM     10  O   UNL     1      -0.962   3.626   0.180  0.00  0.00    -0.126 OA
ATOM     11  O   UNL     1      -2.222   1.946  -0.019  0.00  0.00    -0.126 OA
ENDBRANCH   6   9
ENDBRANCH   1   7
BRANCH   1  12
ATOM     12  N   UNL     1      -1.523  -1.785   0.149  0.00  0.00    -0.232 N 
ATOM     13  C   UNL     1      -2.760  -2.320   0.174  0.00  0.00    +0.267 C 
ATOM     14  O   UNL     1      -3.737  -1.597   0.106  0.00  0.00    -0.268 OA
ATOM     15  H   UNL     1      -0.745  -2.361   0.203  0.00  0.00    +0.173 HD
BRANCH  13  16
ATOM     16  C   UNL     1      -2.929  -3.771   0.282  0.00  0.00    +0.076 A 
ATOM     17  C   UNL     1      -4.098  -4.514   0.323  0.00  0.00    +0.022 A 
ATOM     18  C   UNL     1      -3.970  -5.876   0.428  0.00  0.00    +0.024 A 
ATOM     19  C   UNL     1      -2.726  -6.423   0.485  0.00  0.00    +0.056 A 
ATOM     20  S   UNL     1      -1.682  -5.043   0.387  0.00  0.00    -0.077 S 
ATOM     21 BR   UNL     1      -2.251  -8.248   0.630  0.00  0.00    -0.043 Br
ENDBRANCH  13  16
ENDBRANCH   1  12
TORSDOF 4
