REMARK  Name = ZINC39456671
REMARK  6 active torsions:
REMARK  status: ('A' for Active; 'I' for Inactive)
REMARK    1  A    between atoms: C_1  and  C_2
REMARK    2  A    between atoms: C_3  and  O_32
REMARK    3  A    between atoms: N_6  and  S_7
REMARK    4  A    between atoms: S_7  and  C_10
REMARK    5  A    between atoms: C_18  and  O_26
REMARK    6  A    between atoms: O_26  and  C_27
REMARK                            x       y       z     vdW  Elec       q    Type
REMARK                         _______ _______ _______ _____ _____    ______ ____
ROOT
ATOM      1  C   UNL     1      -0.018   1.503   0.010  0.00  0.00    +0.069 C 
ATOM      2  C   UNL     1       0.002  -0.004   0.002  0.00  0.00    +0.082 A 
ATOM      3  C   UNL     1       0.008  -0.791  -1.105  0.00  0.00    +0.143 A 
ATOM      4  C   UNL     1       0.033  -2.122  -0.679  0.00  0.00    +0.023 A 
ATOM      5  C   UNL     1       0.052  -2.107   0.694  0.00  0.00    +0.098 A 
ATOM      6  N   UNL     1       0.024  -0.808   1.107  0.00  0.00    -0.210 N 
ATOM      7  C   UNL     1       0.126  -3.341   1.497  0.00  0.00    +0.104 A 
ATOM      8  C   UNL     1       1.094  -4.354   1.052  0.00  0.00    +0.087 A 
ATOM      9  C   UNL     1       1.179  -5.558   1.749  0.00  0.00    +0.142 A 
ATOM     10  C   UNL     1       0.333  -5.726   2.873  0.00  0.00    +0.043 A 
ATOM     11  C   UNL     1       0.367  -6.916   3.616  0.00  0.00    +0.013 A 
ATOM     12  C   UNL     1      -0.439  -7.057   4.706  0.00  0.00    +0.001 A 
ATOM     13  C   UNL     1      -1.301  -6.034   5.091  0.00  0.00    +0.002 A 
ATOM     14  C   UNL     1      -1.365  -4.869   4.388  0.00  0.00    +0.028 A 
ATOM     15  C   UNL     1      -0.551  -4.688   3.255  0.00  0.00    +0.075 A 
ATOM     16  N   UNL     1      -0.625  -3.547   2.554  0.00  0.00    -0.244 NA
ATOM     17  C   UNL     1       1.945  -4.045  -0.090  0.00  0.00    +0.169 C 
ATOM     18  O   UNL     1       3.114  -3.776   0.094  0.00  0.00    -0.292 OA
ATOM     19  C   UNL     1       1.398  -4.053  -1.499  0.00  0.00    +0.084 C 
ATOM     20  C   UNL     1       0.025  -3.369  -1.517  0.00  0.00    +0.049 C 
ENDROOT
BRANCH   6  21
ATOM     21  S   UNL     1       0.013  -0.293   2.681  0.00  0.00    +0.085 S 
ATOM     22  O   UNL     1       0.592  -1.336   3.454  0.00  0.00    -0.148 OA
ATOM     23  O   UNL     1       0.532   1.030   2.678  0.00  0.00    -0.148 OA
BRANCH  21  24
ATOM     24  C   UNL     1      -1.672  -0.172   3.179  0.00  0.00    +0.111 A 
ATOM     25  C   UNL     1      -2.364   1.011   2.997  0.00  0.00    +0.029 A 
ATOM     26  C   UNL     1      -3.687   1.105   3.387  0.00  0.00    +0.002 A 
ATOM     27  C   UNL     1      -4.318   0.017   3.960  0.00  0.00    +0.000 A 
ATOM     28  C   UNL     1      -3.626  -1.166   4.142  0.00  0.00    +0.002 A 
ATOM     29  C   UNL     1      -2.305  -1.262   3.747  0.00  0.00    +0.029 A 
ENDBRANCH  21  24
ENDBRANCH   6  21
BRANCH   9  30
ATOM     30  O   UNL     1       2.036  -6.530   1.366  0.00  0.00    -0.494 OA
ATOM     31  C   UNL     1       3.348  -6.499   1.933  0.00  0.00    +0.277 C 
ENDBRANCH   9  30
BRANCH   3  32
ATOM     32  O   UNL     1      -0.007  -0.361  -2.397  0.00  0.00    -0.505 OA
ATOM     33  H   UNL     1       0.872  -0.222  -2.776  0.00  0.00    +0.292 HD
ENDBRANCH   3  32
TORSDOF 4
