REMARK  Name = ZINC38661909
REMARK  15 active torsions:
REMARK  status: ('A' for Active; 'I' for Inactive)
REMARK    1  A    between atoms: C_1  and  C_2
REMARK    2  A    between atoms: C_5  and  C_40
REMARK    3  A    between atoms: C_6  and  N_8
REMARK    4  A    between atoms: C_9  and  C_11
REMARK    5  A    between atoms: C_11  and  S_12
REMARK    6  A    between atoms: S_12  and  C_13
REMARK    7  A    between atoms: C_17  and  C_20
REMARK    8  A    between atoms: C_20  and  C_22
REMARK    9  A    between atoms: C_20  and  N_32
REMARK   10  A    between atoms: C_22  and  C_23
REMARK   11  A    between atoms: C_33  and  O_35
REMARK   12  A    between atoms: O_35  and  C_36
REMARK   13  A    between atoms: C_36  and  C_37
REMARK   14  A    between atoms: C_36  and  C_38
REMARK   15  A    between atoms: C_36  and  C_39
REMARK                            x       y       z     vdW  Elec       q    Type
REMARK                         _______ _______ _______ _____ _____    ______ ____
ROOT
ATOM      1  C   UNL     1      -0.363  -5.869   8.030  0.00  0.00    +0.133 C 
ENDROOT
BRANCH   1   5
ATOM      2  C   UNL     1       0.438  -2.422   7.907  0.00  0.00    +0.319 C 
ATOM      3  N   UNL     1       1.710  -3.153   7.982  0.00  0.00    -0.146 NA
ATOM      4  N   UNL     1       1.512  -4.312   8.371  0.00  0.00    -0.155 NA
ATOM      5  C   UNL     1       0.079  -4.525   8.613  0.00  0.00    +0.280 C 
ATOM      6  O   UNL     1      -0.587  -3.438   7.936  0.00  0.00    -0.316 OA
BRANCH   2   7
ATOM      7  S   UNL     1       0.345  -1.477   6.362  0.00  0.00    -0.095 S 
BRANCH   7   8
ATOM      8  C   UNL     1       0.731  -2.699   5.077  0.00  0.00    +0.169 C 
BRANCH   8  10
ATOM      9  N   UNL     1       1.105  -2.723   2.632  0.00  0.00    -0.285 N 
ATOM     10  C   UNL     1       0.826  -2.009   3.740  0.00  0.00    +0.227 C 
ATOM     11  O   UNL     1       0.650  -0.811   3.662  0.00  0.00    -0.275 OA
ATOM     12  H   UNL     1       1.170  -3.689   2.681  0.00  0.00    +0.155 HD
BRANCH   9  18
ATOM     13  C   UNL     1       2.217   1.376   0.155  0.00  0.00    +0.044 C 
ATOM     14  C   UNL     1       1.840  -0.083   0.180  0.00  0.00    -0.049 A 
ATOM     15  C   UNL     1       1.688  -0.778  -1.006  0.00  0.00    +0.004 A 
ATOM     16  C   UNL     1       1.342  -2.116  -0.987  0.00  0.00    +0.005 A 
ATOM     17  C   UNL     1       1.149  -2.764   0.217  0.00  0.00    -0.029 A 
ATOM     18  C   UNL     1       1.301  -2.070   1.410  0.00  0.00    +0.037 A 
ATOM     19  C   UNL     1       1.653  -0.726   1.388  0.00  0.00    +0.027 A 
ATOM     20  C   UNL     1       0.771  -4.223   0.237  0.00  0.00    +0.045 C 
ENDBRANCH   9  18
ENDBRANCH   8  10
ENDBRANCH   7   8
ENDBRANCH   2   7
ENDBRANCH   1   5
BRANCH   1  21
ATOM     21  N   UNL     1       0.032  -5.943   6.621  0.00  0.00    -0.274 N 
ATOM     22  C   UNL     1      -0.817  -6.458   5.710  0.00  0.00    +0.401 C 
ATOM     23  O   UNL     1      -1.946  -6.765   6.036  0.00  0.00    -0.226 OA
ATOM     24  H   UNL     1       0.905  -5.623   6.345  0.00  0.00    +0.152 HD
BRANCH  22  25
ATOM     25  O   UNL     1      -0.414  -6.631   4.437  0.00  0.00    -0.445 OA
BRANCH  25  26
ATOM     26  C   UNL     1      -1.396  -7.080   3.501  0.00  0.00    +0.107 C 
ATOM     27  C   UNL     1      -2.553  -6.080   3.457  0.00  0.00    +0.055 C 
ATOM     28  C   UNL     1      -0.763  -7.189   2.111  0.00  0.00    +0.055 C 
ATOM     29  C   UNL     1      -1.922  -8.450   3.931  0.00  0.00    +0.055 C 
ENDBRANCH  25  26
ENDBRANCH  22  25
ENDBRANCH   1  21
BRANCH   1  30
ATOM     30  C   UNL     1       0.302  -7.006   8.807  0.00  0.00    +0.064 C 
BRANCH  30  31
ATOM     31  C   UNL     1      -0.215  -8.329   8.302  0.00  0.00    -0.020 A 
ATOM     32  C   UNL     1       0.320  -9.101   7.179  0.00  0.00    +0.003 A 
ATOM     33  C   UNL     1       1.373  -8.909   6.283  0.00  0.00    +0.010 A 
ATOM     34  C   UNL     1       1.622  -9.845   5.318  0.00  0.00    +0.001 A 
ATOM     35  C   UNL     1       0.836 -10.984   5.221  0.00  0.00    +0.002 A 
ATOM     36  C   UNL     1      -0.209 -11.193   6.094  0.00  0.00    +0.026 A 
ATOM     37  C   UNL     1      -0.480 -10.255   7.085  0.00  0.00    +0.047 A 
ATOM     38  N   UNL     1      -1.426 -10.176   8.082  0.00  0.00    -0.360 N 
ATOM     39  C   UNL     1      -1.249  -9.025   8.801  0.00  0.00    +0.087 A 
ATOM     40  H   UNL     1      -2.113 -10.839   8.253  0.00  0.00    +0.165 HD
ENDBRANCH  30  31
ENDBRANCH   1  30
TORSDOF 10
