REMARK  Name = ZINC15081112
REMARK  11 active torsions:
REMARK  status: ('A' for Active; 'I' for Inactive)
REMARK    1  A    between atoms: C_1  and  C_2
REMARK    2  A    between atoms: C_2  and  O_41
REMARK    3  A    between atoms: C_6  and  C_30
REMARK    4  A    between atoms: C_8  and  C_23
REMARK    5  A    between atoms: C_10  and  C_12
REMARK    6  A    between atoms: N_14  and  C_15
REMARK    7  A    between atoms: C_20  and  O_21
REMARK    8  A    between atoms: O_21  and  C_22
REMARK    9  A    between atoms: N_32  and  C_33
REMARK   10  A    between atoms: C_38  and  O_39
REMARK   11  A    between atoms: O_39  and  C_40
REMARK                            x       y       z     vdW  Elec       q    Type
REMARK                         _______ _______ _______ _____ _____    ______ ____
ROOT
ATOM      1  C   UNL     1      -2.234  -3.001   0.866  0.00  0.00    +0.042 C 
ATOM      2  C   UNL     1      -2.048  -4.513   0.728  0.00  0.00    +0.082 C 
ATOM      3  C   UNL     1      -2.985  -5.235   1.702  0.00  0.00    +0.110 C 
ATOM      4  C   UNL     1      -2.689  -6.718   1.644  0.00  0.00    +0.148 C 
ATOM      5  O   UNL     1      -3.576  -7.519   1.473  0.00  0.00    -0.296 OA
ATOM      6  C   UNL     1      -1.255  -7.170   1.806  0.00  0.00    +0.149 C 
ATOM      7  C   UNL     1      -0.383  -6.378   0.826  0.00  0.00    +0.053 C 
ATOM      8  C   UNL     1      -0.599  -4.881   1.050  0.00  0.00    +0.115 C 
ENDROOT
BRANCH   7   9
ATOM      9  C   UNL     1       1.067  -6.717   1.060  0.00  0.00    -0.042 A 
ATOM     10  C   UNL     1       1.644  -6.472   2.292  0.00  0.00    +0.007 A 
ATOM     11  C   UNL     1       2.973  -6.787   2.508  0.00  0.00    +0.038 A 
ATOM     12  C   UNL     1       3.728  -7.339   1.487  0.00  0.00    +0.123 A 
ATOM     13  C   UNL     1       3.150  -7.579   0.252  0.00  0.00    +0.038 A 
ATOM     14  C   UNL     1       1.821  -7.268   0.040  0.00  0.00    +0.007 A 
ATOM     15  F   UNL     1       5.028  -7.643   1.696  0.00  0.00    -0.205 F 
ENDBRANCH   7   9
BRANCH   8  16
ATOM     16  C   UNL     1       0.327  -4.101   0.152  0.00  0.00    +0.224 C 
ATOM     17  O   UNL     1       0.505  -4.460  -0.994  0.00  0.00    -0.275 OA
ATOM     18  N   UNL     1       0.958  -3.006   0.621  0.00  0.00    -0.282 N 
ATOM     19  H   UNL     1       0.843  -2.740   1.546  0.00  0.00    +0.155 HD
BRANCH  18  20
ATOM     20  C   UNL     1       1.778  -2.252  -0.229  0.00  0.00    +0.076 A 
ATOM     21  C   UNL     1       2.407  -2.859  -1.307  0.00  0.00    +0.027 A 
ATOM     22  C   UNL     1       3.216  -2.113  -2.143  0.00  0.00    +0.002 A 
ATOM     23  C   UNL     1       3.400  -0.763  -1.910  0.00  0.00    +0.004 A 
ATOM     24  C   UNL     1       2.772  -0.151  -0.842  0.00  0.00    +0.047 A 
ATOM     25  C   UNL     1       1.964  -0.892   0.005  0.00  0.00    +0.141 A 
BRANCH  25  26
ATOM     26  O   UNL     1       1.349  -0.292   1.060  0.00  0.00    -0.493 OA
ATOM     27  C   UNL     1       1.586   1.106   1.238  0.00  0.00    +0.277 C 
ENDBRANCH  25  26
ENDBRANCH  18  20
ENDBRANCH   8  16
BRANCH   6  28
ATOM     28  C   UNL     1      -1.151  -8.642   1.500  0.00  0.00    +0.228 C 
ATOM     29  O   UNL     1      -0.434  -9.025   0.600  0.00  0.00    -0.275 OA
ATOM     30  N   UNL     1      -1.855  -9.533   2.227  0.00  0.00    -0.282 N 
ATOM     31  H   UNL     1      -2.476  -9.223   2.905  0.00  0.00    +0.155 HD
BRANCH  30  32
ATOM     32  C   UNL     1      -1.690 -10.906   2.003  0.00  0.00    +0.076 A 
ATOM     33  C   UNL     1      -1.288 -11.364   0.756  0.00  0.00    +0.027 A 
ATOM     34  C   UNL     1      -1.125 -12.719   0.538  0.00  0.00    +0.002 A 
ATOM     35  C   UNL     1      -1.363 -13.621   1.559  0.00  0.00    +0.004 A 
ATOM     36  C   UNL     1      -1.764 -13.172   2.804  0.00  0.00    +0.047 A 
ATOM     37  C   UNL     1      -1.924 -11.815   3.032  0.00  0.00    +0.141 A 
BRANCH  37  38
ATOM     38  O   UNL     1      -2.313 -11.371   4.258  0.00  0.00    -0.493 OA
ATOM     39  C   UNL     1      -2.534 -12.360   5.265  0.00  0.00    +0.277 C 
ENDBRANCH  37  38
ENDBRANCH  30  32
ENDBRANCH   6  28
BRANCH   2  40
ATOM     40  O   UNL     1      -2.354  -4.911  -0.610  0.00  0.00    -0.388 OA
ATOM     41  H   UNL     1      -3.260  -4.708  -0.883  0.00  0.00    +0.210 HD
ENDBRANCH   2  40
TORSDOF 8
