REMARK  Name = ZINC14624141
REMARK  13 active torsions:
REMARK  status: ('A' for Active; 'I' for Inactive)
REMARK    1  A    between atoms: C_1  and  C_2
REMARK    2  A    between atoms: C_2  and  C_3
REMARK    3  A    between atoms: C_3  and  C_4
REMARK    4  A    between atoms: C_4  and  N_5
REMARK    5  A    between atoms: C_6  and  N_29
REMARK    6  A    between atoms: C_7  and  N_14
REMARK    7  A    between atoms: N_14  and  C_15
REMARK    8  A    between atoms: C_15  and  C_16
REMARK    9  A    between atoms: C_16  and  C_17
REMARK   10  A    between atoms: C_17  and  C_18
REMARK   11  A    between atoms: C_19  and  C_21
REMARK   12  A    between atoms: C_24  and  C_28
REMARK   13  A    between atoms: C_26  and  C_27
REMARK                            x       y       z     vdW  Elec       q    Type
REMARK                         _______ _______ _______ _____ _____    ______ ____
ROOT
ATOM      1  N   UNL     1       3.680  -0.379   1.475  0.00  0.00    -0.280 N 
ATOM      2  C   UNL     1       2.467   0.269   1.421  0.00  0.00    +0.127 A 
ATOM      3  C   UNL     1       2.141   0.996   0.294  0.00  0.00    +0.140 A 
ATOM      4  C   UNL     1       3.061   1.047  -0.770  0.00  0.00    +0.277 A 
ATOM      5  O   UNL     1       2.796   1.679  -1.780  0.00  0.00    -0.266 OA
ATOM      6  N   UNL     1       4.237   0.399  -0.664  0.00  0.00    -0.273 N 
ATOM      7  H   UNL     1       4.894   0.442  -1.417  0.00  0.00    +0.173 HD
ATOM      8  C   UNL     1       4.537  -0.305   0.441  0.00  0.00    +0.331 A 
ATOM      9  O   UNL     1       5.604  -0.885   0.508  0.00  0.00    -0.246 OA
ENDROOT
BRANCH   3  10
ATOM     10  N   UNL     1       0.906   1.670   0.209  0.00  0.00    -0.260 N 
ATOM     11  C   UNL     1      -0.244   0.968   0.161  0.00  0.00    +0.251 C 
ATOM     12  O   UNL     1      -0.212  -0.246   0.110  0.00  0.00    -0.270 OA
BRANCH  11  13
ATOM     13  C   UNL     1      -1.542   1.675   0.164  0.00  0.00    +0.040 A 
ATOM     14  C   UNL     1      -1.846   2.588  -0.847  0.00  0.00    +0.013 A 
ATOM     15  C   UNL     1      -3.059   3.244  -0.839  0.00  0.00    +0.004 A 
ATOM     16  C   UNL     1      -3.975   2.998   0.169  0.00  0.00    -0.050 A 
ATOM     17  C   UNL     1      -3.681   2.093   1.174  0.00  0.00    +0.007 A 
ATOM     18  C   UNL     1      -2.472   1.427   1.175  0.00  0.00    -0.038 A 
ATOM     19  C   UNL     1      -2.155   0.438   2.267  0.00  0.00    +0.044 C 
ATOM     20  C   UNL     1      -5.299   3.717   0.172  0.00  0.00    +0.044 C 
ENDBRANCH  11  13
BRANCH  10  21
ATOM     21  C   UNL     1       0.872   3.135   0.172  0.00  0.00    +0.114 C 
BRANCH  21  22
ATOM     22  C   UNL     1       0.877   3.681   1.601  0.00  0.00    +0.019 C 
BRANCH  22  23
ATOM     23  C   UNL     1       0.842   5.210   1.562  0.00  0.00    -0.002 C 
ATOM     24  C   UNL     1       0.847   5.757   2.991  0.00  0.00    +0.004 C 
ENDBRANCH  22  23
ENDBRANCH  21  22
ENDBRANCH  10  21
ENDBRANCH   3  10
BRANCH   2  25
ATOM     25  N   UNL     1       1.591   0.193   2.478  0.00  0.00    -0.343 N 
ATOM     26  H   UNL     1       0.714   0.603   2.411  0.00  0.00    +0.144 HD
ATOM     27  H   UNL     1       1.849  -0.270   3.290  0.00  0.00    +0.144 HD
ENDBRANCH   2  25
BRANCH   1  28
ATOM     28  C   UNL     1       4.039  -1.154   2.665  0.00  0.00    +0.128 C 
BRANCH  28  29
ATOM     29  C   UNL     1       3.562  -2.598   2.496  0.00  0.00    +0.021 C 
BRANCH  29  31
ATOM     30  C   UNL     1       3.461  -4.852   3.570  0.00  0.00    +0.004 C 
ATOM     31  C   UNL     1       3.938  -3.408   3.739  0.00  0.00    -0.002 C 
ENDBRANCH  29  31
ENDBRANCH  28  29
ENDBRANCH   1  28
TORSDOF 9
