REMARK  Name = ZINC08597829
REMARK  9 active torsions:
REMARK  status: ('A' for Active; 'I' for Inactive)
REMARK    1  A    between atoms: C_1  and  C_2
REMARK    2  A    between atoms: C_5  and  C_8
REMARK    3  A    between atoms: C_10  and  C_28
REMARK    4  A    between atoms: C_14  and  C_17
REMARK    5  A    between atoms: N_19  and  C_20
REMARK    6  A    between atoms: C_32  and  O_36
REMARK    7  A    between atoms: C_33  and  O_34
REMARK    8  A    between atoms: O_34  and  C_35
REMARK    9  A    between atoms: O_36  and  C_37
REMARK                            x       y       z     vdW  Elec       q    Type
REMARK                         _______ _______ _______ _____ _____    ______ ____
ROOT
ATOM      1  C   UNL     1       0.060  -4.243  -0.022  0.00  0.00    +0.053 C 
ATOM      2  C   UNL     1       0.079  -4.972   1.292  0.00  0.00    +0.088 C 
ATOM      3  C   UNL     1      -0.688  -6.296   1.203  0.00  0.00    +0.149 C 
ATOM      4  N   UNL     1      -0.338  -6.939  -0.068  0.00  0.00    -0.238 N 
ATOM      5  C   UNL     1       0.004  -6.215  -1.177  0.00  0.00    +0.164 A 
ATOM      6  C   UNL     1       0.255  -7.126  -2.195  0.00  0.00    +0.100 A 
ATOM      7  C   UNL     1       0.059  -8.415  -1.649  0.00  0.00    +0.149 A 
ATOM      8  N   UNL     1      -0.288  -8.288  -0.394  0.00  0.00    -0.176 NA
ATOM      9  N   UNL     1       0.060  -4.868  -1.171  0.00  0.00    -0.232 NA
ENDROOT
BRANCH   1  14
ATOM     10  C   UNL     1      -0.048   1.504   0.003  0.00  0.00    +0.044 C 
ATOM     11  C   UNL     1      -0.020  -0.003  -0.004  0.00  0.00    -0.050 A 
ATOM     12  C   UNL     1      -0.018  -0.686  -1.208  0.00  0.00    +0.004 A 
ATOM     13  C   UNL     1       0.008  -2.065  -1.222  0.00  0.00    +0.010 A 
ATOM     14  C   UNL     1       0.032  -2.773  -0.016  0.00  0.00    -0.004 A 
ATOM     15  C   UNL     1       0.030  -2.075   1.197  0.00  0.00    +0.010 A 
ATOM     16  C   UNL     1       0.010  -0.696   1.194  0.00  0.00    +0.004 A 
ENDBRANCH   1  14
BRANCH   3  17
ATOM     17  C   UNL     1      -0.296  -7.189   2.352  0.00  0.00    +0.023 A 
ATOM     18  C   UNL     1       1.022  -7.576   2.508  0.00  0.00    +0.009 A 
ATOM     19  C   UNL     1       1.385  -8.396   3.561  0.00  0.00    +0.004 A 
ATOM     20  C   UNL     1       0.431  -8.832   4.462  0.00  0.00    +0.049 A 
ATOM     21  C   UNL     1      -0.891  -8.448   4.311  0.00  0.00    +0.162 A 
ATOM     22  C   UNL     1      -1.255  -7.618   3.254  0.00  0.00    +0.167 A 
BRANCH  22  23
ATOM     23  O   UNL     1      -2.551  -7.234   3.105  0.00  0.00    -0.491 OA
ATOM     24  C   UNL     1      -3.390  -8.076   2.312  0.00  0.00    +0.277 C 
ENDBRANCH  22  23
BRANCH  21  25
ATOM     25  O   UNL     1      -1.830  -8.877   5.196  0.00  0.00    -0.491 OA
ATOM     26  C   UNL     1      -1.383  -9.722   6.258  0.00  0.00    +0.277 C 
ENDBRANCH  21  25
ENDBRANCH   3  17
BRANCH   6  27
ATOM     27  C   UNL     1       0.650  -6.810  -3.574  0.00  0.00    +0.253 C 
ATOM     28  O   UNL     1       0.785  -5.650  -3.918  0.00  0.00    -0.270 OA
ATOM     29  N   UNL     1       0.861  -7.804  -4.459  0.00  0.00    -0.281 N 
ATOM     30  H   UNL     1       0.819  -8.729  -4.169  0.00  0.00    +0.155 HD
BRANCH  29  31
ATOM     31  C   UNL     1       1.142  -7.503  -5.797  0.00  0.00    +0.034 A 
ATOM     32  C   UNL     1       1.897  -6.381  -6.113  0.00  0.00    +0.026 A 
ATOM     33  C   UNL     1       2.172  -6.085  -7.434  0.00  0.00    +0.040 A 
ATOM     34  C   UNL     1       1.697  -6.906  -8.442  0.00  0.00    +0.124 A 
ATOM     35  C   UNL     1       0.943  -8.025  -8.129  0.00  0.00    +0.040 A 
ATOM     36  C   UNL     1       0.671  -8.328  -6.809  0.00  0.00    +0.026 A 
ATOM     37  F   UNL     1       1.967  -6.615  -9.733  0.00  0.00    -0.205 F 
ENDBRANCH  29  31
ENDBRANCH   6  27
TORSDOF 6
