REMARK  Name = ZINC00901325
REMARK  12 active torsions:
REMARK  status: ('A' for Active; 'I' for Inactive)
REMARK    1  A    between atoms: C_1  and  C_2
REMARK    2  A    between atoms: C_5  and  C_7
REMARK    3  A    between atoms: C_7  and  C_9
REMARK    4  A    between atoms: C_7  and  N_18
REMARK    5  A    between atoms: N_11  and  C_12
REMARK    6  A    between atoms: N_18  and  C_19
REMARK    7  A    between atoms: C_21  and  O_27
REMARK    8  A    between atoms: C_23  and  O_25
REMARK    9  A    between atoms: O_25  and  C_26
REMARK   10  A    between atoms: O_27  and  C_28
REMARK   11  A    between atoms: C_29  and  C_31
REMARK   12  A    between atoms: C_31  and  N_32
REMARK                            x       y       z     vdW  Elec       q    Type
REMARK                         _______ _______ _______ _____ _____    ______ ____
ROOT
ATOM      1  N   UNL     1      -5.578   3.338  -1.573  0.00  0.00    -0.251 N 
ATOM      2  C   UNL     1      -4.750   4.353  -1.252  0.00  0.00    +0.242 C 
ATOM      3  O   UNL     1      -4.312   5.076  -2.122  0.00  0.00    -0.273 OA
ENDROOT
BRANCH   1   4
ATOM      4  C   UNL     1      -6.470   2.835  -0.620  0.00  0.00    +0.045 A 
ATOM      5  C   UNL     1      -6.113   2.813   0.722  0.00  0.00    +0.069 A 
ATOM      6  C   UNL     1      -6.999   2.320   1.667  0.00  0.00    +0.125 A 
ATOM      7  C   UNL     1      -8.238   1.837   1.270  0.00  0.00    +0.091 A 
ATOM      8  C   UNL     1      -8.593   1.853  -0.070  0.00  0.00    +0.125 A 
ATOM      9  C   UNL     1      -7.709   2.352  -1.015  0.00  0.00    +0.069 A 
BRANCH   8  10
ATOM     10  O   UNL     1      -9.806   1.381  -0.457  0.00  0.00    -0.495 OA
ATOM     11  C   UNL     1     -10.666   0.882   0.570  0.00  0.00    +0.277 C 
ENDBRANCH   8  10
BRANCH   6  12
ATOM     12  O   UNL     1      -6.652   2.304   2.980  0.00  0.00    -0.495 OA
ATOM     13  C   UNL     1      -7.612   1.776   3.898  0.00  0.00    +0.277 C 
ENDBRANCH   6  12
ENDBRANCH   1   4
BRANCH   1  14
ATOM     14  C   UNL     1      -5.543   2.763  -2.920  0.00  0.00    +0.233 C 
BRANCH  14  19
ATOM     15  C   UNL     1     -10.089   4.602  -4.099  0.00  0.00    +0.086 C 
ATOM     16  C   UNL     1      -8.676   4.099  -4.238  0.00  0.00    +0.102 A 
ATOM     17  C   UNL     1      -7.985   3.999  -5.388  0.00  0.00    +0.045 A 
ATOM     18  C   UNL     1      -6.711   3.483  -5.057  0.00  0.00    +0.047 A 
ATOM     19  C   UNL     1      -6.699   3.299  -3.725  0.00  0.00    +0.135 A 
ATOM     20  O   UNL     1      -7.894   3.668  -3.235  0.00  0.00    -0.462 OA
ENDBRANCH  14  19
BRANCH  14  21
ATOM     21  C   UNL     1      -5.649   1.262  -2.828  0.00  0.00    +0.242 C 
ATOM     22  O   UNL     1      -5.743   0.726  -1.744  0.00  0.00    -0.273 OA
ATOM     23  N   UNL     1      -5.638   0.516  -3.950  0.00  0.00    -0.311 N 
ATOM     24  H   UNL     1      -5.562   0.944  -4.817  0.00  0.00    +0.149 HD
BRANCH  23  25
ATOM     25  C   UNL     1      -5.740  -0.943  -3.860  0.00  0.00    +0.073 C 
ATOM     26  C   UNL     1      -4.350  -1.538  -3.626  0.00  0.00    +0.022 C 
ATOM     27  C   UNL     1      -4.457  -3.062  -3.532  0.00  0.00    +0.002 C 
ATOM     28  C   UNL     1      -5.035  -3.614  -4.837  0.00  0.00    +0.000 C 
ATOM     29  C   UNL     1      -6.425  -3.018  -5.071  0.00  0.00    +0.002 C 
ATOM     30  C   UNL     1      -6.318  -1.495  -5.165  0.00  0.00    +0.022 C 
ENDBRANCH  23  25
ENDBRANCH  14  21
ENDBRANCH   1  14
BRANCH   2  31
ATOM     31  C   UNL     1      -4.369   4.588   0.186  0.00  0.00    +0.242 C 
BRANCH  31  32
ATOM     32  N   UNL     1      -3.475   5.745   0.272  0.00  0.00    -0.235 N 
ATOM     33  C   UNL     1      -2.102   5.731   0.197  0.00  0.00    +0.090 A 
ATOM     34  C   UNL     1      -1.154   4.728   0.026  0.00  0.00    +0.029 A 
ATOM     35  C   UNL     1       0.175   5.047  -0.002  0.00  0.00    +0.002 A 
ATOM     36  C   UNL     1       0.588   6.367   0.127  0.00  0.00    +0.002 A 
ATOM     37  C   UNL     1      -0.323   7.369   0.290  0.00  0.00    +0.032 A 
ATOM     38  C   UNL     1      -1.691   7.069   0.329  0.00  0.00    +0.113 A 
ATOM     39  N   UNL     1      -2.797   7.825   0.474  0.00  0.00    -0.129 NA
ATOM     40  N   UNL     1      -3.850   7.086   0.445  0.00  0.00    -0.064 NA
ENDBRANCH  31  32
ENDBRANCH   2  31
TORSDOF 9
