REMARK  Name = ZINC26579608
REMARK  9 active torsions:
REMARK  status: ('A' for Active; 'I' for Inactive)
REMARK    1  A    between atoms: C_1  and  C_2
REMARK    2  A    between atoms: C_2  and  C_3
REMARK    3  A    between atoms: C_2  and  C_4
REMARK    4  A    between atoms: C_4  and  C_5
REMARK    5  A    between atoms: C_7  and  C_35
REMARK    6  A    between atoms: C_20  and  C_25
REMARK    7  A    between atoms: N_27  and  C_28
REMARK    8  A    between atoms: C_28  and  C_29
REMARK    9  A    between atoms: N_37  and  O_38
REMARK                            x       y       z     vdW  Elec       q    Type
REMARK                         _______ _______ _______ _____ _____    ______ ____
ROOT
ATOM      1  C   UNL     1      -2.071   0.777   5.428  0.00  0.00    +0.087 C 
ATOM      2  C   UNL     1      -2.647   1.117   4.118  0.00  0.00    +0.089 C 
ATOM      3  C   UNL     1      -1.978   2.478   3.633  0.00  0.00    +0.017 C 
ATOM      4  C   UNL     1      -1.572   2.283   2.144  0.00  0.00    +0.042 C 
ATOM      5  C   UNL     1      -1.048   3.639   1.609  0.00  0.00    +0.234 C 
ATOM      6  O   UNL     1       0.073   4.008   2.376  0.00  0.00    -0.450 OA
ATOM      7  C   UNL     1       1.212   3.346   2.233  0.00  0.00    +0.400 C 
ATOM      8  O   UNL     1       1.218   2.417   1.456  0.00  0.00    -0.226 OA
ATOM      9  N   UNL     1       2.364   3.627   2.939  0.00  0.00    -0.281 N 
ATOM     10  C   UNL     1       3.510   2.726   2.802  0.00  0.00    +0.107 C 
ATOM     11  C   UNL     1       3.700   2.004   4.147  0.00  0.00    +0.019 C 
ATOM     12  C   UNL     1       2.753   0.822   4.284  0.00  0.00    +0.004 C 
ATOM     13  C   UNL     1       2.646   0.369   5.681  0.00  0.00    +0.032 C 
ATOM     14  C   UNL     1       1.478  -0.637   5.795  0.00  0.00    +0.159 C 
ATOM     15  N   UNL     1       0.258   0.115   6.139  0.00  0.00    -0.304 N 
ATOM     16  C   UNL     1      -0.778   0.030   5.147  0.00  0.00    +0.217 C 
ATOM     17  O   UNL     1      -0.646  -0.692   4.168  0.00  0.00    -0.275 OA
ATOM     18  H   UNL     1       2.432   4.507   3.596  0.00  0.00    +0.152 HD
ATOM     19  H   UNL     1       0.204   0.673   7.086  0.00  0.00    +0.149 HD
ENDROOT
BRANCH  14  20
ATOM     20  C   UNL     1       1.704  -1.589   6.980  0.00  0.00    +0.234 C 
ATOM     21  O   UNL     1       1.132  -1.393   8.032  0.00  0.00    -0.274 OA
ATOM     22  N   UNL     1       2.537  -2.640   6.851  0.00  0.00    -0.310 N 
ATOM     23  H   UNL     1       3.056  -2.817   5.897  0.00  0.00    +0.149 HD
BRANCH  22  24
ATOM     24  C   UNL     1       2.753  -3.547   7.981  0.00  0.00    +0.139 C 
BRANCH  24  25
ATOM     25  C   UNL     1       3.721  -4.629   7.579  0.00  0.00    -0.027 A 
ATOM     26  C   UNL     1       3.267  -5.817   7.026  0.00  0.00    +0.025 A 
ATOM     27  C   UNL     1       4.185  -6.786   6.665  0.00  0.00    +0.111 A 
ATOM     28  N   UNL     1       5.476  -6.594   6.850  0.00  0.00    -0.263 NA
ATOM     29  C   UNL     1       5.943  -5.479   7.378  0.00  0.00    +0.111 A 
ATOM     30  C   UNL     1       5.086  -4.464   7.758  0.00  0.00    +0.025 A 
ENDBRANCH  24  25
ENDBRANCH  22  24
ENDBRANCH  14  20
BRANCH   2  31
ATOM     31  C   UNL     1      -4.158   1.396   4.234  0.00  0.00    +0.239 C 
ATOM     32  O   UNL     1      -4.601   1.931   5.229  0.00  0.00    -0.273 OA
ATOM     33  N   UNL     1      -4.987   1.047   3.231  0.00  0.00    -0.197 N 
ATOM     34  H   UNL     1      -4.585   0.562   2.329  0.00  0.00    +0.182 HD
BRANCH  33  35
ATOM     35  O   UNL     1      -6.375   1.304   3.337  0.00  0.00    -0.295 OA
ATOM     36  H   UNL     1      -7.052   1.019   2.518  0.00  0.00    +0.241 HD
ENDBRANCH  33  35
ENDBRANCH   2  31
BRANCH   1  37
ATOM     37  C   UNL     1      -3.033  -0.130   6.213  0.00  0.00    +0.016 C 
BRANCH  37  39
ATOM     38  C   UNL     1      -3.842  -2.486   6.402  0.00  0.00    +0.007 C 
ATOM     39  C   UNL     1      -3.205  -1.455   5.468  0.00  0.00    -0.016 C 
ATOM     40  C   UNL     1      -4.108  -1.243   4.251  0.00  0.00    +0.007 C 
ENDBRANCH  37  39
ENDBRANCH   1  37
TORSDOF 7
