REMARK  Name = ZINC54647524
REMARK  11 active torsions:
REMARK  status: ('A' for Active; 'I' for Inactive)
REMARK    1  A    between atoms: C_1  and  C_2
REMARK    2  A    between atoms: C_2  and  O_3
REMARK    3  A    between atoms: O_3  and  C_4
REMARK    4  A    between atoms: C_4  and  C_6
REMARK    5  A    between atoms: C_10  and  N_11
REMARK    6  A    between atoms: C_12  and  C_14
REMARK    7  A    between atoms: C_14  and  C_15
REMARK    8  A    between atoms: C_15  and  N_16
REMARK    9  A    between atoms: C_23  and  C_29
REMARK   10  A    between atoms: C_26  and  C_27
REMARK   11  A    between atoms: C_26  and  C_28
REMARK                            x       y       z     vdW  Elec       q    Type
REMARK                         _______ _______ _______ _____ _____    ______ ____
ROOT
ATOM      1  N   UNL     1      -0.603  -2.454  -3.921  0.00  0.00    -0.279 N 
ATOM      2  C   UNL     1      -1.118  -2.781  -5.122  0.00  0.00    +0.219 C 
ATOM      3  O   UNL     1      -0.397  -3.224  -5.991  0.00  0.00    -0.275 OA
ATOM      4  H   UNL     1      -1.180  -2.100  -3.226  0.00  0.00    +0.155 HD
ENDROOT
BRANCH   1   9
ATOM      5  C   UNL     1       1.449  -2.344  -2.516  0.00  0.00    +0.091 A 
ATOM      6  C   UNL     1       2.885  -2.621  -2.515  0.00  0.00    -0.021 A 
ATOM      7  C   UNL     1       3.349  -3.116  -3.676  0.00  0.00    -0.004 A 
ATOM      8  S   UNL     1       1.922  -3.210  -4.726  0.00  0.00    -0.077 S 
ATOM      9  C   UNL     1       0.751  -2.623  -3.678  0.00  0.00    +0.086 A 
ATOM     10  C   UNL     1       4.830  -3.378  -3.621  0.00  0.00    +0.043 C 
ATOM     11  C   UNL     1       5.324  -2.577  -2.396  0.00  0.00    +0.010 C 
ATOM     12  C   UNL     1       4.048  -2.505  -1.532  0.00  0.00    +0.037 C 
BRANCH   5  13
ATOM     13  C   UNL     1       0.776  -1.800  -1.335  0.00  0.00    +0.342 C 
ATOM     14  O   UNL     1       0.312  -2.552  -0.499  0.00  0.00    -0.245 OA
BRANCH  13  15
ATOM     15  O   UNL     1       0.671  -0.465  -1.174  0.00  0.00    -0.461 OA
BRANCH  15  17
ATOM     16  C   UNL     1      -0.019   1.526   0.010  0.00  0.00    +0.048 C 
ATOM     17  C   UNL     1       0.002  -0.004   0.002  0.00  0.00    +0.229 C 
ENDBRANCH  15  17
ENDBRANCH  13  15
ENDBRANCH   5  13
ENDBRANCH   1   9
BRANCH   2  18
ATOM     18  C   UNL     1      -2.590  -2.597  -5.387  0.00  0.00    +0.115 C 
BRANCH  18  19
ATOM     19  C   UNL     1      -2.912  -3.041  -6.815  0.00  0.00    +0.125 C 
BRANCH  19  20
ATOM     20  N   UNL     1      -4.343  -2.862  -7.072  0.00  0.00    -0.241 N 
ATOM     21  C   UNL     1      -5.185  -3.875  -6.794  0.00  0.00    +0.225 C 
ATOM     22  O   UNL     1      -4.755  -4.930  -6.380  0.00  0.00    -0.275 OA
ATOM     23  C   UNL     1      -6.676  -3.688  -7.003  0.00  0.00    +0.082 C 
ATOM     24  C   UNL     1      -6.929  -3.751  -8.530  0.00  0.00    +0.014 C 
ATOM     25  C   UNL     1      -6.657  -2.332  -9.064  0.00  0.00    +0.017 C 
ATOM     26  C   UNL     1      -6.254  -1.483  -7.833  0.00  0.00    +0.051 C 
ATOM     27  C   UNL     1      -4.772  -1.689  -7.572  0.00  0.00    +0.228 C 
ATOM     28  O   UNL     1      -3.978  -0.815  -7.844  0.00  0.00    -0.275 OA
ATOM     29  C   UNL     1      -6.977  -2.208  -6.635  0.00  0.00    -0.010 C 
ATOM     30  C   UNL     1      -6.363  -1.839  -5.282  0.00  0.00    +0.012 C 
ATOM     31  C   UNL     1      -8.481  -1.929  -6.650  0.00  0.00    +0.012 C 
ATOM     32  C   UNL     1      -6.624  -0.005  -7.976  0.00  0.00    +0.021 C 
ENDBRANCH  19  20
ENDBRANCH  18  19
ENDBRANCH   2  18
TORSDOF 7
