REMARK  Name = ZINC38563963
REMARK  11 active torsions:
REMARK  status: ('A' for Active; 'I' for Inactive)
REMARK    1  A    between atoms: C_1  and  O_2
REMARK    2  A    between atoms: O_2  and  C_3
REMARK    3  A    between atoms: C_5  and  C_13
REMARK    4  A    between atoms: C_7  and  O_11
REMARK    5  A    between atoms: C_8  and  O_9
REMARK    6  A    between atoms: O_9  and  C_10
REMARK    7  A    between atoms: O_11  and  C_12
REMARK    8  A    between atoms: C_15  and  C_27
REMARK    9  A    between atoms: N_29  and  C_30
REMARK   10  A    between atoms: C_30  and  C_31
REMARK   11  A    between atoms: C_31  and  C_32
REMARK                            x       y       z     vdW  Elec       q    Type
REMARK                         _______ _______ _______ _____ _____    ______ ____
ROOT
ATOM      1  C   UNL     1       2.392   0.345  -4.213  0.00  0.00    +0.076 C 
ATOM      2  N   UNL     1       2.271   1.654  -4.202  0.00  0.00    -0.244 NA
ATOM      3  C   UNL     1       2.663   2.457  -5.202  0.00  0.00    +0.126 C 
ATOM      4  C   UNL     1       2.970   1.946  -6.465  0.00  0.00    +0.039 C 
ATOM      5  C   UNL     1       3.045   0.565  -6.562  0.00  0.00    -0.008 C 
ATOM      6  C   UNL     1       2.994  -0.328  -7.600  0.00  0.00    +0.004 A 
ATOM      7  C   UNL     1       3.104  -0.161  -8.999  0.00  0.00    +0.010 A 
ATOM      8  C   UNL     1       2.954  -1.278  -9.767  0.00  0.00    +0.001 A 
ATOM      9  C   UNL     1       2.703  -2.545  -9.239  0.00  0.00    +0.002 A 
ATOM     10  C   UNL     1       2.604  -2.795  -7.904  0.00  0.00    +0.026 A 
ATOM     11  C   UNL     1       2.770  -1.686  -7.029  0.00  0.00    +0.044 A 
ATOM     12  N   UNL     1       2.785  -1.646  -5.718  0.00  0.00    -0.372 N 
ATOM     13  C   UNL     1       3.151  -0.304  -5.315  0.00  0.00    +0.160 C 
ATOM     14  H   UNL     1       2.590  -2.385  -5.122  0.00  0.00    +0.161 HD
ENDROOT
BRANCH   1  17
ATOM     15  C   UNL     1       0.115  -0.753  -1.444  0.00  0.00    +0.166 A 
ATOM     16  C   UNL     1       0.677   0.012  -2.446  0.00  0.00    +0.059 A 
ATOM     17  C   UNL     1       1.793  -0.465  -3.147  0.00  0.00    +0.006 A 
ATOM     18  C   UNL     1       2.334  -1.718  -2.828  0.00  0.00    +0.059 A 
ATOM     19  C   UNL     1       1.766  -2.477  -1.825  0.00  0.00    +0.166 A 
ATOM     20  C   UNL     1       0.659  -1.997  -1.126  0.00  0.00    +0.204 A 
BRANCH  15  22
ATOM     21  C   UNL     1      -1.473   0.990  -1.140  0.00  0.00    +0.277 C 
ATOM     22  O   UNL     1      -0.967  -0.292  -0.762  0.00  0.00    -0.491 OA
ENDBRANCH  15  22
BRANCH  20  23
ATOM     23  O   UNL     1       0.107  -2.745  -0.135  0.00  0.00    -0.488 OA
ATOM     24  C   UNL     1      -0.928  -3.656  -0.511  0.00  0.00    +0.277 C 
ENDBRANCH  20  23
BRANCH  19  25
ATOM     25  O   UNL     1       2.289  -3.693  -1.514  0.00  0.00    -0.491 OA
ATOM     26  C   UNL     1       3.426  -4.121  -2.267  0.00  0.00    +0.277 C 
ENDBRANCH  19  25
ENDBRANCH   1  17
BRANCH   3  27
ATOM     27  C   UNL     1       2.771   3.914  -4.962  0.00  0.00    +0.262 C 
ATOM     28  O   UNL     1       3.125   4.653  -5.860  0.00  0.00    -0.269 OA
ATOM     29  N   UNL     1       2.477   4.421  -3.749  0.00  0.00    -0.310 N 
ATOM     30  H   UNL     1       2.195   3.831  -3.032  0.00  0.00    +0.149 HD
BRANCH  29  31
ATOM     31  C   UNL     1       2.585   5.863  -3.511  0.00  0.00    +0.109 C 
BRANCH  31  32
ATOM     32  C   UNL     1       2.198   6.171  -2.064  0.00  0.00    +0.054 C 
BRANCH  32  33
ATOM     33  C   UNL     1       2.308   7.654  -1.820  0.00  0.00    -0.046 A 
ATOM     34  C   UNL     1       3.502   8.195  -1.379  0.00  0.00    +0.005 A 
ATOM     35  C   UNL     1       3.603   9.555  -1.155  0.00  0.00    +0.020 A 
ATOM     36  C   UNL     1       2.511  10.376  -1.372  0.00  0.00    +0.041 A 
ATOM     37  C   UNL     1       1.317   9.834  -1.814  0.00  0.00    +0.020 A 
ATOM     38  C   UNL     1       1.218   8.475  -2.043  0.00  0.00    +0.005 A 
ATOM     39 CL   UNL     1       2.638  12.084  -1.091  0.00  0.00    -0.084 Cl
ENDBRANCH  32  33
ENDBRANCH  31  32
ENDBRANCH  29  31
ENDBRANCH   3  27
TORSDOF 8
