REMARK  Name = ZINC36161000
REMARK  16 active torsions:
REMARK  status: ('A' for Active; 'I' for Inactive)
REMARK    1  A    between atoms: C_1  and  C_2
REMARK    2  A    between atoms: C_2  and  C_3
REMARK    3  A    between atoms: C_3  and  C_5
REMARK    4  A    between atoms: C_3  and  N_6
REMARK    5  A    between atoms: N_6  and  C_7
REMARK    6  A    between atoms: N_6  and  C_26
REMARK    7  A    between atoms: C_7  and  C_8
REMARK    8  A    between atoms: C_9  and  C_20
REMARK    9  A    between atoms: C_12  and  N_13
REMARK   10  A    between atoms: C_16  and  C_19
REMARK   11  A    between atoms: C_26  and  C_27
REMARK   12  A    between atoms: C_27  and  C_29
REMARK   13  A    between atoms: C_27  and  O_37
REMARK   14  A    between atoms: C_29  and  O_30
REMARK   15  A    between atoms: O_30  and  C_31
REMARK   16  A    between atoms: C_31  and  C_32
REMARK                            x       y       z     vdW  Elec       q    Type
REMARK                         _______ _______ _______ _____ _____    ______ ____
ROOT
ATOM      1  C   UNL     1      -2.185   1.545   2.379  0.00  0.00    -0.035 C 
ENDROOT
BRANCH   1   2
ATOM      2  C   UNL     1      -0.760   1.720   2.839  0.00  0.00    +0.025 A 
ATOM      3  C   UNL     1      -0.185   1.148   3.993  0.00  0.00    +0.117 A 
ATOM      4  N   UNL     1       1.069   1.530   4.052  0.00  0.00    -0.076 NA
ATOM      5  O   UNL     1       1.327   2.358   2.933  0.00  0.00    -0.339 OA
ATOM      6  C   UNL     1       0.197   2.450   2.212  0.00  0.00    +0.222 A 
BRANCH   6   7
ATOM      7  N   UNL     1       0.036   3.164   1.040  0.00  0.00    -0.299 N 
ATOM      8  C   UNL     1      -0.787   4.382   1.012  0.00  0.00    +0.108 C 
ATOM      9  C   UNL     1       0.046   5.526   0.425  0.00  0.00    +0.022 C 
ATOM     10  C   UNL     1       0.593   5.106  -0.941  0.00  0.00    -0.011 C 
ATOM     11  C   UNL     1       1.500   3.884  -0.775  0.00  0.00    +0.022 C 
ATOM     12  C   UNL     1       0.689   2.725  -0.201  0.00  0.00    +0.108 C 
ATOM     13  C   UNL     1       1.397   6.259  -1.544  0.00  0.00    +0.007 C 
ENDBRANCH   6   7
BRANCH   3  14
ATOM     14  C   UNL     1      -0.877   0.269   4.970  0.00  0.00    +0.004 A 
ATOM     15  C   UNL     1      -2.156   0.591   5.417  0.00  0.00    +0.010 A 
ATOM     16  C   UNL     1      -2.795  -0.230   6.324  0.00  0.00    +0.001 A 
ATOM     17  C   UNL     1      -2.167  -1.371   6.789  0.00  0.00    +0.000 A 
ATOM     18  C   UNL     1      -0.896  -1.696   6.348  0.00  0.00    +0.001 A 
ATOM     19  C   UNL     1      -0.251  -0.884   5.437  0.00  0.00    +0.010 A 
ENDBRANCH   3  14
ENDBRANCH   1   2
BRANCH   1  20
ATOM     20  N   UNL     1      -2.443   0.123   2.114  0.00  0.00    +0.386 N 
ATOM     21  H   UNL     1      -2.175  -0.423   2.919  0.00  0.00    -0.081 HD
BRANCH  20  22
ATOM     22  C   UNL     1      -1.662  -0.307   0.947  0.00  0.00    -0.071 C 
ATOM     23  C   UNL     1      -0.235  -0.642   1.384  0.00  0.00    -0.013 C 
BRANCH  22  25
ATOM     24  C   UNL     1      -3.036   1.056  -0.634  0.00  0.00    +0.002 C 
ATOM     25  C   UNL     1      -1.627   0.821  -0.087  0.00  0.00    -0.019 C 
ENDBRANCH  22  25
ENDBRANCH  20  22
BRANCH  20  26
ATOM     26  C   UNL     1      -3.874  -0.072   1.845  0.00  0.00    -0.044 C 
BRANCH  26  27
ATOM     27  C   UNL     1      -4.203  -1.565   1.897  0.00  0.00    +0.124 C 
BRANCH  27  28
ATOM     28  O   UNL     1      -3.617  -2.223   0.772  0.00  0.00    -0.391 OA
ATOM     29  H   UNL     1      -3.903  -1.871  -0.082  0.00  0.00    +0.210 HD
ENDBRANCH  27  28
BRANCH  27  30
ATOM     30  C   UNL     1      -5.721  -1.755   1.865  0.00  0.00    +0.189 C 
BRANCH  30  31
ATOM     31  O   UNL     1      -6.032  -3.139   2.031  0.00  0.00    -0.370 OA
BRANCH  31  32
ATOM     32  C   UNL     1      -7.432  -3.426   2.015  0.00  0.00    +0.234 C 
BRANCH  32  33
ATOM     33  C   UNL     1      -7.643  -4.907   2.197  0.00  0.00    +0.130 A 
ATOM     34  C   UNL     1      -7.800  -5.541   3.374  0.00  0.00    +0.047 A 
ATOM     35  C   UNL     1      -7.968  -6.913   3.081  0.00  0.00    +0.041 A 
ATOM     36  C   UNL     1      -7.904  -7.037   1.743  0.00  0.00    +0.195 A 
ATOM     37  O   UNL     1      -7.713  -5.818   1.213  0.00  0.00    -0.465 OA
ENDBRANCH  32  33
ENDBRANCH  31  32
ENDBRANCH  30  31
ENDBRANCH  27  30
ENDBRANCH  26  27
ENDBRANCH  20  26
ENDBRANCH   1  20
TORSDOF 13
