REMARK  Name = ZINC16566369
REMARK  10 active torsions:
REMARK  status: ('A' for Active; 'I' for Inactive)
REMARK    1  A    between atoms: C_1  and  C_2
REMARK    2  A    between atoms: C_3  and  C_29
REMARK    3  A    between atoms: N_9  and  C_26
REMARK    4  A    between atoms: C_10  and  S_12
REMARK    5  A    between atoms: S_12  and  C_13
REMARK    6  A    between atoms: C_13  and  C_14
REMARK    7  A    between atoms: C_17  and  C_23
REMARK    8  A    between atoms: C_19  and  N_20
REMARK    9  A    between atoms: C_26  and  C_27
REMARK   10  A    between atoms: C_26  and  C_28
REMARK                            x       y       z     vdW  Elec       q    Type
REMARK                         _______ _______ _______ _____ _____    ______ ____
ROOT
ATOM      1  S   UNL     1      -3.100   0.369   2.112  0.00  0.00    -0.083 S 
ENDROOT
BRANCH   1  11
ATOM      2  C   UNL     1      -8.123  -2.601  -1.685  0.00  0.00    +0.045 C 
ATOM      3  C   UNL     1      -6.776  -1.976  -1.943  0.00  0.00    -0.026 A 
ATOM      4  C   UNL     1      -6.288  -1.905  -3.191  0.00  0.00    -0.008 A 
ATOM      5  S   UNL     1      -4.711  -1.104  -2.974  0.00  0.00    -0.073 S 
ATOM      6  C   UNL     1      -4.751  -0.887  -1.214  0.00  0.00    +0.117 A 
ATOM      7  C   UNL     1      -5.990  -1.444  -0.843  0.00  0.00    +0.075 A 
ATOM      8  C   UNL     1      -6.296  -1.406   0.553  0.00  0.00    +0.263 A 
ATOM      9  O   UNL     1      -7.347  -1.866   0.968  0.00  0.00    -0.267 OA
ATOM     10  N   UNL     1      -5.410  -0.858   1.405  0.00  0.00    -0.285 N 
ATOM     11  C   UNL     1      -4.229  -0.339   0.959  0.00  0.00    +0.173 A 
ATOM     12  N   UNL     1      -3.923  -0.356  -0.323  0.00  0.00    -0.216 NA
ATOM     13  C   UNL     1      -6.923  -2.389  -4.470  0.00  0.00    +0.052 C 
BRANCH  10  14
ATOM     14  C   UNL     1      -5.718  -0.817   2.836  0.00  0.00    +0.087 C 
ATOM     15  C   UNL     1      -6.967   0.036   3.064  0.00  0.00    +0.031 C 
ATOM     16  C   UNL     1      -5.972  -2.238   3.344  0.00  0.00    +0.031 C 
ENDBRANCH  10  14
ENDBRANCH   1  11
BRANCH   1  17
ATOM     17  C   UNL     1      -1.773   0.869   0.988  0.00  0.00    +0.114 C 
BRANCH  17  18
ATOM     18  C   UNL     1      -0.665   1.518   1.776  0.00  0.00    -0.007 A 
ATOM     19  C   UNL     1       0.305   0.734   2.376  0.00  0.00    +0.007 A 
ATOM     20  C   UNL     1       1.325   1.322   3.093  0.00  0.00    +0.013 A 
ATOM     21  C   UNL     1       1.376   2.712   3.218  0.00  0.00    +0.039 A 
ATOM     22  C   UNL     1       0.392   3.496   2.615  0.00  0.00    +0.046 A 
ATOM     23  C   UNL     1      -0.624   2.895   1.900  0.00  0.00    +0.131 A 
BRANCH  21  24
ATOM     24  C   UNL     1       2.467   3.349   3.986  0.00  0.00    +0.242 C 
ATOM     25  O   UNL     1       2.508   4.559   4.092  0.00  0.00    -0.270 OA
ATOM     26  N   UNL     1       3.415   2.588   4.567  0.00  0.00    -0.325 N 
ATOM     27  H   UNL     1       3.382   1.623   4.482  0.00  0.00    +0.145 HD
ATOM     28  H   UNL     1       4.131   3.007   5.071  0.00  0.00    +0.145 HD
ENDBRANCH  21  24
BRANCH  23  29
ATOM     29  N   UNL     1      -1.668   3.726   1.259  0.00  0.00    +0.057 N 
ATOM     30  O   UNL     1      -1.372   4.795   0.756  0.00  0.00    -0.126 OA
ATOM     31  O   UNL     1      -2.823   3.341   1.236  0.00  0.00    -0.126 OA
ENDBRANCH  23  29
ENDBRANCH  17  18
ENDBRANCH   1  17
TORSDOF 6
