REMARK  Name = ZINC64290118
REMARK  8 active torsions:
REMARK  status: ('A' for Active; 'I' for Inactive)
REMARK    1  A    between atoms: C_1  and  C_2
REMARK    2  A    between atoms: C_2  and  C_3
REMARK    3  A    between atoms: C_2  and  C_20
REMARK    4  A    between atoms: C_3  and  C_4
REMARK    5  A    between atoms: N_6  and  C_7
REMARK    6  A    between atoms: N_6  and  C_14
REMARK    7  A    between atoms: C_7  and  C_8
REMARK    8  A    between atoms: C_14  and  C_15
REMARK                            x       y       z     vdW  Elec       q    Type
REMARK                         _______ _______ _______ _____ _____    ______ ____
ROOT
ATOM      1  C   UNL     1       2.188  -0.092   1.170  0.00  0.00    +0.216 C 
ATOM      2  O   UNL     1       2.587   0.548   0.220  0.00  0.00    -0.276 OA
ATOM      3  N   UNL     1       3.037  -0.430   2.160  0.00  0.00    -0.290 N 
ENDROOT
BRANCH   1   4
ATOM      4  C   UNL     1       0.742  -0.511   1.242  0.00  0.00    +0.099 C 
BRANCH   4   6
ATOM      5  C   UNL     1      -0.019   1.526   0.010  0.00  0.00    +0.008 C 
ATOM      6  C   UNL     1       0.002  -0.004   0.002  0.00  0.00    -0.002 C 
BRANCH   6   7
ATOM      7  C   UNL     1      -1.433  -0.534   0.013  0.00  0.00    -0.008 C 
ATOM      8  C   UNL     1      -1.813  -1.567  -1.049  0.00  0.00    +0.004 C 
ATOM      9  C   UNL     1      -2.342  -0.135  -1.152  0.00  0.00    +0.004 C 
ENDBRANCH   6   7
ENDBRANCH   4   6
ENDBRANCH   1   4
BRANCH   3  10
ATOM     10  C   UNL     1       4.443  -0.023   2.090  0.00  0.00    +0.143 C 
BRANCH  10  11
ATOM     11  C   UNL     1       4.609   1.323   2.748  0.00  0.00    -0.030 A 
ATOM     12  C   UNL     1       4.472   2.479   2.002  0.00  0.00    +0.005 A 
ATOM     13  C   UNL     1       4.625   3.713   2.605  0.00  0.00    +0.000 A 
ATOM     14  C   UNL     1       4.915   3.792   3.954  0.00  0.00    +0.000 A 
ATOM     15  C   UNL     1       5.051   2.636   4.700  0.00  0.00    +0.000 A 
ATOM     16  C   UNL     1       4.894   1.402   4.098  0.00  0.00    +0.005 A 
ENDBRANCH  10  11
ENDBRANCH   3  10
BRANCH   3  17
ATOM     17  C   UNL     1       2.555  -1.204   3.307  0.00  0.00    +0.182 C 
BRANCH  17  18
ATOM     18  C   UNL     1       2.705  -2.675   3.018  0.00  0.00    +0.122 A 
ATOM     19  C   UNL     1       3.783  -3.427   3.306  0.00  0.00    +0.046 A 
ATOM     20  C   UNL     1       3.495  -4.740   2.865  0.00  0.00    +0.041 A 
ATOM     21  C   UNL     1       2.259  -4.711   2.336  0.00  0.00    +0.195 A 
ATOM     22  O   UNL     1       1.783  -3.459   2.436  0.00  0.00    -0.466 OA
ENDBRANCH  17  18
ENDBRANCH   3  17
TORSDOF 7
