REMARK  Name = ZINC12039585
REMARK  5 active torsions:
REMARK  status: ('A' for Active; 'I' for Inactive)
REMARK    1  A    between atoms: C_1  and  C_2
REMARK    2  A    between atoms: C_5  and  C_23
REMARK    3  A    between atoms: N_9  and  N_10
REMARK    4  A    between atoms: C_11  and  C_13
REMARK    5  A    between atoms: C_23  and  C_25
REMARK                            x       y       z     vdW  Elec       q    Type
REMARK                         _______ _______ _______ _____ _____    ______ ____
ROOT
ATOM      1  N   UNL     1       0.261  -0.853   3.601  0.00  0.00    -0.202 N 
ATOM      2  C   UNL     1       0.491  -0.219   4.768  0.00  0.00    +0.271 C 
ATOM      3  O   UNL     1       0.684   0.982   4.780  0.00  0.00    -0.268 OA
ATOM      4  H   UNL     1       0.107  -1.811   3.591  0.00  0.00    +0.178 HD
ENDROOT
BRANCH   2   5
ATOM      5  C   UNL     1       0.507  -0.978   6.024  0.00  0.00    +0.095 A 
ATOM      6  C   UNL     1       0.714  -0.520   7.289  0.00  0.00    +0.068 A 
ATOM      7  C   UNL     1       0.690  -1.419   8.372  0.00  0.00    +0.008 A 
ATOM      8  C   UNL     1       0.881  -1.138   9.750  0.00  0.00    +0.010 A 
ATOM      9  C   UNL     1       0.827  -2.131  10.675  0.00  0.00    +0.001 A 
ATOM     10  C   UNL     1       0.583  -3.451  10.314  0.00  0.00    +0.001 A 
ATOM     11  C   UNL     1       0.391  -3.767   8.985  0.00  0.00    +0.016 A 
ATOM     12  C   UNL     1       0.444  -2.770   8.034  0.00  0.00    +0.021 A 
ATOM     13  S   UNL     1       0.254  -2.727   6.270  0.00  0.00    -0.082 S 
ATOM     14 CL   UNL     1       1.006   1.169   7.566  0.00  0.00    -0.082 Cl
ENDBRANCH   2   5
BRANCH   1  22
ATOM     15  C   UNL     1      -0.018   1.503   0.010  0.00  0.00    +0.045 C 
ATOM     16  C   UNL     1       0.002  -0.004   0.002  0.00  0.00    -0.032 C 
ATOM     17  C   UNL     1       0.005  -0.654  -1.152  0.00  0.00    -0.021 C 
ATOM     18  C   UNL     1       0.015  -2.150  -1.252  0.00  0.00    +0.035 C 
ATOM     19  C   UNL     1       0.555  -2.786   0.028  0.00  0.00    +0.024 C 
ATOM     20  C   UNL     1      -0.226  -2.234   1.229  0.00  0.00    +0.065 C 
ATOM     21  C   UNL     1       0.024  -0.740   1.276  0.00  0.00    +0.062 C 
ATOM     22  N   UNL     1       0.245  -0.129   2.401  0.00  0.00    -0.184 NA
BRANCH  19  23
ATOM     23  C   UNL     1       0.385  -4.282  -0.042  0.00  0.00    -0.076 C 
ATOM     24  C   UNL     1       1.433  -5.064   0.026  0.00  0.00    +0.007 C 
ATOM     25  C   UNL     1      -0.991  -4.878  -0.191  0.00  0.00    +0.039 C 
ENDBRANCH  19  23
ENDBRANCH   1  22
TORSDOF 3
