REMARK  Name = ZINC36385375
REMARK  10 active torsions:
REMARK  status: ('A' for Active; 'I' for Inactive)
REMARK    1  A    between atoms: C_1  and  C_2
REMARK    2  A    between atoms: C_4  and  C_34
REMARK    3  A    between atoms: C_4  and  C_35
REMARK    4  A    between atoms: N_10  and  C_14
REMARK    5  A    between atoms: C_14  and  N_15
REMARK    6  A    between atoms: C_20  and  O_32
REMARK    7  A    between atoms: C_21  and  O_30
REMARK    8  A    between atoms: C_24  and  C_25
REMARK    9  A    between atoms: O_30  and  C_31
REMARK   10  A    between atoms: O_32  and  C_33
REMARK                            x       y       z     vdW  Elec       q    Type
REMARK                         _______ _______ _______ _____ _____    ______ ____
ROOT
ATOM      1  N   UNL     1       0.578  -3.392   5.447  0.00  0.00    -0.275 NA
ATOM      2  C   UNL     1       1.699  -2.490   5.755  0.00  0.00    +0.091 C 
ATOM      3  C   UNL     1       1.202  -1.409   6.715  0.00  0.00    +0.051 C 
ATOM      4  C   UNL     1       0.484  -2.044   7.878  0.00  0.00    -0.037 A 
ATOM      5  C   UNL     1       0.276  -1.283   9.020  0.00  0.00    +0.053 A 
ATOM      6  C   UNL     1      -0.382  -1.824  10.110  0.00  0.00    +0.162 A 
ATOM      7  C   UNL     1      -0.836  -3.138  10.059  0.00  0.00    +0.162 A 
ATOM      8  C   UNL     1      -0.625  -3.893   8.919  0.00  0.00    +0.055 A 
ATOM      9  C   UNL     1       0.038  -3.347   7.828  0.00  0.00    -0.018 A 
ATOM     10  C   UNL     1       0.253  -4.215   6.615  0.00  0.00    +0.126 C 
ENDROOT
BRANCH  10  11
ATOM     11  C   UNL     1      -1.003  -5.000   6.337  0.00  0.00    +0.011 A 
ATOM     12  C   UNL     1      -1.299  -6.281   6.665  0.00  0.00    +0.013 A 
ATOM     13  C   UNL     1      -2.529  -6.799   6.303  0.00  0.00    +0.008 A 
ATOM     14  C   UNL     1      -3.402  -6.010   5.631  0.00  0.00    +0.045 A 
ATOM     15  S   UNL     1      -2.490  -4.481   5.496  0.00  0.00    -0.100 S 
ENDBRANCH  10  11
BRANCH   7  16
ATOM     16  O   UNL     1      -1.486  -3.679  11.125  0.00  0.00    -0.491 OA
ATOM     17  C   UNL     1      -1.923  -5.033  10.999  0.00  0.00    +0.277 C 
ENDBRANCH   7  16
BRANCH   6  18
ATOM     18  O   UNL     1      -0.583  -1.074  11.227  0.00  0.00    -0.491 OA
ATOM     19  C   UNL     1      -0.089   0.267  11.206  0.00  0.00    +0.277 C 
ENDBRANCH   6  18
BRANCH   1  20
ATOM     20  C   UNL     1       0.883  -4.231   4.280  0.00  0.00    +0.205 C 
BRANCH  20  30
ATOM     21  C   UNL     1       0.003   1.471   0.164  0.00  0.00    +0.007 C 
ATOM     22  C   UNL     1       0.022  -0.057   0.093  0.00  0.00    -0.011 C 
ATOM     23  C   UNL     1       0.721  -0.500  -1.194  0.00  0.00    +0.009 C 
ATOM     24  C   UNL     1       0.733  -2.028  -1.271  0.00  0.00    -0.032 C 
ATOM     25  C   UNL     1       1.494  -2.592  -0.069  0.00  0.00    +0.041 C 
ATOM     26  C   UNL     1       0.819  -2.136   1.221  0.00  0.00    +0.113 C 
ATOM     27  C   UNL     1       0.780  -0.614   1.301  0.00  0.00    +0.038 C 
ATOM     28  C   UNL     1       1.533  -2.711   2.422  0.00  0.00    +0.248 C 
ATOM     29  O   UNL     1       2.685  -2.522   2.751  0.00  0.00    -0.273 OA
ATOM     30  N   UNL     1       0.619  -3.477   3.053  0.00  0.00    -0.211 N 
ATOM     31  C   UNL     1      -0.559  -3.462   2.418  0.00  0.00    +0.310 C 
ATOM     32  O   UNL     1      -1.538  -4.076   2.795  0.00  0.00    -0.252 OA
ATOM     33  N   UNL     1      -0.538  -2.690   1.314  0.00  0.00    -0.285 N 
ATOM     34  C   UNL     1       1.423  -2.468  -2.564  0.00  0.00    +0.011 C 
ATOM     35  C   UNL     1      -0.705  -2.551  -1.257  0.00  0.00    +0.011 C 
ATOM     36  H   UNL     1      -1.274  -2.532   0.702  0.00  0.00    +0.151 HD
ENDBRANCH  20  30
ENDBRANCH   1  20
TORSDOF 5
