REMARK  Name = ZINC18193462
REMARK  10 active torsions:
REMARK  status: ('A' for Active; 'I' for Inactive)
REMARK    1  A    between atoms: C_1  and  C_2
REMARK    2  A    between atoms: C_9  and  C_11
REMARK    3  A    between atoms: C_12  and  C_35
REMARK    4  A    between atoms: C_16  and  C_18
REMARK    5  A    between atoms: C_20  and  O_28
REMARK    6  A    between atoms: C_21  and  O_26
REMARK    7  A    between atoms: C_22  and  O_24
REMARK    8  A    between atoms: O_24  and  C_25
REMARK    9  A    between atoms: O_26  and  C_27
REMARK   10  A    between atoms: O_28  and  C_29
REMARK                            x       y       z     vdW  Elec       q    Type
REMARK                         _______ _______ _______ _____ _____    ______ ____
ROOT
ATOM      1  C   UNL     1      -0.033   1.708   2.396  0.00  0.00    +0.043 C 
ATOM      2  C   UNL     1      -0.721   1.565   1.251  0.00  0.00    +0.014 C 
ATOM      3  N   UNL     1      -2.050   1.879   1.197  0.00  0.00    -0.321 N 
ATOM      4  C   UNL     1      -2.797   1.948   2.345  0.00  0.00    +0.015 C 
ATOM      5  C   UNL     1      -2.195   2.104   3.543  0.00  0.00    +0.024 C 
ATOM      6  C   UNL     1      -0.695   2.215   3.644  0.00  0.00    +0.090 C 
ATOM      7  C   UNL     1      -2.947   2.166   4.730  0.00  0.00    +0.162 C 
ATOM      8  O   UNL     1      -2.376   2.317   5.791  0.00  0.00    -0.292 OA
ATOM      9  C   UNL     1      -4.447   2.048   4.709  0.00  0.00    +0.080 C 
ATOM     10  C   UNL     1      -4.863   1.201   3.502  0.00  0.00    +0.014 C 
ATOM     11  C   UNL     1      -4.298   1.849   2.236  0.00  0.00    +0.051 C 
ATOM     12  C   UNL     1      -0.021   1.059   0.016  0.00  0.00    +0.061 C 
ATOM     13  H   UNL     1      -2.529   2.080   0.227  0.00  0.00    +0.152 HD
ENDROOT
BRANCH   1  22
ATOM     14  C   UNL     1       6.264   1.210   6.070  0.00  0.00    +0.044 C 
ATOM     15  C   UNL     1       5.463   1.081   4.800  0.00  0.00    -0.046 A 
ATOM     16  C   UNL     1       6.078   0.736   3.604  0.00  0.00    +0.023 A 
ATOM     17  C   UNL     1       5.316   0.626   2.459  0.00  0.00    +0.113 A 
ATOM     18  N   UNL     1       4.015   0.846   2.488  0.00  0.00    -0.240 NA
ATOM     19  C   UNL     1       3.392   1.177   3.608  0.00  0.00    +0.125 A 
ATOM     20  C   UNL     1       4.099   1.310   4.799  0.00  0.00    +0.047 A 
ATOM     21  N   UNL     1       2.017   1.399   3.593  0.00  0.00    -0.267 N 
ATOM     22  C   UNL     1       1.343   1.373   2.427  0.00  0.00    +0.248 C 
ATOM     23  O   UNL     1       1.917   1.062   1.399  0.00  0.00    -0.270 OA
ATOM     24  H   UNL     1       1.482   1.596   4.534  0.00  0.00    +0.157 HD
ENDBRANCH   1  22
BRANCH   6  25
ATOM     25  C   UNL     1      -0.318   3.660   3.851  0.00  0.00    -0.028 A 
ATOM     26  C   UNL     1      -0.634   4.599   2.887  0.00  0.00    +0.054 A 
ATOM     27  C   UNL     1      -0.294   5.930   3.076  0.00  0.00    +0.165 A 
ATOM     28  C   UNL     1       0.375   6.317   4.231  0.00  0.00    +0.204 A 
ATOM     29  C   UNL     1       0.695   5.369   5.195  0.00  0.00    +0.165 A 
ATOM     30  C   UNL     1       0.346   4.041   5.001  0.00  0.00    +0.054 A 
BRANCH  29  31
ATOM     31  O   UNL     1       1.350   5.742   6.327  0.00  0.00    -0.491 OA
ATOM     32  C   UNL     1       1.647   4.714   7.274  0.00  0.00    +0.277 C 
ENDBRANCH  29  31
BRANCH  28  33
ATOM     33  O   UNL     1       0.715   7.622   4.418  0.00  0.00    -0.488 OA
ATOM     34  C   UNL     1       1.993   8.035   3.932  0.00  0.00    +0.277 C 
ENDBRANCH  28  33
BRANCH  27  35
ATOM     35  O   UNL     1      -0.610   6.855   2.130  0.00  0.00    -0.491 OA
ATOM     36  C   UNL     1      -1.297   6.386   0.969  0.00  0.00    +0.277 C 
ENDBRANCH  27  35
ENDBRANCH   6  25
TORSDOF 5
