REMARK  Name = ZINC12733869
REMARK  8 active torsions:
REMARK  status: ('A' for Active; 'I' for Inactive)
REMARK    1  A    between atoms: C_1  and  C_2
REMARK    2  A    between atoms: C_5  and  S_9
REMARK    3  A    between atoms: C_7  and  C_8
REMARK    4  A    between atoms: S_9  and  N_12
REMARK    5  A    between atoms: N_12  and  C_13
REMARK    6  A    between atoms: C_16  and  C_19
REMARK    7  A    between atoms: C_19  and  S_20
REMARK    8  A    between atoms: S_20  and  N_23
REMARK                            x       y       z     vdW  Elec       q    Type
REMARK                         _______ _______ _______ _____ _____    ______ ____
ROOT
ATOM      1  N   UNL     1      -0.031   0.030  -0.279  0.00  0.00    -0.216 N 
ATOM      2  H   UNL     1      -0.448  -0.317  -1.083  0.00  0.00    +0.174 HD
ENDROOT
BRANCH   1   3
ATOM      3  C   UNL     1       0.647  -0.833   0.585  0.00  0.00    +0.048 A 
ATOM      4  C   UNL     1       1.901  -1.320   0.240  0.00  0.00    +0.025 A 
ATOM      5  C   UNL     1       2.571  -2.169   1.099  0.00  0.00    +0.007 A 
ATOM      6  C   UNL     1       1.989  -2.543   2.296  0.00  0.00    -0.025 A 
ATOM      7  C   UNL     1       0.738  -2.064   2.641  0.00  0.00    +0.007 A 
ATOM      8  C   UNL     1       0.065  -1.211   1.789  0.00  0.00    +0.025 A 
BRANCH   6   9
ATOM      9  C   UNL     1       2.721  -3.474   3.229  0.00  0.00    +0.219 C 
BRANCH   9  10
ATOM     10  S   UNL     1       2.288  -5.190   2.832  0.00  0.00    +0.031 S 
ATOM     11  O   UNL     1       0.925  -5.437   3.148  0.00  0.00    -0.158 OA
ATOM     12  O   UNL     1       2.812  -5.545   1.559  0.00  0.00    -0.158 OA
BRANCH  10  13
ATOM     13  N   UNL     1       3.145  -6.106   3.912  0.00  0.00    -0.208 NA
ATOM     14  H   UNL     1       2.796  -6.961   4.208  0.00  0.00    +0.144 HD
ATOM     15  H   UNL     1       3.997  -5.788   4.250  0.00  0.00    +0.144 HD
ENDBRANCH  10  13
ENDBRANCH   9  10
ENDBRANCH   6   9
ENDBRANCH   1   3
BRANCH   1  16
ATOM     16  S   UNL     1      -0.124   1.646   0.069  0.00  0.00    +0.072 S 
ATOM     17  O   UNL     1      -0.818   2.256  -1.011  0.00  0.00    -0.150 OA
ATOM     18  O   UNL     1      -0.571   1.747   1.415  0.00  0.00    -0.150 OA
BRANCH  16  23
ATOM     19  C   UNL     1       5.502   3.823  -0.046  0.00  0.00    +0.044 C 
ATOM     20  C   UNL     1       4.096   3.280  -0.017  0.00  0.00    -0.047 A 
ATOM     21  C   UNL     1       3.532   2.886   1.182  0.00  0.00    +0.005 A 
ATOM     22  C   UNL     1       2.241   2.392   1.209  0.00  0.00    +0.029 A 
ATOM     23  C   UNL     1       1.519   2.282   0.035  0.00  0.00    +0.109 A 
ATOM     24  C   UNL     1       2.083   2.676  -1.163  0.00  0.00    +0.032 A 
ATOM     25  C   UNL     1       3.372   3.175  -1.190  0.00  0.00    -0.046 A 
ATOM     26  C   UNL     1       3.987   3.604  -2.497  0.00  0.00    +0.044 C 
ENDBRANCH  16  23
ENDBRANCH   1  16
TORSDOF 6
