REMARK  Name = ZINC13210239
REMARK  15 active torsions:
REMARK  status: ('A' for Active; 'I' for Inactive)
REMARK    1  A    between atoms: C_1  and  C_2
REMARK    2  A    between atoms: C_2  and  C_3
REMARK    3  A    between atoms: C_8  and  N_9
REMARK    4  A    between atoms: C_10  and  C_12
REMARK    5  A    between atoms: C_12  and  N_13
REMARK    6  A    between atoms: N_13  and  C_14
REMARK    7  A    between atoms: C_15  and  C_17
REMARK    8  A    between atoms: C_17  and  C_19
REMARK    9  A    between atoms: C_17  and  S_20
REMARK   10  A    between atoms: S_20  and  C_21
REMARK   11  A    between atoms: C_25  and  C_35
REMARK   12  A    between atoms: C_26  and  C_31
REMARK   13  A    between atoms: C_27  and  C_30
REMARK   14  A    between atoms: C_31  and  C_32
REMARK   15  A    between atoms: C_32  and  C_33
REMARK                            x       y       z     vdW  Elec       q    Type
REMARK                         _______ _______ _______ _____ _____    ______ ____
ROOT
ATOM      1  C   UNL     1       1.306  -0.756  -0.006  0.00  0.00    +0.137 C 
ATOM      2  C   UNL     1       1.854  -0.789  -1.435  0.00  0.00    +0.029 C 
ENDROOT
BRANCH   1   5
ATOM      3  N   UNL     1      -0.025   1.329   0.009  0.00  0.00    -0.295 N 
ATOM      4  C   UNL     1       1.234   2.077  -0.010  0.00  0.00    +0.132 C 
ATOM      5  C   UNL     1      -0.008  -0.019   0.011  0.00  0.00    +0.229 C 
ATOM      6  O   UNL     1      -1.050  -0.638   0.026  0.00  0.00    -0.274 OA
BRANCH   3   7
ATOM      7  C   UNL     1      -1.303   2.046   0.019  0.00  0.00    +0.203 C 
BRANCH   7   9
ATOM      8  N   UNL     1      -2.882   2.942   1.699  0.00  0.00    -0.284 N 
ATOM      9  C   UNL     1      -1.728   2.293   1.443  0.00  0.00    +0.235 C 
ATOM     10  O   UNL     1      -1.032   1.909   2.360  0.00  0.00    -0.274 OA
ATOM     11  H   UNL     1      -3.398   3.319   0.969  0.00  0.00    +0.155 HD
BRANCH   8  17
ATOM     12  C   UNL     1      -4.185   4.113   3.361  0.00  0.00    -0.026 A 
ATOM     13  C   UNL     1      -4.630   4.237   4.663  0.00  0.00    +0.005 A 
ATOM     14  C   UNL     1      -4.231   3.325   5.622  0.00  0.00    +0.000 A 
ATOM     15  C   UNL     1      -3.385   2.285   5.282  0.00  0.00    +0.002 A 
ATOM     16  C   UNL     1      -2.940   2.152   3.981  0.00  0.00    +0.023 A 
ATOM     17  C   UNL     1      -3.335   3.071   3.016  0.00  0.00    +0.037 A 
BRANCH  12  19
ATOM     18  C   UNL     1      -5.837   4.559   1.567  0.00  0.00    +0.009 C 
ATOM     19  C   UNL     1      -4.621   5.107   2.316  0.00  0.00    +0.033 C 
ENDBRANCH  12  19
ENDBRANCH   8  17
ENDBRANCH   7   9
ENDBRANCH   3   7
ENDBRANCH   1   5
BRANCH   1  20
ATOM     20  S   UNL     1       1.056  -2.453   0.585  0.00  0.00    -0.072 S 
BRANCH  20  21
ATOM     21  C   UNL     1       2.682  -3.127   0.647  0.00  0.00    +0.212 A 
ATOM     22  N   UNL     1       3.797  -2.477   0.319  0.00  0.00    -0.183 NA
ATOM     23  C   UNL     1       4.846  -3.277   0.481  0.00  0.00    +0.254 A 
ATOM     24  N   UNL     1       6.157  -3.094   0.290  0.00  0.00    -0.216 NA
ATOM     25  C   UNL     1       7.015  -4.061   0.527  0.00  0.00    +0.047 A 
ATOM     26  C   UNL     1       6.567  -5.305   0.987  0.00  0.00    -0.005 A 
ATOM     27  C   UNL     1       5.237  -5.499   1.184  0.00  0.00    +0.048 A 
ATOM     28  N   UNL     1       4.376  -4.480   0.929  0.00  0.00    -0.200 N 
ATOM     29  N   UNL     1       2.985  -4.351   1.030  0.00  0.00    -0.137 NA
ATOM     30  C   UNL     1       4.724  -6.827   1.679  0.00  0.00    +0.066 C 
ATOM     31  C   UNL     1       8.487  -3.830   0.303  0.00  0.00    +0.066 C 
BRANCH  26  32
ATOM     32  C   UNL     1       7.549  -6.415   1.259  0.00  0.00    +0.050 C 
BRANCH  32  33
ATOM     33  C   UNL     1       8.017  -6.337   2.713  0.00  0.00    +0.130 C 
BRANCH  33  34
ATOM     34  C   UNL     1       8.999  -7.447   2.986  0.00  0.00    +0.356 C 
ATOM     35  O   UNL     1       9.293  -8.222   2.107  0.00  0.00    -0.246 OA
ATOM     36  O   UNL     1       9.546  -7.576   4.205  0.00  0.00    -0.246 OA
ENDBRANCH  33  34
ENDBRANCH  32  33
ENDBRANCH  26  32
ENDBRANCH  20  21
ENDBRANCH   1  20
TORSDOF 10
