REMARK  Name = ZINC37599944
REMARK  6 active torsions:
REMARK  status: ('A' for Active; 'I' for Inactive)
REMARK    1  A    between atoms: C_1  and  C_2
REMARK    2  A    between atoms: C_2  and  C_3
REMARK    3  A    between atoms: C_3  and  N_4
REMARK    4  A    between atoms: C_12  and  C_13
REMARK    5  A    between atoms: C_16  and  N_20
REMARK    6  A    between atoms: C_17  and  O_19
REMARK                            x       y       z     vdW  Elec       q    Type
REMARK                         _______ _______ _______ _____ _____    ______ ____
ROOT
ATOM      1  N   UNL     1       0.833  -1.986  -1.495  0.00  0.00    -0.324 N 
ATOM      2  C   UNL     1       1.819  -2.785  -0.946  0.00  0.00    +0.069 A 
ATOM      3  C   UNL     1       3.114  -2.549  -0.507  0.00  0.00    +0.029 A 
ATOM      4  C   UNL     1       3.865  -3.586   0.004  0.00  0.00    +0.017 A 
ATOM      5  C   UNL     1       3.335  -4.867   0.084  0.00  0.00    +0.020 A 
ATOM      6  C   UNL     1       2.052  -5.120  -0.347  0.00  0.00    +0.045 A 
ATOM      7  C   UNL     1       1.276  -4.080  -0.868  0.00  0.00    +0.091 A 
ATOM      8  N   UNL     1       0.015  -4.016  -1.360  0.00  0.00    -0.227 NA
ATOM      9  C   UNL     1      -0.254  -2.786  -1.725  0.00  0.00    +0.142 A 
ATOM     10 BR   UNL     1       4.384  -6.274   0.788  0.00  0.00    -0.050 Br
ENDROOT
BRANCH   9  11
ATOM     11  C   UNL     1      -1.536  -2.332  -2.302  0.00  0.00    +0.021 A 
ATOM     12  C   UNL     1      -1.899  -0.985  -2.227  0.00  0.00    +0.013 A 
ATOM     13  C   UNL     1      -3.095  -0.562  -2.765  0.00  0.00    +0.027 A 
ATOM     14  C   UNL     1      -3.943  -1.474  -3.383  0.00  0.00    +0.067 A 
ATOM     15  C   UNL     1      -3.585  -2.820  -3.462  0.00  0.00    +0.138 A 
ATOM     16  C   UNL     1      -2.385  -3.247  -2.929  0.00  0.00    +0.058 A 
BRANCH  14  17
ATOM     17  N   UNL     1      -5.154  -1.041  -3.926  0.00  0.00    -0.355 N 
ATOM     18  H   UNL     1      -5.404  -0.105  -3.872  0.00  0.00    +0.142 HD
ATOM     19  H   UNL     1      -5.747  -1.677  -4.358  0.00  0.00    +0.142 HD
ENDBRANCH  14  17
BRANCH  15  20
ATOM     20  O   UNL     1      -4.417  -3.710  -4.067  0.00  0.00    -0.505 OA
ATOM     21  H   UNL     1      -4.257  -3.816  -5.014  0.00  0.00    +0.292 HD
ENDBRANCH  15  20
ENDBRANCH   9  11
BRANCH   1  22
ATOM     22  C   UNL     1       0.931  -0.551  -1.772  0.00  0.00    +0.123 C 
BRANCH  22  24
ATOM     23  C   UNL     1       0.704   1.736  -0.792  0.00  0.00    +0.005 C 
ATOM     24  C   UNL     1       0.602   0.237  -0.503  0.00  0.00    +0.018 C 
ENDBRANCH  22  24
ENDBRANCH   1  22
TORSDOF 5
