REMARK  Name = ZINC39630702
REMARK  11 active torsions:
REMARK  status: ('A' for Active; 'I' for Inactive)
REMARK    1  A    between atoms: C_1  and  C_2
REMARK    2  A    between atoms: C_2  and  C_3
REMARK    3  A    between atoms: C_2  and  C_4
REMARK    4  A    between atoms: C_2  and  C_32
REMARK    5  A    between atoms: C_4  and  N_5
REMARK    6  A    between atoms: C_6  and  C_8
REMARK    7  A    between atoms: C_19  and  C_21
REMARK    8  A    between atoms: C_23  and  C_28
REMARK    9  A    between atoms: C_32  and  N_33
REMARK   10  A    between atoms: N_33  and  C_34
REMARK   11  A    between atoms: N_33  and  C_35
REMARK                            x       y       z     vdW  Elec       q    Type
REMARK                         _______ _______ _______ _____ _____    ______ ____
ROOT
ATOM      1  C   UNL     1      -1.651  -1.187   4.116  0.00  0.00    +0.100 C 
ATOM      2  C   UNL     1      -2.118   0.285   4.173  0.00  0.00    +0.121 C 
ATOM      3  N   UNL     1      -3.592   0.205   4.312  0.00  0.00    -0.296 N 
ATOM      4  C   UNL     1      -3.814  -0.933   5.236  0.00  0.00    +0.115 C 
ATOM      5  C   UNL     1      -2.764  -1.982   4.818  0.00  0.00    -0.004 C 
ATOM      6  C   UNL     1      -2.210  -2.695   6.048  0.00  0.00    -0.010 C 
ATOM      7  C   UNL     1      -3.322  -3.526   6.696  0.00  0.00    -0.082 C 
ATOM      8  N   UNL     1      -3.831  -4.504   5.727  0.00  0.00    +0.379 N 
ATOM      9  C   UNL     1      -4.447  -3.809   4.590  0.00  0.00    -0.082 C 
ATOM     10  C   UNL     1      -3.383  -2.990   3.853  0.00  0.00    -0.010 C 
ATOM     11  C   UNL     1      -4.520   0.989   3.730  0.00  0.00    +0.247 C 
ATOM     12  O   UNL     1      -4.176   1.923   3.032  0.00  0.00    -0.270 OA
ATOM     13  H   UNL     1      -3.069  -5.077   5.397  0.00  0.00    -0.086 HD
ATOM     14  H   UNL     1      -4.520  -5.090   6.174  0.00  0.00    -0.086 HD
ENDROOT
BRANCH  11  15
ATOM     15  C   UNL     1      -5.957   0.714   3.940  0.00  0.00    +0.040 A 
ATOM     16  C   UNL     1      -6.390   0.111   5.122  0.00  0.00    +0.025 A 
ATOM     17  C   UNL     1      -7.732  -0.143   5.314  0.00  0.00    +0.058 A 
ATOM     18  C   UNL     1      -8.651   0.199   4.338  0.00  0.00    +0.050 A 
ATOM     19  C   UNL     1      -8.229   0.797   3.161  0.00  0.00    +0.125 A 
ATOM     20  C   UNL     1      -6.888   1.062   2.960  0.00  0.00    +0.051 A 
ATOM     21  F   UNL     1      -9.132   1.128   2.212  0.00  0.00    -0.205 F 
BRANCH  17  22
ATOM     22  C   UNL     1      -8.199  -0.795   6.590  0.00  0.00    +0.418 C 
ATOM     23  F   UNL     1      -8.489   0.192   7.538  0.00  0.00    -0.166 F 
ATOM     24  F   UNL     1      -9.349  -1.549   6.335  0.00  0.00    -0.166 F 
ATOM     25  F   UNL     1      -7.192  -1.632   7.081  0.00  0.00    -0.166 F 
ENDBRANCH  17  22
ENDBRANCH  11  15
BRANCH   1  27
ATOM     26  N   UNL     1      -0.711  -2.681   2.384  0.00  0.00    -0.315 N 
ATOM     27  C   UNL     1      -1.507  -1.637   2.685  0.00  0.00    +0.218 C 
ATOM     28  O   UNL     1      -2.108  -1.058   1.804  0.00  0.00    -0.275 OA
ATOM     29  H   UNL     1      -0.230  -3.144   3.088  0.00  0.00    +0.149 HD
BRANCH  26  30
ATOM     30  C   UNL     1      -0.571  -3.118   0.992  0.00  0.00    +0.108 C 
BRANCH  30  32
ATOM     31  C   UNL     1       1.752  -3.903   1.472  0.00  0.00    +0.010 C 
ATOM     32  C   UNL     1       0.382  -4.313   0.926  0.00  0.00    -0.034 C 
ATOM     33  C   UNL     1      -0.179  -5.461   1.768  0.00  0.00    +0.010 C 
BRANCH  32  34
ATOM     34  C   UNL     1       0.528  -4.769  -0.527  0.00  0.00    -0.072 C 
BRANCH  34  35
ATOM     35  N   UNL     1       1.349  -5.987  -0.578  0.00  0.00    +0.376 N 
ATOM     36  C   UNL     1       0.497  -7.162  -0.349  0.00  0.00    -0.097 C 
ATOM     37  C   UNL     1       1.987  -6.093  -1.897  0.00  0.00    -0.097 C 
ATOM     38  H   UNL     1       2.060  -5.943   0.137  0.00  0.00    -0.083 HD
ENDBRANCH  34  35
ENDBRANCH  32  34
ENDBRANCH  30  32
ENDBRANCH  26  30
ENDBRANCH   1  27
TORSDOF 7
