REMARK  Name = ZINC63831433
REMARK  10 active torsions:
REMARK  status: ('A' for Active; 'I' for Inactive)
REMARK    1  A    between atoms: C_1  and  C_2
REMARK    2  A    between atoms: C_2  and  C_4
REMARK    3  A    between atoms: C_2  and  S_16
REMARK    4  A    between atoms: N_6  and  C_7
REMARK    5  A    between atoms: C_7  and  C_8
REMARK    6  A    between atoms: C_13  and  O_14
REMARK    7  A    between atoms: O_14  and  C_15
REMARK    8  A    between atoms: S_16  and  C_17
REMARK    9  A    between atoms: C_20  and  C_25
REMARK   10  A    between atoms: N_21  and  C_22
REMARK                            x       y       z     vdW  Elec       q    Type
REMARK                         _______ _______ _______ _____ _____    ______ ____
ROOT
ATOM      1  C   UNL     1      -0.075   0.161  -2.847  0.00  0.00    +0.193 A 
ATOM      2  N   UNL     1      -1.255   0.749  -2.713  0.00  0.00    -0.122 NA
ATOM      3  N   UNL     1      -1.894   0.717  -3.828  0.00  0.00    -0.129 NA
ATOM      4  C   UNL     1      -1.161   0.105  -4.747  0.00  0.00    +0.163 A 
ATOM      5  N   UNL     1       0.026  -0.261  -4.138  0.00  0.00    -0.299 N 
ENDROOT
BRANCH   4   6
ATOM      6  C   UNL     1      -1.519  -0.124  -6.085  0.00  0.00    +0.025 C 
ATOM      7  C   UNL     1      -2.706   0.248  -6.716  0.00  0.00    +0.006 A 
ATOM      8  C   UNL     1      -3.857   0.926  -6.259  0.00  0.00    +0.010 A 
ATOM      9  C   UNL     1      -4.886   1.157  -7.114  0.00  0.00    +0.001 A 
ATOM     10  C   UNL     1      -4.839   0.738  -8.445  0.00  0.00    +0.002 A 
ATOM     11  C   UNL     1      -3.766   0.082  -8.951  0.00  0.00    +0.026 A 
ATOM     12  C   UNL     1      -2.651  -0.195  -8.119  0.00  0.00    +0.043 A 
ATOM     13  N   UNL     1      -1.509  -0.807  -8.365  0.00  0.00    -0.380 N 
ATOM     14  C   UNL     1      -0.695  -0.820  -7.146  0.00  0.00    +0.152 C 
ATOM     15  H   UNL     1      -1.247  -1.184  -9.219  0.00  0.00    +0.160 HD
ENDBRANCH   4   6
BRANCH   5  16
ATOM     16  C   UNL     1       1.157  -0.960  -4.753  0.00  0.00    +0.091 C 
ATOM     17  C   UNL     1       2.182  -1.606  -3.818  0.00  0.00    +0.027 C 
ATOM     18  C   UNL     1       2.545  -0.337  -4.592  0.00  0.00    +0.027 C 
ENDBRANCH   5  16
BRANCH   1  19
ATOM     19  S   UNL     1       1.142  -0.033  -1.588  0.00  0.00    -0.074 S 
BRANCH  19  21
ATOM     20  C   UNL     1       0.209   2.236  -0.378  0.00  0.00    +0.029 C 
ATOM     21  C   UNL     1       0.390   0.737  -0.128  0.00  0.00    +0.137 C 
BRANCH  21  22
ATOM     22  C   UNL     1       1.285   0.531   1.066  0.00  0.00    +0.226 C 
ATOM     23  O   UNL     1       2.475   0.354   0.908  0.00  0.00    -0.275 OA
ATOM     24  N   UNL     1       0.765   0.544   2.309  0.00  0.00    -0.310 N 
ATOM     25  H   UNL     1      -0.186   0.686   2.435  0.00  0.00    +0.149 HD
BRANCH  24  26
ATOM     26  C   UNL     1       1.636   0.344   3.470  0.00  0.00    +0.143 C 
BRANCH  26  27
ATOM     27  C   UNL     1       0.813   0.404   4.731  0.00  0.00    +0.011 A 
ATOM     28  C   UNL     1       0.784   1.562   5.484  0.00  0.00    +0.009 A 
ATOM     29  C   UNL     1       0.030   1.617   6.641  0.00  0.00    +0.001 A 
ATOM     30  C   UNL     1      -0.698   0.514   7.048  0.00  0.00    +0.004 A 
ATOM     31  C   UNL     1      -0.672  -0.646   6.299  0.00  0.00    +0.046 A 
ATOM     32  C   UNL     1       0.080  -0.702   5.135  0.00  0.00    +0.125 A 
BRANCH  32  33
ATOM     33  O   UNL     1       0.102  -1.841   4.393  0.00  0.00    -0.495 OA
ATOM     34  C   UNL     1      -0.677  -2.940   4.868  0.00  0.00    +0.277 C 
ENDBRANCH  32  33
ENDBRANCH  26  27
ENDBRANCH  24  26
ENDBRANCH  21  22
ENDBRANCH  19  21
ENDBRANCH   1  19
TORSDOF 8
