REMARK  Name = ZINC39762208
REMARK  14 active torsions:
REMARK  status: ('A' for Active; 'I' for Inactive)
REMARK    1  A    between atoms: C_1  and  C_2
REMARK    2  A    between atoms: C_2  and  C_3
REMARK    3  A    between atoms: C_3  and  C_5
REMARK    4  A    between atoms: C_3  and  S_17
REMARK    5  A    between atoms: N_7  and  C_8
REMARK    6  A    between atoms: C_11  and  N_14
REMARK    7  A    between atoms: S_17  and  C_18
REMARK    8  A    between atoms: C_21  and  C_24
REMARK    9  A    between atoms: N_22  and  C_23
REMARK   10  A    between atoms: C_24  and  C_25
REMARK   11  A    between atoms: C_25  and  N_26
REMARK   12  A    between atoms: C_27  and  C_29
REMARK   13  A    between atoms: C_34  and  O_35
REMARK   14  A    between atoms: O_35  and  C_36
REMARK                            x       y       z     vdW  Elec       q    Type
REMARK                         _______ _______ _______ _____ _____    ______ ____
ROOT
ATOM      1  C   UNL     1      -1.709   1.856  -1.298  0.00  0.00    +0.192 A 
ATOM      2  N   UNL     1      -0.983   2.445  -0.377  0.00  0.00    -0.122 NA
ATOM      3  N   UNL     1      -1.020   3.719  -0.539  0.00  0.00    -0.133 NA
ATOM      4  C   UNL     1      -1.765   4.018  -1.565  0.00  0.00    +0.135 A 
ATOM      5  N   UNL     1      -2.227   2.842  -2.089  0.00  0.00    -0.309 N 
ATOM      6  C   UNL     1      -3.098   2.675  -3.255  0.00  0.00    +0.152 C 
ENDROOT
BRANCH   1   7
ATOM      7  S   UNL     1      -1.962   0.123  -1.485  0.00  0.00    -0.073 S 
BRANCH   7   8
ATOM      8  C   UNL     1      -1.137  -0.599  -0.040  0.00  0.00    +0.140 C 
BRANCH   8   9
ATOM      9  C   UNL     1      -1.908  -0.247   1.207  0.00  0.00    +0.231 C 
ATOM     10  O   UNL     1      -3.092   0.007   1.137  0.00  0.00    -0.274 OA
ATOM     11  N   UNL     1      -1.281  -0.213   2.400  0.00  0.00    -0.285 N 
ATOM     12  H   UNL     1      -0.352  -0.483   2.467  0.00  0.00    +0.155 HD
BRANCH  11  13
ATOM     13  C   UNL     1      -1.971   0.211   3.541  0.00  0.00    +0.034 A 
ATOM     14  C   UNL     1      -1.310   0.936   4.524  0.00  0.00    +0.025 A 
ATOM     15  C   UNL     1      -1.994   1.354   5.649  0.00  0.00    +0.034 A 
ATOM     16  C   UNL     1      -3.335   1.051   5.797  0.00  0.00    +0.126 A 
ATOM     17  C   UNL     1      -3.996   0.329   4.820  0.00  0.00    +0.034 A 
ATOM     18  C   UNL     1      -3.319  -0.086   3.690  0.00  0.00    +0.025 A 
BRANCH  16  19
ATOM     19  N   UNL     1      -4.064   1.500   7.004  0.00  0.00    +0.056 N 
ATOM     20  O   UNL     1      -3.488   2.131   7.859  0.00  0.00    -0.126 OA
ATOM     21  O   UNL     1      -5.237   1.236   7.135  0.00  0.00    -0.126 OA
ENDBRANCH  16  19
ENDBRANCH  11  13
ENDBRANCH   8   9
BRANCH   8  23
ATOM     22  C   UNL     1      -0.184  -2.482  -1.377  0.00  0.00    +0.005 C 
ATOM     23  C   UNL     1      -1.081  -2.121  -0.191  0.00  0.00    +0.020 C 
ENDBRANCH   8  23
ENDBRANCH   7   8
ENDBRANCH   1   7
BRANCH   4  24
ATOM     24  C   UNL     1      -2.060   5.402  -2.081  0.00  0.00    +0.095 C 
BRANCH  24  25
ATOM     25  C   UNL     1      -1.005   5.795  -3.118  0.00  0.00    +0.112 C 
BRANCH  25  26
ATOM     26  N   UNL     1      -1.292   7.141  -3.620  0.00  0.00    -0.311 N 
ATOM     27  C   UNL     1      -0.489   7.699  -4.549  0.00  0.00    +0.248 C 
ATOM     28  O   UNL     1       0.472   7.084  -4.970  0.00  0.00    -0.270 OA
ATOM     29  H   UNL     1      -2.059   7.631  -3.285  0.00  0.00    +0.149 HD
BRANCH  27  30
ATOM     30  C   UNL     1      -0.778   9.054  -5.055  0.00  0.00    +0.078 A 
ATOM     31  C   UNL     1      -1.878   9.766  -4.570  0.00  0.00    +0.017 A 
ATOM     32  C   UNL     1      -2.142  11.031  -5.046  0.00  0.00    +0.001 A 
ATOM     33  C   UNL     1      -1.320  11.603  -6.005  0.00  0.00    +0.004 A 
ATOM     34  C   UNL     1      -0.230  10.911  -6.492  0.00  0.00    +0.046 A 
ATOM     35  C   UNL     1       0.054   9.638  -6.020  0.00  0.00    +0.132 A 
BRANCH  35  36
ATOM     36  O   UNL     1       1.128   8.958  -6.495  0.00  0.00    -0.494 OA
ATOM     37  C   UNL     1       1.929   9.617  -7.478  0.00  0.00    +0.277 C 
ENDBRANCH  35  36
ENDBRANCH  27  30
ENDBRANCH  25  26
ENDBRANCH  24  25
ENDBRANCH   4  24
TORSDOF 11
