REMARK  Name = ZINC60221099
REMARK  7 active torsions:
REMARK  status: ('A' for Active; 'I' for Inactive)
REMARK    1  A    between atoms: C_1  and  C_2
REMARK    2  A    between atoms: N_11  and  C_15
REMARK    3  A    between atoms: C_15  and  C_16
REMARK    4  A    between atoms: N_18  and  C_19
REMARK    5  A    between atoms: C_22  and  C_25
REMARK    6  A    between atoms: C_25  and  C_26
REMARK    7  A    between atoms: C_26  and  N_27
REMARK                            x       y       z     vdW  Elec       q    Type
REMARK                         _______ _______ _______ _____ _____    ______ ____
ROOT
ATOM      1  C   UNL     1       1.288   0.364   5.408  0.00  0.00    +0.235 C 
ATOM      2  O   UNL     1       1.574  -0.796   5.195  0.00  0.00    -0.274 OA
ATOM      3  N   UNL     1       1.275   0.834   6.671  0.00  0.00    -0.284 N 
ATOM      4  H   UNL     1       1.114   1.776   6.836  0.00  0.00    +0.155 HD
ENDROOT
BRANCH   3   5
ATOM      5  C   UNL     1       1.495  -0.037   7.744  0.00  0.00    +0.033 A 
ATOM      6  C   UNL     1       0.819   0.151   8.942  0.00  0.00    +0.023 A 
ATOM      7  C   UNL     1       1.038  -0.710  10.000  0.00  0.00    +0.005 A 
ATOM      8  C   UNL     1       1.929  -1.759   9.866  0.00  0.00    -0.049 A 
ATOM      9  C   UNL     1       2.604  -1.949   8.674  0.00  0.00    +0.005 A 
ATOM     10  C   UNL     1       2.385  -1.095   7.611  0.00  0.00    +0.023 A 
BRANCH   8  11
ATOM     11  C   UNL     1       2.166  -2.697  11.021  0.00  0.00    +0.016 C 
BRANCH  11  12
ATOM     12  C   UNL     1       1.177  -3.862  10.943  0.00  0.00    -0.074 C 
BRANCH  12  13
ATOM     13  N   UNL     1       1.350  -4.730  12.115  0.00  0.00    +0.381 N 
ATOM     14  C   UNL     1       0.548  -5.942  11.937  0.00  0.00    -0.068 C 
ATOM     15  C   UNL     1       0.990  -7.012  12.943  0.00  0.00    +0.050 C 
ATOM     16  S   UNL     1       0.689  -6.376  14.621  0.00  0.00    -0.164 S 
ATOM     17  C   UNL     1       1.458  -4.727  14.566  0.00  0.00    +0.050 C 
ATOM     18  C   UNL     1       0.946  -3.999  13.318  0.00  0.00    -0.068 C 
ATOM     19  H   UNL     1       2.323  -4.987  12.195  0.00  0.00    -0.082 HD
ENDBRANCH  12  13
ENDBRANCH  11  12
ENDBRANCH   8  11
ENDBRANCH   3   5
BRANCH   1  20
ATOM     20  C   UNL     1       0.948   1.279   4.260  0.00  0.00    +0.214 C 
BRANCH  20  30
ATOM     21  C   UNL     1      -0.057   1.332  -0.081  0.00  0.00    +0.010 C 
ATOM     22  C   UNL     1      -0.193  -0.191  -0.042  0.00  0.00    +0.018 C 
ATOM     23  C   UNL     1       0.404  -0.789  -1.319  0.00  0.00    +0.006 C 
ATOM     24  C   UNL     1       0.287  -2.314  -1.270  0.00  0.00    +0.000 C 
ATOM     25  C   UNL     1       1.055  -2.848  -0.059  0.00  0.00    +0.003 C 
ATOM     26  C   UNL     1       0.461  -2.258   1.222  0.00  0.00    +0.035 C 
ATOM     27  C   UNL     1       0.551  -0.737   1.172  0.00  0.00    +0.115 C 
ATOM     28  C   UNL     1       0.001  -0.133   2.443  0.00  0.00    +0.247 C 
ATOM     29  O   UNL     1      -1.129  -0.228   2.872  0.00  0.00    -0.273 OA
ATOM     30  N   UNL     1       1.033   0.535   3.001  0.00  0.00    -0.215 N 
ATOM     31  C   UNL     1       2.144   0.433   2.260  0.00  0.00    +0.310 C 
ATOM     32  O   UNL     1       3.203   0.950   2.557  0.00  0.00    -0.252 OA
ATOM     33  N   UNL     1       1.955  -0.306   1.150  0.00  0.00    -0.285 N 
ATOM     34  H   UNL     1       2.616  -0.513   0.471  0.00  0.00    +0.151 HD
ENDBRANCH  20  30
ENDBRANCH   1  20
TORSDOF 6
