REMARK  Name = ZINC35494006
REMARK  12 active torsions:
REMARK  status: ('A' for Active; 'I' for Inactive)
REMARK    1  A    between atoms: C_1  and  C_2
REMARK    2  A    between atoms: C_2  and  C_4
REMARK    3  A    between atoms: C_8  and  C_40
REMARK    4  A    between atoms: C_17  and  C_39
REMARK    5  A    between atoms: C_20  and  O_35
REMARK    6  A    between atoms: C_22  and  C_33
REMARK    7  A    between atoms: C_22  and  C_34
REMARK    8  A    between atoms: C_27  and  C_32
REMARK    9  A    between atoms: C_28  and  C_31
REMARK   10  A    between atoms: O_35  and  C_36
REMARK   11  A    between atoms: C_36  and  C_38
REMARK   12  A    between atoms: C_40  and  O_41
REMARK                            x       y       z     vdW  Elec       q    Type
REMARK                         _______ _______ _______ _____ _____    ______ ____
ROOT
ATOM      1  C   UNL     1      -2.667  -0.381   1.071  0.00  0.00    +0.018 C 
ATOM      2  C   UNL     1      -3.493  -0.164   2.352  0.00  0.00    +0.009 C 
ATOM      3  C   UNL     1      -4.950   0.032   1.875  0.00  0.00    +0.010 C 
ATOM      4  C   UNL     1      -4.770   0.737   0.513  0.00  0.00    -0.002 C 
ATOM      5  C   UNL     1      -3.567   0.041  -0.127  0.00  0.00    +0.008 C 
ATOM      6  C   UNL     1      -3.958  -1.257  -0.827  0.00  0.00    -0.000 C 
ATOM      7  C   UNL     1      -2.728  -1.860  -1.503  0.00  0.00    +0.005 C 
ATOM      8  C   UNL     1      -2.397  -1.130  -2.806  0.00  0.00    +0.005 C 
ATOM      9  C   UNL     1      -3.608  -1.200  -3.732  0.00  0.00    +0.002 C 
ATOM     10  C   UNL     1      -3.262  -0.738  -5.147  0.00  0.00    -0.025 C 
ATOM     11  C   UNL     1      -2.242  -1.736  -5.734  0.00  0.00    +0.011 C 
ATOM     12  C   UNL     1      -1.904  -1.327  -7.163  0.00  0.00    +0.046 C 
ATOM     13  C   UNL     1      -3.140  -1.379  -8.049  0.00  0.00    +0.182 C 
ATOM     14  C   UNL     1      -4.315  -0.581  -7.485  0.00  0.00    +0.005 C 
ATOM     15  C   UNL     1      -4.518  -0.814  -6.005  0.00  0.00    +0.004 C 
ATOM     16  C   UNL     1      -5.633   0.039  -5.405  0.00  0.00    +0.005 C 
ATOM     17  C   UNL     1      -6.010  -0.569  -4.044  0.00  0.00    +0.008 C 
ATOM     18  C   UNL     1      -4.803  -0.497  -3.102  0.00  0.00    -0.023 C 
ATOM     19  C   UNL     1      -5.142  -1.166  -1.767  0.00  0.00    -0.023 C 
ATOM     20  C   UNL     1      -6.338  -0.517  -1.085  0.00  0.00    +0.008 C 
ATOM     21  C   UNL     1      -6.039   0.731  -0.295  0.00  0.00    +0.010 C 
ATOM     22  C   UNL     1      -5.580  -2.628  -2.056  0.00  0.00    +0.012 C 
ATOM     23  C   UNL     1      -4.516   0.988  -2.852  0.00  0.00    +0.012 C 
ATOM     24  C   UNL     1      -5.579  -1.087  -8.227  0.00  0.00    +0.015 C 
ATOM     25  C   UNL     1      -4.159   0.898  -7.841  0.00  0.00    +0.015 C 
ATOM     26  C   UNL     1      -2.606   0.635  -5.149  0.00  0.00    +0.012 C 
ENDROOT
BRANCH   1  28
ATOM     27  C   UNL     1      -1.504   1.948   1.273  0.00  0.00    +0.039 C 
ATOM     28  C   UNL     1      -1.411   0.452   1.110  0.00  0.00    -0.076 C 
ATOM     29  C   UNL     1      -0.240  -0.124   1.001  0.00  0.00    +0.007 C 
ENDBRANCH   1  28
BRANCH  13  30
ATOM     30  O   UNL     1      -2.810  -0.860  -9.345  0.00  0.00    -0.461 OA
BRANCH  30  31
ATOM     31  C   UNL     1      -2.366  -1.739 -10.258  0.00  0.00    +0.304 C 
ATOM     32  O   UNL     1      -2.259  -2.907  -9.970  0.00  0.00    -0.251 OA
ATOM     33  C   UNL     1      -2.000  -1.267 -11.642  0.00  0.00    +0.136 C 
ENDBRANCH  30  31
ENDBRANCH  13  30
BRANCH   4  34
ATOM     34  C   UNL     1      -4.403   2.208   0.786  0.00  0.00    +0.163 C 
BRANCH  34  35
ATOM     35  O   UNL     1      -5.513   2.872   1.393  0.00  0.00    -0.394 OA
ATOM     36  H   UNL     1      -5.353   3.804   1.593  0.00  0.00    +0.209 HD
ENDBRANCH  34  35
ENDBRANCH   4  34
TORSDOF 5
