REMARK  Name = ZINC04683649
REMARK  8 active torsions:
REMARK  status: ('A' for Active; 'I' for Inactive)
REMARK    1  A    between atoms: C_1  and  C_2
REMARK    2  A    between atoms: C_2  and  C_3
REMARK    3  A    between atoms: C_3  and  N_4
REMARK    4  A    between atoms: N_4  and  C_5
REMARK    5  A    between atoms: N_4  and  C_9
REMARK    6  A    between atoms: C_5  and  C_6
REMARK    7  A    between atoms: C_12  and  N_18
REMARK    8  A    between atoms: C_14  and  N_15
REMARK                            x       y       z     vdW  Elec       q    Type
REMARK                         _______ _______ _______ _____ _____    ______ ____
ROOT
ATOM      1  C   UNL     1       0.040  -2.350   1.981  0.00  0.00    +0.060 A 
ATOM      2  C   UNL     1      -1.133  -2.884   1.462  0.00  0.00    +0.027 A 
ATOM      3  C   UNL     1      -2.006  -3.564   2.287  0.00  0.00    +0.026 A 
ATOM      4  C   UNL     1      -1.712  -3.714   3.636  0.00  0.00    +0.046 A 
ATOM      5  C   UNL     1      -0.541  -3.181   4.155  0.00  0.00    +0.058 A 
ATOM      6  C   UNL     1       0.336  -2.506   3.329  0.00  0.00    +0.149 A 
ENDROOT
BRANCH   4   7
ATOM      7  N   UNL     1      -2.601  -4.405   4.474  0.00  0.00    -0.210 N 
ATOM      8  C   UNL     1      -2.329  -4.680   5.762  0.00  0.00    +0.230 C 
ATOM      9  O   UNL     1      -1.387  -4.258   6.399  0.00  0.00    -0.275 OA
ATOM     10  C   UNL     1      -3.417  -5.618   6.280  0.00  0.00    +0.088 C 
ATOM     11  C   UNL     1      -2.856  -7.027   6.286  0.00  0.00    +0.013 C 
ATOM     12  C   UNL     1      -3.941  -8.088   6.165  0.00  0.00    +0.001 C 
ATOM     13  C   UNL     1      -4.702  -7.858   4.855  0.00  0.00    +0.001 C 
ATOM     14  C   UNL     1      -5.441  -6.529   4.962  0.00  0.00    +0.013 C 
ATOM     15  C   UNL     1      -4.538  -5.361   5.282  0.00  0.00    +0.088 C 
ATOM     16  C   UNL     1      -3.804  -4.848   4.063  0.00  0.00    +0.230 C 
ATOM     17  O   UNL     1      -4.222  -4.838   2.925  0.00  0.00    -0.275 OA
ENDBRANCH   4   7
BRANCH   6  18
ATOM     18  N   UNL     1       1.588  -1.942   3.882  0.00  0.00    +0.058 N 
ATOM     19  O   UNL     1       1.896  -2.163   5.030  0.00  0.00    -0.126 OA
ATOM     20  O   UNL     1       2.304  -1.260   3.185  0.00  0.00    -0.126 OA
ENDBRANCH   6  18
BRANCH   1  21
ATOM     21  N   UNL     1       0.924  -1.660   1.146  0.00  0.00    -0.328 N 
BRANCH  21  22
ATOM     22  C   UNL     1       1.869  -2.402   0.308  0.00  0.00    +0.105 C 
BRANCH  22  24
ATOM     23  C   UNL     1       4.158  -3.397   0.203  0.00  0.00    +0.005 C 
ATOM     24  C   UNL     1       3.172  -2.622   1.079  0.00  0.00    +0.015 C 
ENDBRANCH  22  24
ENDBRANCH  21  22
BRANCH  21  25
ATOM     25  C   UNL     1       0.906  -0.196   1.109  0.00  0.00    +0.108 C 
BRANCH  25  26
ATOM     26  C   UNL     1       0.023   0.275  -0.048  0.00  0.00    +0.006 C 
ATOM     27  C   UNL     1       0.707   0.999  -1.210  0.00  0.00    +0.005 C 
ATOM     28  C   UNL     1      -0.164   1.783  -0.226  0.00  0.00    +0.005 C 
ENDBRANCH  25  26
ENDBRANCH  21  25
ENDBRANCH   1  21
TORSDOF 7
