REMARK  Name = ZINC12488398
REMARK  5 active torsions:
REMARK  status: ('A' for Active; 'I' for Inactive)
REMARK    1  A    between atoms: C_1  and  N_2
REMARK    2  A    between atoms: N_2  and  C_3
REMARK    3  A    between atoms: C_6  and  C_11
REMARK    4  A    between atoms: C_11  and  S_12
REMARK    5  A    between atoms: S_12  and  C_13
REMARK                            x       y       z     vdW  Elec       q    Type
REMARK                         _______ _______ _______ _____ _____    ______ ____
ROOT
ATOM      1  C   UNL     1      -0.068  -2.783  -0.011  0.00  0.00    +0.132 C 
ATOM      2  N   UNL     1       1.187  -2.029  -0.020  0.00  0.00    -0.306 N 
ATOM      3  C   UNL     1       2.469  -2.739  -0.036  0.00  0.00    +0.132 C 
ATOM      4  C   UNL     1       1.163  -0.649  -0.013  0.00  0.00    +0.222 A 
ATOM      5  N   UNL     1       2.304   0.037  -0.020  0.00  0.00    -0.198 NA
ATOM      6  C   UNL     1       2.282   1.359  -0.012  0.00  0.00    +0.146 A 
ATOM      7  N   UNL     1       1.129   2.004   0.002  0.00  0.00    -0.199 NA
ATOM      8  C   UNL     1      -0.016   1.325   0.009  0.00  0.00    +0.217 A 
ATOM      9  N   UNL     1       0.002  -0.004   0.002  0.00  0.00    -0.181 NA
ATOM     10  N   UNL     1      -1.220   1.999   0.019  0.00  0.00    -0.327 N 
ATOM     11  H   UNL     1      -2.054   1.503   0.020  0.00  0.00    +0.145 HD
ATOM     12  H   UNL     1      -1.232   2.969   0.024  0.00  0.00    +0.145 HD
ENDROOT
BRANCH   6  13
ATOM     13  C   UNL     1       3.575   2.132  -0.021  0.00  0.00    +0.150 C 
BRANCH  13  14
ATOM     14  S   UNL     1       4.078   2.451  -1.734  0.00  0.00    -0.117 S 
BRANCH  14  15
ATOM     15  C   UNL     1       5.585   3.350  -1.576  0.00  0.00    +0.008 A 
ATOM     16  C   UNL     1       6.091   3.645  -0.315  0.00  0.00    +0.016 A 
ATOM     17  C   UNL     1       7.275   4.345  -0.194  0.00  0.00    +0.021 A 
ATOM     18  C   UNL     1       7.952   4.763  -1.327  0.00  0.00    +0.041 A 
ATOM     19  C   UNL     1       7.448   4.475  -2.583  0.00  0.00    +0.021 A 
ATOM     20  C   UNL     1       6.268   3.771  -2.711  0.00  0.00    +0.016 A 
ATOM     21 CL   UNL     1       9.437   5.648  -1.171  0.00  0.00    -0.084 Cl
ENDBRANCH  14  15
ENDBRANCH  13  14
ENDBRANCH   6  13
TORSDOF 3
