REMARK  Name = ZINC63154464
REMARK  4 active torsions:
REMARK  status: ('A' for Active; 'I' for Inactive)
REMARK    1  A    between atoms: C_4  and  C_10
REMARK    2  A    between atoms: C_6  and  N_7
REMARK    3  A    between atoms: N_12  and  C_13
REMARK    4  A    between atoms: C_13  and  C_14
REMARK                            x       y       z     vdW  Elec       q    Type
REMARK                         _______ _______ _______ _____ _____    ______ ____
ROOT
ATOM      1  C   UNL     1      -0.017   1.380   0.010  0.00  0.00    +0.035 A 
ATOM      2  C   UNL     1       1.167   2.094   0.002  0.00  0.00    +0.041 A 
ATOM      3  C   UNL     1       2.379   1.429  -0.013  0.00  0.00    +0.136 A 
ATOM      4  C   UNL     1       2.404   0.031  -0.021  0.00  0.00    +0.074 A 
ATOM      5  C   UNL     1       1.203  -0.682  -0.013  0.00  0.00    +0.048 A 
ATOM      6  C   UNL     1       0.002  -0.004   0.002  0.00  0.00    +0.127 A 
ATOM      7  F   UNL     1       3.535   2.127  -0.022  0.00  0.00    -0.205 F 
ENDROOT
BRANCH   4   8
ATOM      8  C   UNL     1       3.693  -0.689  -0.038  0.00  0.00    +0.247 C 
ATOM      9  O   UNL     1       4.737  -0.065  -0.046  0.00  0.00    -0.270 OA
ATOM     10  N   UNL     1       3.713  -2.036  -0.046  0.00  0.00    -0.307 N 
ATOM     11  H   UNL     1       2.881  -2.534  -0.040  0.00  0.00    +0.149 HD
BRANCH  10  12
ATOM     12  C   UNL     1       4.993  -2.750  -0.063  0.00  0.00    +0.140 C 
BRANCH  12  13
ATOM     13  C   UNL     1       4.739  -4.235  -0.068  0.00  0.00    -0.023 A 
ATOM     14  C   UNL     1       4.628  -4.932   1.120  0.00  0.00    +0.013 A 
ATOM     15  C   UNL     1       4.400  -6.268   1.080  0.00  0.00    +0.045 A 
ATOM     16  S   UNL     1       4.335  -6.579  -0.676  0.00  0.00    -0.105 S 
ATOM     17  C   UNL     1       4.611  -4.907  -1.239  0.00  0.00    +0.050 A 
ENDBRANCH  12  13
ENDBRANCH  10  12
ENDBRANCH   4   8
BRANCH   6  18
ATOM     18  N   UNL     1      -1.271  -0.759   0.010  0.00  0.00    +0.056 N 
ATOM     19  O   UNL     1      -2.325  -0.167   0.023  0.00  0.00    -0.126 OA
ATOM     20  O   UNL     1      -1.257  -1.968   0.004  0.00  0.00    -0.126 OA
ENDBRANCH   6  18
TORSDOF 4
