REMARK  Name = ZINC35743900
REMARK  12 active torsions:
REMARK  status: ('A' for Active; 'I' for Inactive)
REMARK    1  A    between atoms: C_1  and  C_2
REMARK    2  A    between atoms: C_3  and  C_31
REMARK    3  A    between atoms: C_4  and  C_11
REMARK    4  A    between atoms: N_9  and  C_10
REMARK    5  A    between atoms: C_14  and  N_17
REMARK    6  A    between atoms: C_18  and  C_20
REMARK    7  A    between atoms: C_21  and  C_22
REMARK    8  A    between atoms: C_25  and  N_28
REMARK    9  A    between atoms: C_31  and  O_33
REMARK   10  A    between atoms: O_33  and  C_34
REMARK   11  A    between atoms: C_34  and  C_35
REMARK   12  A    between atoms: C_34  and  C_36
REMARK                            x       y       z     vdW  Elec       q    Type
REMARK                         _______ _______ _______ _____ _____    ______ ____
ROOT
ATOM      1  C   UNL     1      -2.055  -2.369  -1.107  0.00  0.00    -0.022 A 
ATOM      2  C   UNL     1      -1.680  -2.133  -2.416  0.00  0.00    +0.007 A 
ATOM      3  C   UNL     1      -2.543  -2.440  -3.450  0.00  0.00    +0.023 A 
ATOM      4  C   UNL     1      -3.789  -2.987  -3.172  0.00  0.00    +0.034 A 
ATOM      5  C   UNL     1      -4.163  -3.223  -1.856  0.00  0.00    +0.023 A 
ATOM      6  C   UNL     1      -3.293  -2.919  -0.827  0.00  0.00    +0.007 A 
ENDROOT
BRANCH   1  10
ATOM      7  C   UNL     1      -0.133   1.673   0.431  0.00  0.00    +0.061 C 
ATOM      8  C   UNL     1      -0.079   0.189   0.178  0.00  0.00    +0.021 C 
ATOM      9  C   UNL     1      -1.209  -0.544   0.282  0.00  0.00    +0.078 C 
ATOM     10  C   UNL     1      -1.111  -2.033   0.018  0.00  0.00    +0.141 C 
ATOM     11  N   UNL     1       0.218  -2.562  -0.332  0.00  0.00    -0.315 N 
ATOM     12  C   UNL     1       1.254  -1.702  -0.397  0.00  0.00    +0.137 C 
ATOM     13  S   UNL     1       2.805  -2.303  -0.803  0.00  0.00    -0.018 S 
ATOM     14  N   UNL     1       1.109  -0.392  -0.159  0.00  0.00    -0.289 N 
ATOM     15  C   UNL     1       2.293   0.464  -0.260  0.00  0.00    +0.137 C 
ATOM     16  H   UNL     1       0.346  -3.507  -0.512  0.00  0.00    +0.149 HD
BRANCH   9  17
ATOM     17  C   UNL     1      -2.442   0.057   0.626  0.00  0.00    +0.339 C 
ATOM     18  O   UNL     1      -2.497   1.255   0.833  0.00  0.00    -0.245 OA
BRANCH  17  19
ATOM     19  O   UNL     1      -3.557  -0.697   0.724  0.00  0.00    -0.459 OA
BRANCH  19  20
ATOM     20  C   UNL     1      -4.767  -0.023   1.075  0.00  0.00    +0.171 C 
ATOM     21  C   UNL     1      -5.477   0.447  -0.197  0.00  0.00    +0.052 C 
ATOM     22  C   UNL     1      -5.679  -0.981   1.844  0.00  0.00    +0.052 C 
ENDBRANCH  19  20
ENDBRANCH  17  19
ENDBRANCH   9  17
ENDBRANCH   1  10
BRANCH   4  23
ATOM     23  N   UNL     1      -4.666  -3.299  -4.216  0.00  0.00    -0.282 N 
ATOM     24  C   UNL     1      -4.184  -3.770  -5.383  0.00  0.00    +0.241 C 
ATOM     25  O   UNL     1      -2.982  -3.864  -5.551  0.00  0.00    -0.270 OA
ATOM     26  H   UNL     1      -5.621  -3.176  -4.100  0.00  0.00    +0.155 HD
BRANCH  24  27
ATOM     27  C   UNL     1      -5.105  -4.168  -6.449  0.00  0.00    +0.068 C 
ATOM     28  C   UNL     1      -4.622  -4.639  -7.616  0.00  0.00    +0.013 C 
BRANCH  28  29
ATOM     29  C   UNL     1      -5.549  -5.039  -8.687  0.00  0.00    -0.025 A 
ATOM     30  C   UNL     1      -6.931  -4.927  -8.500  0.00  0.00    +0.010 A 
ATOM     31  C   UNL     1      -7.792  -5.304  -9.509  0.00  0.00    +0.033 A 
ATOM     32  C   UNL     1      -7.293  -5.793 -10.704  0.00  0.00    +0.126 A 
ATOM     33  C   UNL     1      -5.927  -5.907 -10.896  0.00  0.00    +0.033 A 
ATOM     34  C   UNL     1      -5.053  -5.529  -9.900  0.00  0.00    +0.010 A 
BRANCH  32  35
ATOM     35  N   UNL     1      -8.225  -6.196 -11.781  0.00  0.00    +0.056 N 
ATOM     36  O   UNL     1      -9.418  -6.098 -11.615  0.00  0.00    -0.126 OA
ATOM     37  O   UNL     1      -7.792  -6.623 -12.826  0.00  0.00    -0.126 OA
ENDBRANCH  32  35
ENDBRANCH  28  29
ENDBRANCH  24  27
ENDBRANCH   4  23
TORSDOF 8
