REMARK  Name = ZINC65227891
REMARK  6 active torsions:
REMARK  status: ('A' for Active; 'I' for Inactive)
REMARK    1  A    between atoms: C_1  and  C_2
REMARK    2  A    between atoms: C_2  and  C_4
REMARK    3  A    between atoms: C_2  and  N_10
REMARK    4  A    between atoms: C_11  and  C_13
REMARK    5  A    between atoms: C_21  and  C_26
REMARK    6  A    between atoms: C_28  and  C_31
REMARK                            x       y       z     vdW  Elec       q    Type
REMARK                         _______ _______ _______ _____ _____    ______ ____
ROOT
ATOM      1  C   UNL     1       0.802  -1.115   3.594  0.00  0.00    +0.092 C 
ATOM      2  C   UNL     1       1.956  -0.170   3.939  0.00  0.00    +0.016 C 
ATOM      3  C   UNL     1       2.713  -0.711   5.154  0.00  0.00    +0.020 C 
ATOM      4  C   UNL     1       1.764  -0.774   6.355  0.00  0.00    +0.106 C 
ATOM      5  N   UNL     1       0.581  -1.561   5.983  0.00  0.00    -0.315 N 
ATOM      6  C   UNL     1      -0.169  -1.183   4.777  0.00  0.00    +0.119 C 
ATOM      7  C   UNL     1       0.180  -2.642   6.754  0.00  0.00    +0.110 A 
ATOM      8  C   UNL     1      -0.657  -2.436   7.860  0.00  0.00    +0.060 A 
ATOM      9  C   UNL     1      -1.049  -3.537   8.622  0.00  0.00    +0.016 A 
ATOM     10  C   UNL     1      -0.591  -4.791   8.251  0.00  0.00    +0.018 A 
ATOM     11  C   UNL     1       0.232  -4.916   7.149  0.00  0.00    +0.084 A 
ATOM     12  N   UNL     1       0.585  -3.861   6.438  0.00  0.00    -0.349 N 
ATOM     13  H   UNL     1       1.161  -3.983   5.667  0.00  0.00    +0.167 HD
ENDROOT
BRANCH   8  14
ATOM     14  C   UNL     1      -1.118  -1.071   8.213  0.00  0.00    +0.205 A 
ATOM     15  N   UNL     1      -1.827  -0.741   9.308  0.00  0.00    -0.191 NA
ATOM     16  C   UNL     1      -2.066   0.539   9.315  0.00  0.00    +0.231 A 
ATOM     17  O   UNL     1      -1.518   1.080   8.219  0.00  0.00    -0.337 OA
ATOM     18  N   UNL     1      -0.898   0.015   7.513  0.00  0.00    -0.056 NA
BRANCH  16  19
ATOM     19  C   UNL     1      -2.832   1.286  10.376  0.00  0.00    +0.078 C 
ATOM     20  C   UNL     1      -3.719   2.412   9.819  0.00  0.00    +0.013 C 
ATOM     21  C   UNL     1      -3.280   3.250  11.031  0.00  0.00    +0.001 C 
ATOM     22  C   UNL     1      -2.010   2.384  11.072  0.00  0.00    +0.013 C 
ENDBRANCH  16  19
ENDBRANCH   8  14
BRANCH   1  24
ATOM     23  N   UNL     1       0.736  -0.453   1.211  0.00  0.00    -0.308 N 
ATOM     24  C   UNL     1       0.076  -0.599   2.378  0.00  0.00    +0.218 C 
ATOM     25  O   UNL     1      -1.101  -0.315   2.448  0.00  0.00    -0.275 OA
ATOM     26  H   UNL     1       1.677  -0.680   1.155  0.00  0.00    +0.149 HD
BRANCH  23  28
ATOM     27  C   UNL     1       0.026   1.578   0.048  0.00  0.00    +0.033 C 
ATOM     28  C   UNL     1       0.030   0.048   0.029  0.00  0.00    +0.100 C 
BRANCH  28  29
ATOM     29  C   UNL     1       0.729  -0.436  -1.216  0.00  0.00    -0.027 A 
ATOM     30  C   UNL     1       2.110  -0.471  -1.264  0.00  0.00    +0.005 A 
ATOM     31  C   UNL     1       2.751  -0.915  -2.405  0.00  0.00    +0.000 A 
ATOM     32  C   UNL     1       2.011  -1.325  -3.498  0.00  0.00    +0.000 A 
ATOM     33  C   UNL     1       0.630  -1.291  -3.450  0.00  0.00    +0.000 A 
ATOM     34  C   UNL     1      -0.011  -0.851  -2.307  0.00  0.00    +0.005 A 
ENDBRANCH  28  29
ENDBRANCH  23  28
ENDBRANCH   1  24
TORSDOF 5
