REMARK  Name = ZINC63407637
REMARK  10 active torsions:
REMARK  status: ('A' for Active; 'I' for Inactive)
REMARK    1  A    between atoms: C_1  and  C_2
REMARK    2  A    between atoms: C_2  and  C_3
REMARK    3  A    between atoms: C_2  and  C_4
REMARK    4  A    between atoms: C_4  and  C_5
REMARK    5  A    between atoms: C_5  and  C_6
REMARK    6  A    between atoms: C_5  and  N_7
REMARK    7  A    between atoms: N_7  and  C_8
REMARK    8  A    between atoms: N_11  and  C_12
REMARK    9  A    between atoms: N_15  and  C_18
REMARK   10  A    between atoms: C_18  and  C_19
REMARK                            x       y       z     vdW  Elec       q    Type
REMARK                         _______ _______ _______ _____ _____    ______ ____
ROOT
ATOM      1  C   UNL     1       1.951  -4.725   2.463  0.00  0.00    +0.071 C 
ATOM      2  C   UNL     1       1.500  -6.151   2.136  0.00  0.00    +0.004 C 
ATOM      3  C   UNL     1       2.664  -7.116   2.372  0.00  0.00    -0.077 C 
ATOM      4  N   UNL     1       3.085  -7.045   3.776  0.00  0.00    +0.380 N 
ATOM      5  C   UNL     1       3.587  -5.699   4.078  0.00  0.00    -0.077 C 
ATOM      6  C   UNL     1       2.458  -4.679   3.907  0.00  0.00    +0.004 C 
ATOM      7  H   UNL     1       2.299  -7.251   4.374  0.00  0.00    -0.082 HD
ENDROOT
BRANCH   1  12
ATOM      8  N   UNL     1      -0.511  -2.444   0.962  0.00  0.00    -0.286 N 
ATOM      9  C   UNL     1      -1.326  -2.087   2.127  0.00  0.00    +0.134 C 
ATOM     10  C   UNL     1       0.529  -3.289   1.102  0.00  0.00    +0.302 C 
ATOM     11  O   UNL     1       1.206  -3.585   0.136  0.00  0.00    -0.253 OA
ATOM     12  N   UNL     1       0.820  -3.806   2.312  0.00  0.00    -0.297 N 
ATOM     13  H   UNL     1       0.281  -3.570   3.083  0.00  0.00    +0.151 HD
BRANCH   8  14
ATOM     14  C   UNL     1      -0.827  -1.882  -0.353  0.00  0.00    +0.074 C 
ATOM     15  C   UNL     1      -2.217  -2.351  -0.787  0.00  0.00    +0.028 C 
BRANCH  14  16
ATOM     16  C   UNL     1      -0.807  -0.354  -0.273  0.00  0.00    +0.025 C 
BRANCH  16  18
ATOM     17  C   UNL     1       1.570  -0.223  -1.034  0.00  0.00    +0.007 C 
ATOM     18  C   UNL     1       0.600   0.118   0.100  0.00  0.00    -0.015 C 
ATOM     19  C   UNL     1       0.588   1.632   0.322  0.00  0.00    +0.007 C 
ENDBRANCH  16  18
ENDBRANCH  14  16
ENDBRANCH   8  14
ENDBRANCH   1  12
BRANCH   4  20
ATOM     20  C   UNL     1       4.150  -8.028   4.017  0.00  0.00    -0.075 C 
BRANCH  20  21
ATOM     21  C   UNL     1       3.586  -9.441   3.855  0.00  0.00    -0.028 C 
ATOM     22  C   UNL     1       2.564  -9.733   4.974  0.00  0.00    +0.002 C 
ATOM     23  C   UNL     1       2.797 -11.225   5.320  0.00  0.00    +0.000 C 
ATOM     24  C   UNL     1       4.336 -11.365   5.210  0.00  0.00    +0.000 C 
ATOM     25  C   UNL     1       4.712 -10.478   4.005  0.00  0.00    +0.002 C 
ENDBRANCH  20  21
ENDBRANCH   4  20
TORSDOF 6
