REMARK  Name = ZINC00607750
REMARK  6 active torsions:
REMARK  status: ('A' for Active; 'I' for Inactive)
REMARK    1  A    between atoms: C_1  and  C_2
REMARK    2  A    between atoms: C_2  and  C_3
REMARK    3  A    between atoms: C_2  and  C_4
REMARK    4  A    between atoms: C_4  and  C_5
REMARK    5  A    between atoms: C_11  and  S_18
REMARK    6  A    between atoms: S_18  and  N_21
REMARK                            x       y       z     vdW  Elec       q    Type
REMARK                         _______ _______ _______ _____ _____    ______ ____
ROOT
ATOM      1  C   UNL     1      -0.004  -4.894   1.052  0.00  0.00    +0.160 C 
ATOM      2  N   UNL     1       0.139  -3.953  -0.056  0.00  0.00    -0.326 N 
ATOM      3  C   UNL     1       0.217  -2.574   0.118  0.00  0.00    +0.056 A 
ATOM      4  C   UNL     1       0.793  -1.801  -0.889  0.00  0.00    +0.047 A 
ATOM      5  C   UNL     1       0.847  -0.427  -0.765  0.00  0.00    +0.069 A 
ATOM      6  C   UNL     1       0.340   0.191   0.365  0.00  0.00    +0.125 A 
ATOM      7  C   UNL     1      -0.226  -0.570   1.371  0.00  0.00    +0.060 A 
ATOM      8  C   UNL     1      -0.280  -1.943   1.251  0.00  0.00    +0.128 A 
ATOM      9  S   UNL     1      -0.972  -2.914   2.555  0.00  0.00    +0.062 S 
ATOM     10  O   UNL     1       0.007  -2.986   3.583  0.00  0.00    -0.153 OA
ATOM     11  O   UNL     1      -2.289  -2.431   2.779  0.00  0.00    -0.153 OA
ATOM     12  N   UNL     1      -1.117  -4.447   1.913  0.00  0.00    -0.170 NA
ATOM     13 CL   UNL     1       1.559   0.527  -2.028  0.00  0.00    -0.081 Cl
ATOM     14  H   UNL     1       0.182  -4.307  -0.958  0.00  0.00    +0.148 HD
ATOM     15  H   UNL     1      -1.887  -5.010   2.094  0.00  0.00    +0.150 HD
ENDROOT
BRANCH   6  16
ATOM     16  S   UNL     1       0.409   1.945   0.517  0.00  0.00    +0.057 S 
ATOM     17  O   UNL     1      -0.087   2.479  -0.703  0.00  0.00    -0.153 OA
ATOM     18  O   UNL     1      -0.164   2.267   1.777  0.00  0.00    -0.153 OA
BRANCH  16  19
ATOM     19  N   UNL     1       2.008   2.367   0.603  0.00  0.00    -0.203 NA
ATOM     20  H   UNL     1       2.693   1.681   0.565  0.00  0.00    +0.144 HD
ATOM     21  H   UNL     1       2.260   3.300   0.690  0.00  0.00    +0.144 HD
ENDBRANCH  16  19
ENDBRANCH   6  16
BRANCH   1  22
ATOM     22  C   UNL     1       1.292  -4.934   1.863  0.00  0.00    +0.042 C 
BRANCH  22  24
ATOM     23  C   UNL     1       3.743  -5.412   1.758  0.00  0.00    +0.007 C 
ATOM     24  C   UNL     1       2.417  -5.507   0.999  0.00  0.00    -0.014 C 
ATOM     25  C   UNL     1       2.118  -6.973   0.678  0.00  0.00    +0.007 C 
ENDBRANCH  22  24
ENDBRANCH   1  22
TORSDOF 4
