REMARK  Name = ZINC57345935
REMARK  7 active torsions:
REMARK  status: ('A' for Active; 'I' for Inactive)
REMARK    1  A    between atoms: C_1  and  C_2
REMARK    2  A    between atoms: C_2  and  C_3
REMARK    3  A    between atoms: C_3  and  N_4
REMARK    4  A    between atoms: N_4  and  C_5
REMARK    5  A    between atoms: C_5  and  C_6
REMARK    6  A    between atoms: N_17  and  C_20
REMARK    7  A    between atoms: C_20  and  C_21
REMARK                            x       y       z     vdW  Elec       q    Type
REMARK                         _______ _______ _______ _____ _____    ______ ____
ROOT
ATOM      1  N   UNL     1       0.738  -1.962  -1.265  0.00  0.00    -0.299 N 
ATOM      2  C   UNL     1       1.791  -2.643  -0.679  0.00  0.00    +0.219 A 
ATOM      3  N   UNL     1       2.770  -1.956  -0.111  0.00  0.00    -0.219 NA
ATOM      4  C   UNL     1       3.793  -2.576   0.460  0.00  0.00    +0.047 A 
ATOM      5  C   UNL     1       3.829  -3.955   0.460  0.00  0.00    -0.006 A 
ATOM      6  C   UNL     1       2.788  -4.648  -0.146  0.00  0.00    +0.136 A 
ATOM      7  N   UNL     1       1.794  -3.968  -0.695  0.00  0.00    -0.202 NA
ATOM      8 CL   UNL     1       2.788  -6.384  -0.178  0.00  0.00    -0.062 Cl
ATOM      9  C   UNL     1       4.955  -4.722   1.096  0.00  0.00    -0.038 C 
ATOM     10  N   UNL     1       6.125  -3.857   1.280  0.00  0.00    +0.385 N 
ATOM     11  C   UNL     1       5.721  -2.652   2.020  0.00  0.00    -0.072 C 
ATOM     12  C   UNL     1       4.890  -1.762   1.094  0.00  0.00    +0.037 C 
ATOM     13  H   UNL     1       6.494  -3.591   0.379  0.00  0.00    -0.081 HD
ENDROOT
BRANCH   1  14
ATOM     14  C   UNL     1       0.718  -0.497  -1.257  0.00  0.00    +0.108 C 
BRANCH  14  16
ATOM     15  C   UNL     1      -0.019   1.526   0.010  0.00  0.00    +0.005 C 
ATOM     16  C   UNL     1       0.002  -0.004   0.002  0.00  0.00    +0.016 C 
ENDBRANCH  14  16
ENDBRANCH   1  14
BRANCH   1  17
ATOM     17  C   UNL     1      -0.357  -2.706  -1.893  0.00  0.00    +0.111 C 
BRANCH  17  18
ATOM     18  C   UNL     1      -0.029  -2.949  -3.367  0.00  0.00    +0.006 C 
ATOM     19  C   UNL     1      -0.944  -2.304  -4.410  0.00  0.00    +0.005 C 
ATOM     20  C   UNL     1      -0.998  -3.815  -4.174  0.00  0.00    +0.005 C 
ENDBRANCH  17  18
ENDBRANCH   1  17
BRANCH  10  21
ATOM     21  C   UNL     1       7.154  -4.578   2.040  0.00  0.00    -0.043 C 
BRANCH  21  22
ATOM     22  C   UNL     1       7.648  -5.749   1.231  0.00  0.00    -0.064 A 
ATOM     23  C   UNL     1       7.026  -6.979   1.342  0.00  0.00    +0.002 A 
ATOM     24  C   UNL     1       7.479  -8.053   0.599  0.00  0.00    +0.000 A 
ATOM     25  C   UNL     1       8.555  -7.898  -0.255  0.00  0.00    +0.000 A 
ATOM     26  C   UNL     1       9.177  -6.668  -0.367  0.00  0.00    +0.000 A 
ATOM     27  C   UNL     1       8.721  -5.593   0.373  0.00  0.00    +0.002 A 
ENDBRANCH  21  22
ENDBRANCH  10  21
TORSDOF 6
