REMARK  Name = ZINC15793165
REMARK  11 active torsions:
REMARK  status: ('A' for Active; 'I' for Inactive)
REMARK    1  A    between atoms: C_1  and  C_2
REMARK    2  A    between atoms: C_5  and  S_24
REMARK    3  A    between atoms: C_7  and  C_8
REMARK    4  A    between atoms: N_10  and  N_11
REMARK    5  A    between atoms: C_12  and  C_14
REMARK    6  A    between atoms: C_17  and  O_22
REMARK    7  A    between atoms: C_18  and  O_20
REMARK    8  A    between atoms: O_20  and  C_21
REMARK    9  A    between atoms: O_22  and  C_23
REMARK   10  A    between atoms: S_24  and  N_27
REMARK   11  A    between atoms: C_32  and  C_34
REMARK                            x       y       z     vdW  Elec       q    Type
REMARK                         _______ _______ _______ _____ _____    ______ ____
ROOT
ATOM      1  C   UNL     1      -7.011   1.925  -1.096  0.00  0.00    +0.260 C 
ATOM      2  O   UNL     1      -8.045   1.362  -0.791  0.00  0.00    -0.269 OA
ATOM      3  N   UNL     1      -6.727   2.157  -2.392  0.00  0.00    -0.230 N 
ATOM      4  H   UNL     1      -5.902   2.606  -2.635  0.00  0.00    +0.173 HD
ENDROOT
BRANCH   1  11
ATOM      5  C   UNL     1      -7.521   1.214   1.662  0.00  0.00    +0.044 C 
ATOM      6  C   UNL     1      -6.302   2.018   1.290  0.00  0.00    -0.038 A 
ATOM      7  C   UNL     1      -5.416   2.422   2.268  0.00  0.00    +0.006 A 
ATOM      8  C   UNL     1      -4.295   3.160   1.928  0.00  0.00    +0.029 A 
ATOM      9  C   UNL     1      -4.056   3.498   0.608  0.00  0.00    +0.106 A 
ATOM     10  C   UNL     1      -4.937   3.105  -0.378  0.00  0.00    +0.042 A 
ATOM     11  C   UNL     1      -6.066   2.355  -0.043  0.00  0.00    +0.043 A 
BRANCH   9  12
ATOM     12  S   UNL     1      -2.627   4.438   0.186  0.00  0.00    +0.061 S 
ATOM     13  O   UNL     1      -2.143   5.005   1.395  0.00  0.00    -0.153 OA
ATOM     14  O   UNL     1      -2.981   5.231  -0.939  0.00  0.00    -0.153 OA
BRANCH  12  15
ATOM     15  N   UNL     1      -1.473   3.369  -0.332  0.00  0.00    -0.174 NA
ATOM     16  C   UNL     1      -1.239   3.159  -1.767  0.00  0.00    +0.110 C 
ATOM     17  C   UNL     1       0.250   3.371  -2.060  0.00  0.00    +0.017 C 
ATOM     18  C   UNL     1       1.079   2.464  -1.148  0.00  0.00    +0.003 C 
ATOM     19  C   UNL     1       0.817   2.832   0.315  0.00  0.00    +0.020 C 
ATOM     20  C   UNL     1      -0.665   2.614   0.634  0.00  0.00    +0.077 C 
ATOM     21  C   UNL     1      -0.962   3.107   2.052  0.00  0.00    +0.026 C 
ENDBRANCH  12  15
ENDBRANCH   9  12
ENDBRANCH   1  11
BRANCH   3  22
ATOM     22  N   UNL     1      -7.622   1.749  -3.390  0.00  0.00    -0.230 N 
ATOM     23  C   UNL     1      -7.338   1.981  -4.687  0.00  0.00    +0.260 C 
ATOM     24  O   UNL     1      -6.304   2.544  -4.991  0.00  0.00    -0.269 OA
ATOM     25  H   UNL     1      -8.447   1.300  -3.147  0.00  0.00    +0.173 HD
BRANCH  23  26
ATOM     26  C   UNL     1      -8.282   1.552  -5.737  0.00  0.00    +0.042 A 
ATOM     27  C   UNL     1      -9.467   0.899  -5.390  0.00  0.00    +0.017 A 
ATOM     28  C   UNL     1     -10.349   0.503  -6.371  0.00  0.00    +0.050 A 
ATOM     29  C   UNL     1     -10.058   0.742  -7.708  0.00  0.00    +0.162 A 
ATOM     30  C   UNL     1      -8.874   1.387  -8.062  0.00  0.00    +0.162 A 
ATOM     31  C   UNL     1      -7.988   1.792  -7.082  0.00  0.00    +0.062 A 
BRANCH  30  32
ATOM     32  O   UNL     1      -8.592   1.619  -9.372  0.00  0.00    -0.491 OA
ATOM     33  C   UNL     1      -7.362   2.286  -9.662  0.00  0.00    +0.277 C 
ENDBRANCH  30  32
BRANCH  29  34
ATOM     34  O   UNL     1     -10.928   0.344  -8.672  0.00  0.00    -0.491 OA
ATOM     35  C   UNL     1     -12.121  -0.312  -8.239  0.00  0.00    +0.277 C 
ENDBRANCH  29  34
ENDBRANCH  23  26
ENDBRANCH   3  22
TORSDOF 7
