REMARK  Name = ZINC06779858
REMARK  2 active torsions:
REMARK  status: ('A' for Active; 'I' for Inactive)
REMARK    1  A    between atoms: C_8  and  N_10
REMARK    2  A    between atoms: N_13  and  C_14
REMARK                            x       y       z     vdW  Elec       q    Type
REMARK                         _______ _______ _______ _____ _____    ______ ____
ROOT
ATOM      1  N   UNL     1       1.178  -0.662  -0.013  0.00  0.00    -0.296 N 
ATOM      2  C   UNL     1       0.002  -0.004   0.002  0.00  0.00    +0.300 C 
ATOM      3  O   UNL     1      -1.042  -0.626   0.009  0.00  0.00    -0.253 OA
ATOM      4  N   UNL     1      -0.016   1.344   0.009  0.00  0.00    -0.294 N 
ATOM      5  H   UNL     1       2.012  -0.166  -0.018  0.00  0.00    +0.151 HD
ATOM      6  H   UNL     1       0.817   1.840   0.004  0.00  0.00    +0.151 HD
ENDROOT
BRANCH   4   7
ATOM      7  C   UNL     1      -1.295   2.059   0.019  0.00  0.00    +0.037 C 
ATOM      8  C   UNL     1      -2.098   1.685  -1.228  0.00  0.00    +0.029 C 
ATOM      9  C   UNL     1      -3.433   2.432  -1.218  0.00  0.00    -0.008 C 
ATOM     10  C   UNL     1      -3.174   3.940  -1.211  0.00  0.00    +0.007 C 
ATOM     11  C   UNL     1      -2.371   4.314   0.037  0.00  0.00    -0.008 C 
ATOM     12  C   UNL     1      -1.036   3.567   0.026  0.00  0.00    +0.029 C 
ATOM     13  C   UNL     1      -3.162   3.926   1.288  0.00  0.00    +0.007 C 
ATOM     14  C   UNL     1      -3.421   2.418   1.281  0.00  0.00    -0.008 C 
ATOM     15  C   UNL     1      -4.224   2.045   0.033  0.00  0.00    +0.007 C 
ATOM     16  C   UNL     1      -2.086   1.671   1.270  0.00  0.00    +0.029 C 
ENDBRANCH   4   7
BRANCH   1  24
ATOM     17  C   UNL     1       3.809  -6.008   0.830  0.00  0.00    +0.000 A 
ATOM     18  C   UNL     1       3.044  -6.025   1.981  0.00  0.00    +0.000 A 
ATOM     19  C   UNL     1       2.174  -4.985   2.245  0.00  0.00    +0.004 A 
ATOM     20  C   UNL     1       2.066  -3.925   1.361  0.00  0.00    -0.042 A 
ATOM     21  C   UNL     1       2.832  -3.908   0.210  0.00  0.00    -0.042 A 
ATOM     22  C   UNL     1       3.704  -4.952  -0.053  0.00  0.00    +0.004 A 
ATOM     23  C   UNL     1       2.535  -2.654  -0.584  0.00  0.00    +0.058 C 
ATOM     24  C   UNL     1       1.198  -2.127  -0.021  0.00  0.00    +0.083 C 
ATOM     25  C   UNL     1       1.197  -2.683   1.419  0.00  0.00    +0.058 C 
ENDBRANCH   1  24
TORSDOF 2
