REMARK  Name = ZINC36703520
REMARK  13 active torsions:
REMARK  status: ('A' for Active; 'I' for Inactive)
REMARK    1  A    between atoms: C_1  and  C_2
REMARK    2  A    between atoms: C_2  and  C_3
REMARK    3  A    between atoms: N_12  and  C_13
REMARK    4  A    between atoms: C_13  and  C_14
REMARK    5  A    between atoms: C_14  and  N_15
REMARK    6  A    between atoms: N_15  and  C_16
REMARK    7  A    between atoms: N_15  and  C_18
REMARK    8  A    between atoms: C_16  and  C_17
REMARK    9  A    between atoms: C_18  and  C_19
REMARK   10  A    between atoms: C_20  and  C_22
REMARK   11  A    between atoms: C_22  and  C_23
REMARK   12  A    between atoms: C_26  and  C_30
REMARK   13  A    between atoms: C_28  and  C_29
REMARK                            x       y       z     vdW  Elec       q    Type
REMARK                         _______ _______ _______ _____ _____    ______ ____
ROOT
ATOM      1  C   UNL     1       0.312  -0.169   1.640  0.00  0.00    -0.046 A 
ATOM      2  C   UNL     1       1.689  -0.283   1.517  0.00  0.00    +0.006 A 
ATOM      3  C   UNL     1       2.458  -0.797   2.528  0.00  0.00    +0.029 A 
ATOM      4  C   UNL     1       1.866  -1.229   3.737  0.00  0.00    +0.080 A 
ATOM      5  C   UNL     1       0.462  -1.097   3.827  0.00  0.00    +0.041 A 
ATOM      6  C   UNL     1      -0.300  -0.576   2.811  0.00  0.00    +0.021 A 
ATOM      7  S   UNL     1       0.125  -1.731   5.452  0.00  0.00    -0.052 S 
ATOM      8  C   UNL     1       1.813  -2.119   5.896  0.00  0.00    +0.168 A 
ATOM      9  N   UNL     1       2.475  -1.753   4.823  0.00  0.00    -0.224 NA
ATOM     10  N   UNL     1       2.298  -2.667   7.072  0.00  0.00    -0.252 N 
ATOM     11  C   UNL     1       1.449  -2.980   8.070  0.00  0.00    +0.225 C 
ATOM     12  O   UNL     1       0.260  -2.782   7.939  0.00  0.00    -0.275 OA
ENDROOT
BRANCH   1  14
ATOM     13  C   UNL     1      -0.621   1.917   0.675  0.00  0.00    +0.009 C 
ATOM     14  C   UNL     1      -0.509   0.400   0.510  0.00  0.00    +0.032 C 
ENDBRANCH   1  14
BRANCH  10  15
ATOM     15  C   UNL     1       3.735  -2.906   7.230  0.00  0.00    +0.097 C 
BRANCH  15  16
ATOM     16  C   UNL     1       4.394  -1.665   7.836  0.00  0.00    -0.059 C 
BRANCH  16  17
ATOM     17  N   UNL     1       5.808  -1.950   8.116  0.00  0.00    +0.380 N 
ATOM     18  H   UNL     1       5.878  -2.776   8.691  0.00  0.00    -0.082 HD
BRANCH  17  19
ATOM     19  C   UNL     1       6.523  -2.171   6.852  0.00  0.00    -0.082 C 
ATOM     20  C   UNL     1       7.964  -2.589   7.147  0.00  0.00    -0.017 C 
ENDBRANCH  17  19
BRANCH  17  21
ATOM     21  C   UNL     1       6.406  -0.810   8.823  0.00  0.00    -0.082 C 
ATOM     22  C   UNL     1       5.758  -0.667  10.202  0.00  0.00    -0.017 C 
ENDBRANCH  17  21
ENDBRANCH  16  17
ENDBRANCH  15  16
ENDBRANCH  10  15
BRANCH  11  23
ATOM     23  C   UNL     1       1.977  -3.576   9.350  0.00  0.00    +0.131 C 
BRANCH  23  24
ATOM     24  C   UNL     1       0.831  -3.831  10.295  0.00  0.00    -0.036 A 
ATOM     25  C   UNL     1       0.501  -2.889  11.251  0.00  0.00    +0.004 A 
ATOM     26  C   UNL     1      -0.550  -3.123  12.118  0.00  0.00    +0.003 A 
ATOM     27  C   UNL     1      -1.270  -4.299  12.029  0.00  0.00    -0.050 A 
ATOM     28  C   UNL     1      -0.941  -5.241  11.073  0.00  0.00    +0.007 A 
ATOM     29  C   UNL     1       0.107  -5.005  10.203  0.00  0.00    -0.047 A 
ATOM     30  C   UNL     1       0.464  -6.029   9.156  0.00  0.00    +0.044 C 
ATOM     31  C   UNL     1      -2.415  -4.555  12.975  0.00  0.00    +0.044 C 
ENDBRANCH  23  24
ENDBRANCH  11  23
TORSDOF 8
