REMARK  Name = ZINC01808915
REMARK  12 active torsions:
REMARK  status: ('A' for Active; 'I' for Inactive)
REMARK    1  A    between atoms: C_1  and  C_2
REMARK    2  A    between atoms: C_2  and  C_3
REMARK    3  A    between atoms: C_3  and  O_4
REMARK    4  A    between atoms: O_4  and  C_5
REMARK    5  A    between atoms: C_8  and  C_11
REMARK    6  A    between atoms: C_12  and  C_24
REMARK    7  A    between atoms: N_26  and  N_27
REMARK    8  A    between atoms: C_28  and  C_29
REMARK    9  A    between atoms: C_32  and  O_38
REMARK   10  A    between atoms: C_33  and  O_35
REMARK   11  A    between atoms: O_35  and  C_36
REMARK   12  A    between atoms: C_36  and  C_37
REMARK                            x       y       z     vdW  Elec       q    Type
REMARK                         _______ _______ _______ _____ _____    ______ ____
ROOT
ATOM      1  C   UNL     1       2.565 -10.695  -0.073  0.00  0.00    +0.109 A 
ATOM      2  C   UNL     1       2.591  -9.304  -0.071  0.00  0.00    +0.177 A 
ATOM      3  N   UNL     1       3.875  -8.910  -0.080  0.00  0.00    -0.124 NA
ATOM      4  N   UNL     1       4.652  -9.935  -0.093  0.00  0.00    -0.058 NA
ATOM      5  N   UNL     1       3.871 -11.099  -0.093  0.00  0.00    -0.187 N 
ATOM      6  C   UNL     1       4.337 -12.417  -0.104  0.00  0.00    +0.241 A 
ATOM      7  C   UNL     1       5.744 -12.830  -0.119  0.00  0.00    +0.206 A 
ATOM      8  N   UNL     1       5.789 -14.133  -0.126  0.00  0.00    -0.032 NA
ATOM      9  O   UNL     1       4.456 -14.614  -0.117  0.00  0.00    -0.239 OA
ATOM     10  N   UNL     1       3.595 -13.489  -0.097  0.00  0.00    -0.027 NA
ATOM     11  N   UNL     1       6.842 -11.977  -0.125  0.00  0.00    -0.337 N 
ATOM     12  H   UNL     1       6.710 -11.016  -0.119  0.00  0.00    +0.144 HD
ATOM     13  H   UNL     1       7.740 -12.343  -0.135  0.00  0.00    +0.144 HD
ENDROOT
BRANCH   1  17
ATOM     14  C   UNL     1      -0.875 -13.185  -0.034  0.00  0.00    +0.121 A 
ATOM     15  C   UNL     1      -0.803 -12.090   0.818  0.00  0.00    +0.046 A 
ATOM     16  C   UNL     1       0.311 -11.280   0.808  0.00  0.00    +0.013 A 
ATOM     17  C   UNL     1       1.370 -11.560  -0.059  0.00  0.00    +0.003 A 
ATOM     18  C   UNL     1       1.291 -12.659  -0.919  0.00  0.00    +0.013 A 
ATOM     19  C   UNL     1       0.175 -13.468  -0.899  0.00  0.00    +0.046 A 
BRANCH  14  20
ATOM     20  O   UNL     1      -1.976 -13.981  -0.022  0.00  0.00    -0.492 OA
BRANCH  20  21
ATOM     21  C   UNL     1      -1.984 -15.089  -0.924  0.00  0.00    +0.229 C 
BRANCH  21  23
ATOM     22  C   UNL     1      -3.304 -17.051  -1.732  0.00  0.00    +0.007 C 
ATOM     23  C   UNL     1      -3.294 -15.864  -0.767  0.00  0.00    +0.038 C 
ENDBRANCH  21  23
ENDBRANCH  20  21
ENDBRANCH  14  20
ENDBRANCH   1  17
BRANCH   2  24
ATOM     24  C   UNL     1       1.416  -8.419  -0.056  0.00  0.00    +0.286 C 
ATOM     25  O   UNL     1       0.296  -8.895  -0.048  0.00  0.00    -0.267 OA
ATOM     26  N   UNL     1       1.580  -7.082  -0.050  0.00  0.00    -0.202 N 
ATOM     27  H   UNL     1       2.472  -6.702  -0.056  0.00  0.00    +0.178 HD
BRANCH  26  28
ATOM     28  N   UNL     1       0.461  -6.239  -0.035  0.00  0.00    -0.187 NA
ATOM     29  C   UNL     1       0.619  -4.950  -0.030  0.00  0.00    +0.138 C 
BRANCH  29  30
ATOM     30  C   UNL     1      -0.559  -4.063  -0.014  0.00  0.00    -0.002 A 
ATOM     31  C   UNL     1      -1.846  -4.608  -0.005  0.00  0.00    +0.013 A 
ATOM     32  C   UNL     1      -2.946  -3.776   0.010  0.00  0.00    +0.050 A 
ATOM     33  C   UNL     1      -2.778  -2.399   0.021  0.00  0.00    +0.158 A 
ATOM     34  C   UNL     1      -1.498  -1.849   0.006  0.00  0.00    +0.162 A 
ATOM     35  C   UNL     1      -0.391  -2.676  -0.009  0.00  0.00    +0.059 A 
BRANCH  33  36
ATOM     36  O   UNL     1      -3.866  -1.584   0.042  0.00  0.00    -0.503 OA
ATOM     37  H   UNL     1      -4.194  -1.343  -0.836  0.00  0.00    +0.292 HD
ENDBRANCH  33  36
BRANCH  34  38
ATOM     38  O   UNL     1      -1.339  -0.499   0.012  0.00  0.00    -0.489 OA
BRANCH  38  39
ATOM     39  C   UNL     1       0.002  -0.004   0.002  0.00  0.00    +0.226 C 
ATOM     40  C   UNL     1      -0.019   1.526   0.010  0.00  0.00    +0.048 C 
ENDBRANCH  38  39
ENDBRANCH  34  38
ENDBRANCH  29  30
ENDBRANCH  26  28
ENDBRANCH   2  24
TORSDOF 10
