REMARK  Name = ZINC09521395
REMARK  4 active torsions:
REMARK  status: ('A' for Active; 'I' for Inactive)
REMARK    1  A    between atoms: C_6  and  C_7
REMARK    2  A    between atoms: C_7  and  C_8
REMARK    3  A    between atoms: N_10  and  C_11
REMARK    4  A    between atoms: C_12  and  C_21
REMARK                            x       y       z     vdW  Elec       q    Type
REMARK                         _______ _______ _______ _____ _____    ______ ____
ROOT
ATOM      1  C   UNL     1       6.078  -1.084   1.199  0.00  0.00    +0.222 C 
ATOM      2  O   UNL     1       5.688  -1.283   0.068  0.00  0.00    -0.275 OA
ATOM      3  N   UNL     1       7.382  -1.246   1.500  0.00  0.00    -0.279 N 
ATOM      4  H   UNL     1       7.694  -1.087   2.405  0.00  0.00    +0.155 HD
ENDROOT
BRANCH   3   5
ATOM      5  C   UNL     1       8.277  -1.641   0.516  0.00  0.00    +0.090 A 
ATOM      6  C   UNL     1       9.642  -1.854   0.629  0.00  0.00    +0.084 A 
ATOM      7  C   UNL     1      10.363  -2.276  -0.564  0.00  0.00    -0.018 A 
ATOM      8  C   UNL     1       9.604  -2.399  -1.674  0.00  0.00    -0.004 A 
ATOM      9  S   UNL     1       7.963  -1.982  -1.153  0.00  0.00    -0.077 S 
ATOM     10  C   UNL     1      10.050  -2.788  -3.049  0.00  0.00    +0.043 C 
ATOM     11  C   UNL     1      10.921  -4.048  -2.962  0.00  0.00    +0.005 C 
ATOM     12  C   UNL     1      12.372  -3.620  -2.771  0.00  0.00    +0.001 C 
ATOM     13  C   UNL     1      12.437  -2.332  -1.952  0.00  0.00    +0.005 C 
ATOM     14  C   UNL     1      11.860  -2.558  -0.559  0.00  0.00    +0.037 C 
BRANCH   6  15
ATOM     15  C   UNL     1      10.319  -1.668   1.877  0.00  0.00    +0.102 C 
ATOM     16  N   UNL     1      10.856  -1.521   2.866  0.00  0.00    -0.191 NA
ENDBRANCH   6  15
ENDBRANCH   3   5
BRANCH   1  17
ATOM     17  C   UNL     1       5.106  -0.655   2.267  0.00  0.00    +0.131 C 
BRANCH  17  23
ATOM     18  C   UNL     1       2.886  -1.646   1.677  0.00  0.00    +0.008 A 
ATOM     19  C   UNL     1       1.617  -1.552   1.135  0.00  0.00    +0.050 A 
ATOM     20  C   UNL     1       1.183  -0.356   0.589  0.00  0.00    +0.166 A 
ATOM     21  C   UNL     1       2.029   0.752   0.587  0.00  0.00    +0.166 A 
ATOM     22  C   UNL     1       3.298   0.650   1.131  0.00  0.00    +0.053 A 
ATOM     23  C   UNL     1       3.724  -0.547   1.675  0.00  0.00    -0.035 A 
ATOM     24  O   UNL     1       1.376   1.797  -0.001  0.00  0.00    -0.453 OA
ATOM     25  C   UNL     1      -0.018   1.436   0.010  0.00  0.00    +0.466 C 
ATOM     26  O   UNL     1       0.002  -0.004   0.002  0.00  0.00    -0.453 OA
ENDBRANCH  17  23
ENDBRANCH   1  17
TORSDOF 4
