REMARK  Name = ZINC00800298
REMARK  7 active torsions:
REMARK  status: ('A' for Active; 'I' for Inactive)
REMARK    1  A    between atoms: C_1  and  C_2
REMARK    2  A    between atoms: C_2  and  C_4
REMARK    3  A    between atoms: C_7  and  N_10
REMARK    4  A    between atoms: C_14  and  C_15
REMARK    5  A    between atoms: C_14  and  C_23
REMARK    6  A    between atoms: C_16  and  C_17
REMARK    7  A    between atoms: N_25  and  C_26
REMARK                            x       y       z     vdW  Elec       q    Type
REMARK                         _______ _______ _______ _____ _____    ______ ____
ROOT
ATOM      1  N   UNL     1       1.101   3.308  -0.075  0.00  0.00    -0.253 N 
ATOM      2  C   UNL     1       1.668   3.440  -1.303  0.00  0.00    +0.224 C 
ATOM      3  O   UNL     1       1.880   4.380  -2.039  0.00  0.00    -0.275 OA
ATOM      4  C   UNL     1       1.931   1.950  -1.390  0.00  0.00    +0.136 C 
ATOM      5  C   UNL     1       1.282   1.847  -0.000  0.00  0.00    +0.145 C 
ENDROOT
BRANCH   1   9
ATOM      6  C   UNL     1      -0.568   6.066   2.554  0.00  0.00    +0.017 A 
ATOM      7  C   UNL     1      -0.044   6.493   1.328  0.00  0.00    +0.013 A 
ATOM      8  C   UNL     1       0.505   5.581   0.465  0.00  0.00    +0.024 A 
ATOM      9  C   UNL     1       0.542   4.231   0.805  0.00  0.00    +0.038 A 
ATOM     10  C   UNL     1       0.018   3.801   2.021  0.00  0.00    +0.024 A 
ATOM     11  C   UNL     1      -0.528   4.707   2.893  0.00  0.00    +0.013 A 
BRANCH   6  13
ATOM     12  C   UNL     1      -1.720   6.577   4.802  0.00  0.00    +0.091 C 
ATOM     13  C   UNL     1      -1.157   7.039   3.483  0.00  0.00    +0.160 C 
ATOM     14  O   UNL     1      -1.189   8.215   3.188  0.00  0.00    -0.292 OA
ENDBRANCH   6  13
ENDBRANCH   1   9
BRANCH   5  15
ATOM     15  C   UNL     1       2.234   1.407   1.082  0.00  0.00    +0.242 C 
ATOM     16  O   UNL     1       2.053   0.355   1.658  0.00  0.00    -0.273 OA
ATOM     17  N   UNL     1       3.287   2.182   1.410  0.00  0.00    -0.310 N 
ATOM     18  H   UNL     1       3.431   3.024   0.949  0.00  0.00    +0.149 HD
BRANCH  17  19
ATOM     19  C   UNL     1       4.212   1.755   2.462  0.00  0.00    +0.073 C 
ATOM     20  C   UNL     1       3.663   2.176   3.826  0.00  0.00    +0.022 C 
ATOM     21  C   UNL     1       4.630   1.730   4.925  0.00  0.00    +0.002 C 
ATOM     22  C   UNL     1       5.995   2.383   4.700  0.00  0.00    +0.000 C 
ATOM     23  C   UNL     1       6.544   1.962   3.335  0.00  0.00    +0.002 C 
ATOM     24  C   UNL     1       5.577   2.408   2.237  0.00  0.00    +0.022 C 
ENDBRANCH  17  19
ENDBRANCH   5  15
BRANCH   5  25
ATOM     25  C   UNL     1      -0.013   1.076   0.008  0.00  0.00    +0.009 C 
ATOM     26  C   UNL     1      -1.169   1.723   0.017  0.00  0.00    +0.006 C 
BRANCH  26  27
ATOM     27  C   UNL     1      -2.439   0.967   0.019  0.00  0.00    -0.025 A 
ATOM     28  C   UNL     1      -2.424  -0.429   0.005  0.00  0.00    +0.008 A 
ATOM     29  C   UNL     1      -3.613  -1.129   0.014  0.00  0.00    +0.001 A 
ATOM     30  C   UNL     1      -4.819  -0.450   0.023  0.00  0.00    +0.000 A 
ATOM     31  C   UNL     1      -4.841   0.933   0.030  0.00  0.00    +0.001 A 
ATOM     32  C   UNL     1      -3.659   1.645   0.028  0.00  0.00    +0.008 A 
ENDBRANCH  26  27
ENDBRANCH   5  25
TORSDOF 6
