REMARK  Name = ZINC14818186
REMARK  11 active torsions:
REMARK  status: ('A' for Active; 'I' for Inactive)
REMARK    1  A    between atoms: C_1  and  C_2
REMARK    2  A    between atoms: C_5  and  O_8
REMARK    3  A    between atoms: O_8  and  C_9
REMARK    4  A    between atoms: C_14  and  N_15
REMARK    5  A    between atoms: C_16  and  C_18
REMARK    6  A    between atoms: C_18  and  C_20
REMARK    7  A    between atoms: C_18  and  S_21
REMARK    8  A    between atoms: S_21  and  C_22
REMARK    9  A    between atoms: C_22  and  C_23
REMARK   10  A    between atoms: C_29  and  C_35
REMARK   11  A    between atoms: C_30  and  C_34
REMARK                            x       y       z     vdW  Elec       q    Type
REMARK                         _______ _______ _______ _____ _____    ______ ____
ROOT
ATOM      1  N   UNL     1      -0.030   0.970  -0.061  0.00  0.00    -0.282 N 
ATOM      2  C   UNL     1       1.193   1.381   0.329  0.00  0.00    +0.230 C 
ATOM      3  O   UNL     1       1.319   2.433   0.921  0.00  0.00    -0.274 OA
ATOM      4  H   UNL     1      -0.122   0.177  -0.611  0.00  0.00    +0.155 HD
ENDROOT
BRANCH   1  10
ATOM      5  C   UNL     1      -2.382   1.035   0.509  0.00  0.00    +0.150 A 
ATOM      6  C   UNL     1      -3.504   1.755   0.889  0.00  0.00    +0.048 A 
ATOM      7  C   UNL     1      -3.416   3.120   1.083  0.00  0.00    +0.004 A 
ATOM      8  C   UNL     1      -2.211   3.773   0.899  0.00  0.00    +0.002 A 
ATOM      9  C   UNL     1      -1.086   3.062   0.525  0.00  0.00    +0.027 A 
ATOM     10  C   UNL     1      -1.167   1.692   0.323  0.00  0.00    +0.076 A 
BRANCH   5  11
ATOM     11  O   UNL     1      -2.466  -0.308   0.318  0.00  0.00    -0.454 OA
BRANCH  11  16
ATOM     12  C   UNL     1      -7.565  -2.693   0.506  0.00  0.00    +0.044 C 
ATOM     13  C   UNL     1      -6.201  -2.054   0.456  0.00  0.00    -0.050 A 
ATOM     14  C   UNL     1      -5.801  -1.367  -0.676  0.00  0.00    +0.007 A 
ATOM     15  C   UNL     1      -4.551  -0.782  -0.725  0.00  0.00    +0.046 A 
ATOM     16  C   UNL     1      -3.696  -0.883   0.364  0.00  0.00    +0.129 A 
ATOM     17  C   UNL     1      -4.098  -1.577   1.496  0.00  0.00    +0.046 A 
ATOM     18  C   UNL     1      -5.351  -2.157   1.542  0.00  0.00    +0.007 A 
ENDBRANCH  11  16
ENDBRANCH   5  11
ENDBRANCH   1  10
BRANCH   2  19
ATOM     19  C   UNL     1       2.404   0.535   0.031  0.00  0.00    +0.130 C 
ATOM     20  C   UNL     1       2.499  -0.598   1.055  0.00  0.00    +0.029 C 
BRANCH  19  21
ATOM     21  S   UNL     1       3.897   1.561   0.123  0.00  0.00    -0.141 S 
BRANCH  21  22
ATOM     22  C   UNL     1       5.228   0.447  -0.404  0.00  0.00    +0.144 C 
BRANCH  22  23
ATOM     23  C   UNL     1       6.542   1.185  -0.373  0.00  0.00    +0.121 A 
ATOM     24  N   UNL     1       7.680   0.534  -0.727  0.00  0.00    -0.310 N 
ATOM     25  H   UNL     1       7.631  -0.396  -0.995  0.00  0.00    +0.170 HD
ATOM     26  C   UNL     1       8.873   1.157  -0.719  0.00  0.00    +0.260 A 
ATOM     27  O   UNL     1       9.885   0.561  -1.045  0.00  0.00    -0.267 OA
ATOM     28  C   UNL     1       8.936   2.531  -0.315  0.00  0.00    +0.075 A 
ATOM     29  C   UNL     1      10.086   3.410  -0.218  0.00  0.00    -0.026 A 
ATOM     30  C   UNL     1       9.910   4.677   0.188  0.00  0.00    -0.008 A 
ATOM     31  S   UNL     1       8.153   4.779   0.473  0.00  0.00    -0.073 S 
ATOM     32  C   UNL     1       7.708   3.117   0.038  0.00  0.00    +0.116 A 
ATOM     33  N   UNL     1       6.566   2.436  -0.001  0.00  0.00    -0.226 NA
ATOM     34  C   UNL     1      10.948   5.756   0.362  0.00  0.00    +0.052 C 
ATOM     35  C   UNL     1      11.463   2.906  -0.568  0.00  0.00    +0.045 C 
ENDBRANCH  22  23
ENDBRANCH  21  22
ENDBRANCH  19  21
ENDBRANCH   2  19
TORSDOF 7
