REMARK  Name = ZINC39640239
REMARK  9 active torsions:
REMARK  status: ('A' for Active; 'I' for Inactive)
REMARK    1  A    between atoms: C_1  and  C_2
REMARK    2  A    between atoms: C_5  and  N_9
REMARK    3  A    between atoms: C_6  and  C_8
REMARK    4  A    between atoms: C_13  and  C_15
REMARK    5  A    between atoms: C_15  and  O_16
REMARK    6  A    between atoms: O_16  and  C_17
REMARK    7  A    between atoms: C_17  and  C_19
REMARK    8  A    between atoms: C_19  and  N_20
REMARK    9  A    between atoms: C_21  and  C_23
REMARK                            x       y       z     vdW  Elec       q    Type
REMARK                         _______ _______ _______ _____ _____    ______ ____
ROOT
ATOM      1  O   UNL     1      -0.412  -8.828  -3.699  0.00  0.00    -0.454 OA
ENDROOT
BRANCH   1   2
ATOM      2  C   UNL     1      -0.503 -10.155  -3.875  0.00  0.00    +0.325 C 
ATOM      3  O   UNL     1      -0.502 -10.893  -2.918  0.00  0.00    -0.249 OA
BRANCH   2   4
ATOM      4  C   UNL     1      -0.607 -10.726  -5.266  0.00  0.00    +0.224 C 
BRANCH   4   5
ATOM      5  N   UNL     1      -0.695 -12.186  -5.189  0.00  0.00    -0.304 N 
ATOM      6  C   UNL     1      -0.795 -12.915  -6.319  0.00  0.00    +0.220 C 
ATOM      7  O   UNL     1      -0.814 -12.362  -7.398  0.00  0.00    -0.275 OA
ATOM      8  H   UNL     1      -0.679 -12.629  -4.326  0.00  0.00    +0.149 HD
BRANCH   6   9
ATOM      9  C   UNL     1      -0.885 -14.418  -6.240  0.00  0.00    +0.048 C 
ATOM     10  C   UNL     1       0.368 -14.968  -5.555  0.00  0.00    +0.019 C 
ATOM     11  C   UNL     1       0.277 -16.493  -5.476  0.00  0.00    -0.009 C 
ATOM     12  C   UNL     1       0.171 -17.073  -6.888  0.00  0.00    +0.007 C 
ATOM     13  C   UNL     1      -1.081 -16.522  -7.572  0.00  0.00    -0.009 C 
ATOM     14  C   UNL     1      -0.991 -14.997  -7.652  0.00  0.00    +0.019 C 
ATOM     15  C   UNL     1      -2.320 -16.918  -6.765  0.00  0.00    +0.007 C 
ATOM     16  C   UNL     1      -2.214 -16.338  -5.353  0.00  0.00    -0.009 C 
ATOM     17  C   UNL     1      -0.961 -16.889  -4.668  0.00  0.00    +0.007 C 
ATOM     18  C   UNL     1      -2.123 -14.813  -5.433  0.00  0.00    +0.019 C 
ENDBRANCH   6   9
ENDBRANCH   4   5
ENDBRANCH   2   4
ENDBRANCH   1   2
BRANCH   1  19
ATOM     19  C   UNL     1      -0.317  -8.357  -2.353  0.00  0.00    +0.328 C 
BRANCH  19  24
ATOM     20  N   UNL     1       0.059  -4.170  -0.021  0.00  0.00    -0.269 N 
ATOM     21  C   UNL     1      -0.040  -4.839  -1.187  0.00  0.00    +0.310 C 
ATOM     22  O   UNL     1      -0.054  -4.229  -2.238  0.00  0.00    -0.252 OA
ATOM     23  N   UNL     1      -0.124  -6.184  -1.187  0.00  0.00    -0.237 N 
ATOM     24  C   UNL     1      -0.223  -6.853  -2.353  0.00  0.00    +0.258 C 
ATOM     25  O   UNL     1      -0.237  -6.244  -3.401  0.00  0.00    -0.272 OA
ATOM     26  H   UNL     1       0.135  -4.658   0.814  0.00  0.00    +0.156 HD
ATOM     27  H   UNL     1      -0.113  -6.671  -0.348  0.00  0.00    +0.159 HD
BRANCH  20  32
ATOM     28  C   UNL     1       0.025   1.503   0.005  0.00  0.00    +0.044 C 
ATOM     29  C   UNL     1       0.034  -0.004  -0.002  0.00  0.00    -0.050 A 
ATOM     30  C   UNL     1       0.632  -0.685  -1.046  0.00  0.00    +0.005 A 
ATOM     31  C   UNL     1       0.641  -2.066  -1.055  0.00  0.00    +0.024 A 
ATOM     32  C   UNL     1       0.051  -2.771  -0.014  0.00  0.00    +0.038 A 
ATOM     33  C   UNL     1      -0.548  -2.083   1.033  0.00  0.00    -0.029 A 
ATOM     34  C   UNL     1      -0.551  -0.702   1.039  0.00  0.00    +0.008 A 
ATOM     35  C   UNL     1      -1.191  -2.843   2.165  0.00  0.00    +0.045 C 
ENDBRANCH  20  32
ENDBRANCH  19  24
ENDBRANCH   1  19
TORSDOF 7
