REMARK  Name = ZINC39750508
REMARK  13 active torsions:
REMARK  status: ('A' for Active; 'I' for Inactive)
REMARK    1  A    between atoms: C_1  and  C_2
REMARK    2  A    between atoms: C_2  and  N_3
REMARK    3  A    between atoms: C_4  and  CA_23
REMARK    4  A    between atoms: C_7  and  S_8
REMARK    5  A    between atoms: S_8  and  C_9
REMARK    6  A    between atoms: C_9  and  C_10
REMARK    7  A    between atoms: N_12  and  C_13
REMARK    8  A    between atoms: C_16  and  N_20
REMARK    9  A    between atoms: C_18  and  C_19
REMARK   10  A    between atoms: CA_23  and  C_25
REMARK   11  A    between atoms: CA_23  and  N_27
REMARK   12  A    between atoms: C_25  and  O_26
REMARK   13  A    between atoms: C_28  and  C_30
REMARK                            x       y       z     vdW  Elec       q    Type
REMARK                         _______ _______ _______ _____ _____    ______ ____
ROOT
ATOM      1  N   UNL     1       0.717  -0.455   1.200  0.00  0.00    -0.305 N 
ATOM      2  C   UNL     1       2.058  -0.698   1.320  0.00  0.00    +0.157 A 
ATOM      3  N   UNL     1       2.270  -1.111   2.538  0.00  0.00    -0.131 NA
ATOM      4  N   UNL     1       1.163  -1.146   3.191  0.00  0.00    -0.122 NA
ATOM      5  C   UNL     1       0.178  -0.749   2.420  0.00  0.00    +0.192 A 
ENDROOT
BRANCH   1   7
ATOM      6  C   UNL     1      -0.024   1.555   0.021  0.00  0.00    +0.027 C 
ATOM      7  C   UNL     1       0.008   0.025   0.012  0.00  0.00    +0.122 C 
ENDBRANCH   1   7
BRANCH   5   8
ATOM      8  S   UNL     1      -1.520  -0.622   2.872  0.00  0.00    -0.077 S 
BRANCH   8   9
ATOM      9  C   UNL     1      -1.554  -1.154   4.606  0.00  0.00    +0.173 C 
BRANCH   9  10
ATOM     10  C   UNL     1      -2.968  -1.092   5.123  0.00  0.00    +0.227 C 
ATOM     11  O   UNL     1      -3.865  -0.725   4.394  0.00  0.00    -0.275 OA
ATOM     12  N   UNL     1      -3.236  -1.445   6.396  0.00  0.00    -0.285 N 
ATOM     13  H   UNL     1      -2.534  -1.815   6.955  0.00  0.00    +0.155 HD
BRANCH  12  14
ATOM     14  C   UNL     1      -4.526  -1.278   6.912  0.00  0.00    +0.036 A 
ATOM     15  C   UNL     1      -5.376  -0.326   6.365  0.00  0.00    +0.026 A 
ATOM     16  C   UNL     1      -6.649  -0.163   6.876  0.00  0.00    +0.034 A 
ATOM     17  C   UNL     1      -7.077  -0.948   7.931  0.00  0.00    +0.127 A 
ATOM     18  C   UNL     1      -6.233  -1.897   8.477  0.00  0.00    +0.038 A 
ATOM     19  C   UNL     1      -4.961  -2.069   7.967  0.00  0.00    -0.027 A 
ATOM     20  C   UNL     1      -4.044  -3.108   8.559  0.00  0.00    +0.046 C 
BRANCH  17  21
ATOM     21  N   UNL     1      -8.442  -0.772   8.476  0.00  0.00    +0.056 N 
ATOM     22  O   UNL     1      -9.181   0.058   7.999  0.00  0.00    -0.126 OA
ATOM     23  O   UNL     1      -8.818  -1.457   9.398  0.00  0.00    -0.126 OA
ENDBRANCH  17  21
ENDBRANCH  12  14
ENDBRANCH   9  10
ENDBRANCH   8   9
ENDBRANCH   5   8
BRANCH   2  24
ATOM     24  CA  UNL     1       3.097  -0.521   0.244  0.00  0.00    +0.167 C 
BRANCH  24  25
ATOM     25  N   UNL     1       3.986  -1.685   0.227  0.00  0.00    -0.299 N 
ATOM     26  C   UNL     1       4.644  -2.014  -0.903  0.00  0.00    +0.245 C 
ATOM     27  O   UNL     1       4.500  -1.344  -1.907  0.00  0.00    -0.270 OA
ATOM     28  H   UNL     1       4.101  -2.220   1.028  0.00  0.00    +0.150 HD
BRANCH  26  29
ATOM     29  C   UNL     1       5.541  -3.189  -0.920  0.00  0.00    +0.037 A 
ATOM     30  C   UNL     1       5.704  -3.963   0.230  0.00  0.00    +0.014 A 
ATOM     31  C   UNL     1       6.541  -5.058   0.207  0.00  0.00    +0.021 A 
ATOM     32  C   UNL     1       7.220  -5.391  -0.953  0.00  0.00    +0.041 A 
ATOM     33  C   UNL     1       7.063  -4.626  -2.097  0.00  0.00    +0.021 A 
ATOM     34  C   UNL     1       6.224  -3.532  -2.089  0.00  0.00    +0.014 A 
ATOM     35 CL   UNL     1       8.274  -6.770  -0.973  0.00  0.00    -0.084 Cl
ENDBRANCH  26  29
ENDBRANCH  24  25
BRANCH  24  36
ATOM     36  C   UNL     1       3.915   0.741   0.527  0.00  0.00    +0.186 C 
BRANCH  36  37
ATOM     37  O   UNL     1       4.466   0.666   1.844  0.00  0.00    -0.393 OA
ATOM     38  H   UNL     1       4.998   1.434   2.092  0.00  0.00    +0.209 HD
ENDBRANCH  36  37
ENDBRANCH  24  36
ENDBRANCH   2  24
TORSDOF 11
