REMARK  Name = ZINC37299392
REMARK  5 active torsions:
REMARK  status: ('A' for Active; 'I' for Inactive)
REMARK    1  A    between atoms: C_1  and  C_2
REMARK    2  A    between atoms: C_2  and  C_4
REMARK    3  A    between atoms: C_2  and  N_12
REMARK    4  A    between atoms: N_12  and  C_13
REMARK    5  A    between atoms: C_17  and  N_19
REMARK                            x       y       z     vdW  Elec       q    Type
REMARK                         _______ _______ _______ _____ _____    ______ ____
ROOT
ATOM      1  N   UNL     1       0.587  -0.473   1.261  0.00  0.00    -0.337 N 
ATOM      2  H   UNL     1       1.540  -0.644   1.318  0.00  0.00    +0.147 HD
ENDROOT
BRANCH   1   3
ATOM      3  C   UNL     1      -0.228  -0.673   2.378  0.00  0.00    +0.030 A 
ATOM      4  C   UNL     1      -1.593  -0.434   2.295  0.00  0.00    +0.024 A 
ATOM      5  C   UNL     1      -2.396  -0.633   3.401  0.00  0.00    +0.024 A 
ATOM      6  C   UNL     1      -1.841  -1.071   4.591  0.00  0.00    +0.071 A 
ATOM      7  C   UNL     1      -0.481  -1.310   4.676  0.00  0.00    +0.146 A 
ATOM      8  C   UNL     1       0.326  -1.118   3.572  0.00  0.00    +0.057 A 
ATOM      9 CL   UNL     1      -2.853  -1.320   5.979  0.00  0.00    -0.081 Cl
BRANCH   7  10
ATOM     10  N   UNL     1       0.109  -1.777   5.951  0.00  0.00    +0.058 N 
ATOM     11  O   UNL     1       1.298  -1.985   6.026  0.00  0.00    -0.126 OA
ATOM     12  O   UNL     1      -0.597  -1.950   6.917  0.00  0.00    -0.126 OA
ENDBRANCH   7  10
ENDBRANCH   1   3
BRANCH   1  14
ATOM     13  C   UNL     1      -0.084   1.523   0.017  0.00  0.00    +0.033 C 
ATOM     14  C   UNL     1       0.002  -0.004   0.002  0.00  0.00    +0.099 C 
BRANCH  14  15
ATOM     15  C   UNL     1       0.867  -0.447  -1.150  0.00  0.00    -0.009 A 
ATOM     16  C   UNL     1       2.220  -0.658  -0.957  0.00  0.00    +0.010 A 
ATOM     17  C   UNL     1       3.014  -1.064  -2.012  0.00  0.00    +0.039 A 
ATOM     18  C   UNL     1       2.455  -1.260  -3.264  0.00  0.00    +0.125 A 
ATOM     19  C   UNL     1       1.101  -1.049  -3.457  0.00  0.00    +0.058 A 
ATOM     20  C   UNL     1       0.306  -0.647  -2.398  0.00  0.00    +0.049 A 
ATOM     21 CL   UNL     1      -1.394  -0.389  -2.638  0.00  0.00    -0.083 Cl
ATOM     22  F   UNL     1       3.232  -1.655  -4.296  0.00  0.00    -0.205 F 
ENDBRANCH  14  15
ENDBRANCH   1  14
TORSDOF 4
