REMARK  Name = ZINC09696031
REMARK  10 active torsions:
REMARK  status: ('A' for Active; 'I' for Inactive)
REMARK    1  A    between atoms: C_1  and  O_2
REMARK    2  A    between atoms: O_2  and  C_3
REMARK    3  A    between atoms: C_8  and  C_9
REMARK    4  A    between atoms: N_11  and  C_12
REMARK    5  A    between atoms: C_12  and  N_14
REMARK    6  A    between atoms: C_20  and  C_22
REMARK    7  A    between atoms: C_22  and  C_23
REMARK    8  A    between atoms: C_23  and  O_25
REMARK    9  A    between atoms: O_25  and  C_26
REMARK   10  A    between atoms: C_26  and  C_27
REMARK                            x       y       z     vdW  Elec       q    Type
REMARK                         _______ _______ _______ _____ _____    ______ ____
ROOT
ATOM      1  N   UNL     1      -0.714   3.118  -0.988  0.00  0.00    -0.299 N 
ATOM      2  C   UNL     1       0.508   3.763  -1.498  0.00  0.00    +0.126 C 
ATOM      3  C   UNL     1       0.647   3.415  -2.982  0.00  0.00    +0.123 C 
ATOM      4  N   UNL     1       0.433   1.991  -3.201  0.00  0.00    -0.312 N 
ATOM      5  C   UNL     1      -0.235   1.190  -2.370  0.00  0.00    +0.234 C 
ATOM      6  O   UNL     1      -0.416   0.036  -2.700  0.00  0.00    -0.274 OA
ATOM      7  C   UNL     1      -0.774   1.650  -1.043  0.00  0.00    +0.171 C 
ATOM      8  H   UNL     1       0.801   1.599  -4.008  0.00  0.00    +0.149 HD
ENDROOT
BRANCH   1   9
ATOM      9  C   UNL     1      -1.734   3.844  -0.490  0.00  0.00    +0.140 C 
ATOM     10  S   UNL     1      -1.649   5.553  -0.490  0.00  0.00    -0.018 S 
BRANCH   9  13
ATOM     11  C   UNL     1      -3.801   3.944   0.590  0.00  0.00    +0.253 C 
ATOM     12  O   UNL     1      -3.702   5.153   0.667  0.00  0.00    -0.270 OA
ATOM     13  N   UNL     1      -2.823   3.223   0.007  0.00  0.00    -0.264 N 
ATOM     14  H   UNL     1      -2.902   2.259  -0.055  0.00  0.00    +0.157 HD
BRANCH  11  20
ATOM     15  C   UNL     1      -6.012   4.010   1.741  0.00  0.00    +0.132 A 
ATOM     16  C   UNL     1      -7.128   3.362   2.249  0.00  0.00    +0.047 A 
ATOM     17  C   UNL     1      -7.232   1.988   2.157  0.00  0.00    +0.019 A 
ATOM     18  C   UNL     1      -6.226   1.247   1.557  0.00  0.00    +0.019 A 
ATOM     19  C   UNL     1      -5.113   1.876   1.042  0.00  0.00    +0.032 A 
ATOM     20  C   UNL     1      -4.992   3.265   1.134  0.00  0.00    +0.080 A 
ATOM     21 BR   UNL     1      -6.385  -0.633   1.438  0.00  0.00    -0.050 Br
BRANCH  15  23
ATOM     22  C   UNL     1      -6.987   6.052   2.463  0.00  0.00    +0.277 C 
ATOM     23  O   UNL     1      -5.909   5.360   1.831  0.00  0.00    -0.494 OA
ENDBRANCH  15  23
ENDBRANCH  11  20
ENDBRANCH   9  13
ENDBRANCH   1   9
BRANCH   7  24
ATOM     24  C   UNL     1       0.072   1.059   0.086  0.00  0.00    +0.152 C 
BRANCH  24  25
ATOM     25  C   UNL     1      -0.555   1.398   1.414  0.00  0.00    +0.309 C 
ATOM     26  O   UNL     1      -1.645   1.919   1.452  0.00  0.00    -0.251 OA
BRANCH  25  27
ATOM     27  O   UNL     1       0.096   1.122   2.554  0.00  0.00    -0.462 OA
BRANCH  27  28
ATOM     28  C   UNL     1      -0.568   1.476   3.796  0.00  0.00    +0.263 C 
BRANCH  28  29
ATOM     29  C   UNL     1       0.321   1.088   4.979  0.00  0.00    +0.156 C 
ATOM     30  C   UNL     1      -0.425   1.355   6.304  0.00  0.00    +0.037 C 
ATOM     31  C   UNL     1       0.706   1.909   7.213  0.00  0.00    +0.031 C 
ATOM     32  C   UNL     1       1.563   2.682   6.178  0.00  0.00    +0.160 C 
ATOM     33  O   UNL     1       1.507   1.891   4.980  0.00  0.00    -0.373 OA
ENDBRANCH  28  29
ENDBRANCH  27  28
ENDBRANCH  25  27
ENDBRANCH  24  25
ENDBRANCH   7  24
TORSDOF 9
