REMARK  Name = ZINC59489458
REMARK  10 active torsions:
REMARK  status: ('A' for Active; 'I' for Inactive)
REMARK    1  A    between atoms: C_1  and  C_2
REMARK    2  A    between atoms: C_2  and  C_26
REMARK    3  A    between atoms: N_3  and  N_4
REMARK    4  A    between atoms: C_5  and  S_7
REMARK    5  A    between atoms: S_7  and  C_8
REMARK    6  A    between atoms: N_13  and  C_16
REMARK    7  A    between atoms: C_19  and  C_22
REMARK    8  A    between atoms: C_22  and  O_24
REMARK    9  A    between atoms: O_24  and  C_25
REMARK   10  A    between atoms: C_29  and  C_32
REMARK                            x       y       z     vdW  Elec       q    Type
REMARK                         _______ _______ _______ _____ _____    ______ ____
ROOT
ATOM      1  N   UNL     1      -0.327   0.909   2.603  0.00  0.00    -0.217 N 
ATOM      2  C   UNL     1      -0.244   0.001   3.636  0.00  0.00    +0.146 C 
ATOM      3  N   UNL     1      -0.302  -1.278   3.386  0.00  0.00    -0.380 N 
ATOM      4  H   UNL     1      -0.284   1.860   2.789  0.00  0.00    +0.176 HD
ATOM      5  H   UNL     1      -0.244  -1.917   4.113  0.00  0.00    +0.158 HD
ATOM      6  H   UNL     1      -0.402  -1.590   2.473  0.00  0.00    +0.158 HD
ENDROOT
BRANCH   1   9
ATOM      7  C   UNL     1      -0.483   2.791   0.600  0.00  0.00    +0.068 C 
ATOM      8  C   UNL     1      -0.549   1.313   0.312  0.00  0.00    +0.063 C 
ATOM      9  N   UNL     1      -0.472   0.458   1.285  0.00  0.00    -0.185 NA
BRANCH   8  10
ATOM     10  C   UNL     1      -0.702   0.839  -1.076  0.00  0.00    -0.003 A 
ATOM     11  C   UNL     1      -0.780   1.757  -2.127  0.00  0.00    +0.010 A 
ATOM     12  C   UNL     1      -0.923   1.306  -3.422  0.00  0.00    +0.004 A 
ATOM     13  C   UNL     1      -0.989  -0.051  -3.683  0.00  0.00    -0.044 A 
ATOM     14  C   UNL     1      -0.912  -0.966  -2.648  0.00  0.00    +0.004 A 
ATOM     15  C   UNL     1      -0.763  -0.530  -1.347  0.00  0.00    +0.010 A 
BRANCH  13  16
ATOM     16  C   UNL     1      -1.145  -0.536  -5.101  0.00  0.00    +0.019 C 
ATOM     17  C   UNL     1      -2.438  -1.346  -5.224  0.00  0.00    +0.008 C 
ATOM     18  C   UNL     1      -2.597  -1.837  -6.664  0.00  0.00    +0.001 C 
ATOM     19  C   UNL     1      -1.404  -2.721  -7.036  0.00  0.00    +0.000 C 
ATOM     20  C   UNL     1      -0.112  -1.911  -6.913  0.00  0.00    +0.001 C 
ATOM     21  C   UNL     1       0.047  -1.419  -5.473  0.00  0.00    +0.008 C 
ENDBRANCH  13  16
ENDBRANCH   8  10
ENDBRANCH   1   9
BRANCH   2  22
ATOM     22  S   UNL     1      -0.062   0.568   5.294  0.00  0.00    -0.078 S 
BRANCH  22  23
ATOM     23  C   UNL     1      -0.001  -0.957   6.275  0.00  0.00    +0.149 C 
ATOM     24  C   UNL     1       0.231  -0.635   7.765  0.00  0.00    +0.120 C 
ATOM     25  C   UNL     1      -1.008  -1.181   8.442  0.00  0.00    +0.228 C 
ATOM     26  O   UNL     1      -1.235  -1.135   9.632  0.00  0.00    -0.275 OA
ATOM     27  N   UNL     1      -1.813  -1.720   7.519  0.00  0.00    -0.209 N 
ATOM     28  C   UNL     1      -1.344  -1.653   6.263  0.00  0.00    +0.240 C 
ATOM     29  O   UNL     1      -1.906  -2.078   5.277  0.00  0.00    -0.274 OA
BRANCH  27  30
ATOM     30  C   UNL     1      -3.040  -2.309   7.837  0.00  0.00    +0.044 A 
ATOM     31  C   UNL     1      -4.086  -1.521   8.305  0.00  0.00    +0.025 A 
ATOM     32  C   UNL     1      -5.297  -2.097   8.620  0.00  0.00    +0.017 A 
ATOM     33  C   UNL     1      -5.474  -3.475   8.467  0.00  0.00    +0.059 A 
ATOM     34  C   UNL     1      -4.420  -4.263   7.996  0.00  0.00    +0.017 A 
ATOM     35  C   UNL     1      -3.214  -3.679   7.678  0.00  0.00    +0.025 A 
BRANCH  33  36
ATOM     36  C   UNL     1      -6.769  -4.096   8.803  0.00  0.00    +0.339 C 
ATOM     37  O   UNL     1      -7.683  -3.409   9.213  0.00  0.00    -0.245 OA
BRANCH  36  38
ATOM     38  O   UNL     1      -6.937  -5.425   8.656  0.00  0.00    -0.464 OA
ATOM     39  C   UNL     1      -8.217  -5.958   9.000  0.00  0.00    +0.280 C 
ENDBRANCH  36  38
ENDBRANCH  33  36
ENDBRANCH  27  30
ENDBRANCH  22  23
ENDBRANCH   2  22
TORSDOF 8
