REMARK  Name = ZINC08917921
REMARK  7 active torsions:
REMARK  status: ('A' for Active; 'I' for Inactive)
REMARK    1  A    between atoms: C_1  and  C_2
REMARK    2  A    between atoms: C_8  and  C_36
REMARK    3  A    between atoms: C_9  and  O_35
REMARK    4  A    between atoms: C_19  and  C_21
REMARK    5  A    between atoms: C_21  and  N_66
REMARK    6  A    between atoms: C_24  and  C_27
REMARK    7  A    between atoms: C_24  and  O_34
REMARK                            x       y       z     vdW  Elec       q    Type
REMARK                         _______ _______ _______ _____ _____    ______ ____
ROOT
ATOM      1  C   UNL     1      -3.392   5.162   3.542  0.00  0.00    +0.008 C 
ATOM      2  C   UNL     1      -2.060   4.615   4.037  0.00  0.00    -0.001 C 
ATOM      3  C   UNL     1      -1.137   5.776   4.402  0.00  0.00    +0.008 C 
ATOM      4  C   UNL     1       0.083   5.182   5.120  0.00  0.00    +0.027 C 
ATOM      5  C   UNL     1       0.741   4.226   4.164  0.00  0.00    -0.027 C 
ATOM      6  C   UNL     1       0.076   3.580   3.253  0.00  0.00    -0.061 C 
ATOM      7  C   UNL     1      -1.413   3.669   3.039  0.00  0.00    +0.018 C 
ATOM      8  C   UNL     1      -1.697   4.039   1.596  0.00  0.00    +0.132 C 
ATOM      9  C   UNL     1      -0.794   3.447   0.553  0.00  0.00    +0.071 C 
ATOM     10  C   UNL     1       0.682   3.237   0.899  0.00  0.00    +0.187 C 
ATOM     11  C   UNL     1       0.846   2.672   2.317  0.00  0.00    +0.076 C 
ATOM     12  O   UNL     1       1.077   2.146  -0.015  0.00  0.00    -0.460 OA
ATOM     13  C   UNL     1       0.047   1.269  -0.025  0.00  0.00    +0.309 C 
ATOM     14  O   UNL     1       0.130   0.068  -0.061  0.00  0.00    -0.251 OA
ATOM     15  C   UNL     1      -1.241   2.076   0.025  0.00  0.00    +0.090 C 
ATOM     16  C   UNL     1      -2.006   2.278   3.315  0.00  0.00    +0.018 C 
ENDROOT
BRANCH   8  17
ATOM     17  O   UNL     1      -3.035   3.625   1.259  0.00  0.00    -0.391 OA
ATOM     18  H   UNL     1      -3.293   3.828   0.349  0.00  0.00    +0.210 HD
ENDBRANCH   8  17
BRANCH  15  19
ATOM     19  C   UNL     1      -1.829   2.215  -1.385  0.00  0.00    -0.064 C 
BRANCH  19  25
ATOM     20  C   UNL     1      -2.336   0.894  -3.349  0.00  0.00    -0.076 C 
ATOM     21  C   UNL     1      -2.599  -0.529  -3.846  0.00  0.00    +0.021 C 
ATOM     22  C   UNL     1      -3.890  -1.055  -3.213  0.00  0.00    +0.088 C 
ATOM     23  C   UNL     1      -3.760  -1.004  -1.688  0.00  0.00    +0.021 C 
ATOM     24  C   UNL     1      -3.463   0.434  -1.254  0.00  0.00    -0.076 C 
ATOM     25  N   UNL     1      -2.196   0.871  -1.878  0.00  0.00    +0.380 N 
ATOM     26  H   UNL     1      -1.454   0.209  -1.625  0.00  0.00    -0.082 HD
BRANCH  22  27
ATOM     27  C   UNL     1      -4.123  -2.478  -3.651  0.00  0.00    -0.016 A 
ATOM     28  C   UNL     1      -3.597  -3.522  -2.914  0.00  0.00    +0.008 A 
ATOM     29  C   UNL     1      -3.814  -4.828  -3.312  0.00  0.00    +0.020 A 
ATOM     30  C   UNL     1      -4.550  -5.089  -4.455  0.00  0.00    +0.041 A 
ATOM     31  C   UNL     1      -5.072  -4.043  -5.195  0.00  0.00    +0.020 A 
ATOM     32  C   UNL     1      -4.858  -2.738  -4.793  0.00  0.00    +0.008 A 
ATOM     33 CL   UNL     1      -4.818  -6.728  -4.959  0.00  0.00    -0.084 Cl
ENDBRANCH  22  27
BRANCH  22  34
ATOM     34  O   UNL     1      -4.991  -0.242  -3.626  0.00  0.00    -0.384 OA
ATOM     35  H   UNL     1      -5.133  -0.228  -4.582  0.00  0.00    +0.211 HD
ENDBRANCH  22  34
ENDBRANCH  19  25
ENDBRANCH  15  19
TORSDOF 5
