REMARK  Name = ZINC59402753
REMARK  7 active torsions:
REMARK  status: ('A' for Active; 'I' for Inactive)
REMARK    1  A    between atoms: C_3  and  C_6
REMARK    2  A    between atoms: C_6  and  N_7
REMARK    3  A    between atoms: C_8  and  C_10
REMARK    4  A    between atoms: N_15  and  C_16
REMARK    5  A    between atoms: C_16  and  C_17
REMARK    6  A    between atoms: N_19  and  C_20
REMARK    7  A    between atoms: C_21  and  C_29
REMARK                            x       y       z     vdW  Elec       q    Type
REMARK                         _______ _______ _______ _____ _____    ______ ____
ROOT
ATOM      1  C   UNL     1       5.944   0.555   2.996  0.00  0.00    +0.020 C 
ATOM      2  C   UNL     1       5.449  -0.715   3.718  0.00  0.00    -0.008 C 
ATOM      3  C   UNL     1       6.651  -1.686   3.581  0.00  0.00    -0.020 C 
ATOM      4  C   UNL     1       7.852  -0.715   3.697  0.00  0.00    -0.077 C 
ATOM      5  N   UNL     1       7.418   0.513   2.992  0.00  0.00    +0.393 N 
ATOM      6  H   UNL     1       7.754   0.497   2.041  0.00  0.00    -0.080 HD
ENDROOT
BRANCH   1   8
ATOM      7  N   UNL     1       4.101   0.607   1.347  0.00  0.00    -0.310 N 
ATOM      8  C   UNL     1       5.428   0.575   1.580  0.00  0.00    +0.200 C 
ATOM      9  O   UNL     1       6.207   0.561   0.650  0.00  0.00    -0.278 OA
ATOM     10  H   UNL     1       3.478   0.617   2.090  0.00  0.00    +0.149 HD
BRANCH   7  11
ATOM     11  C   UNL     1       3.599   0.625  -0.029  0.00  0.00    +0.178 C 
BRANCH  11  14
ATOM     12  C   UNL     1      -0.016   1.341   0.009  0.00  0.00    +0.041 A 
ATOM     13  C   UNL     1       1.331   1.769  -0.001  0.00  0.00    +0.046 A 
ATOM     14  C   UNL     1       2.092   0.660  -0.014  0.00  0.00    +0.122 A 
ATOM     15  O   UNL     1       1.282  -0.411  -0.012  0.00  0.00    -0.466 OA
ATOM     16  C   UNL     1       0.002  -0.004   0.002  0.00  0.00    +0.195 A 
ENDBRANCH  11  14
ENDBRANCH   7  11
ENDBRANCH   1   8
BRANCH   5  17
ATOM     17  C   UNL     1       7.948   1.697   3.681  0.00  0.00    +0.020 C 
BRANCH  17  18
ATOM     18  C   UNL     1       9.451   1.713   3.568  0.00  0.00    +0.201 C 
ATOM     19  O   UNL     1      10.024   0.826   2.972  0.00  0.00    -0.278 OA
ATOM     20  N   UNL     1      10.158   2.713   4.130  0.00  0.00    -0.281 N 
ATOM     21  H   UNL     1       9.700   3.423   4.607  0.00  0.00    +0.155 HD
BRANCH  20  22
ATOM     22  C   UNL     1      11.542   2.728   4.026  0.00  0.00    +0.090 A 
ATOM     23  C   UNL     1      12.425   3.664   4.540  0.00  0.00    +0.084 A 
ATOM     24  C   UNL     1      13.839   3.450   4.291  0.00  0.00    -0.018 A 
ATOM     25  C   UNL     1      14.112   2.339   3.573  0.00  0.00    -0.004 A 
ATOM     26  S   UNL     1      12.531   1.612   3.254  0.00  0.00    -0.077 S 
ATOM     27  C   UNL     1      15.463   1.848   3.153  0.00  0.00    +0.043 C 
ATOM     28  C   UNL     1      16.470   2.993   3.337  0.00  0.00    +0.005 C 
ATOM     29  C   UNL     1      16.276   3.607   4.726  0.00  0.00    +0.005 C 
ATOM     30  C   UNL     1      14.950   4.369   4.778  0.00  0.00    +0.037 C 
BRANCH  23  31
ATOM     31  C   UNL     1      11.961   4.795   5.285  0.00  0.00    +0.102 C 
ATOM     32  N   UNL     1      11.594   5.693   5.877  0.00  0.00    -0.191 NA
ENDBRANCH  23  31
ENDBRANCH  20  22
ENDBRANCH  17  18
ENDBRANCH   5  17
TORSDOF 7
