REMARK  Name = ZINC15838499
REMARK  7 active torsions:
REMARK  status: ('A' for Active; 'I' for Inactive)
REMARK    1  A    between atoms: N_9  and  S_11
REMARK    2  A    between atoms: S_11  and  C_14
REMARK    3  A    between atoms: C_17  and  C_20
REMARK    4  A    between atoms: C_22  and  C_32
REMARK    5  A    between atoms: C_23  and  N_25
REMARK    6  A    between atoms: N_25  and  C_26
REMARK    7  A    between atoms: C_26  and  C_27
REMARK                            x       y       z     vdW  Elec       q    Type
REMARK                         _______ _______ _______ _____ _____    ______ ____
ROOT
ATOM      1  C   UNL     1      -3.433  -2.501   0.023  0.00  0.00    +0.106 A 
ATOM      2  C   UNL     1      -2.171  -3.067   0.007  0.00  0.00    +0.029 A 
ATOM      3  C   UNL     1      -1.051  -2.261   0.000  0.00  0.00    +0.015 A 
ATOM      4  C   UNL     1      -1.193  -0.873   0.009  0.00  0.00    +0.037 A 
ATOM      5  C   UNL     1      -2.470  -0.308   0.031  0.00  0.00    +0.015 A 
ATOM      6  C   UNL     1      -3.582  -1.125   0.032  0.00  0.00    +0.029 A 
ENDROOT
BRANCH   4   7
ATOM      7  C   UNL     1       0.002  -0.004   0.002  0.00  0.00    +0.231 A 
ATOM      8  N   UNL     1       1.240  -0.425  -0.012  0.00  0.00    -0.196 NA
ATOM      9  C   UNL     1       2.065   0.655  -0.014  0.00  0.00    +0.201 A 
ATOM     10  C   UNL     1       1.256   1.781  -0.000  0.00  0.00    +0.225 A 
ATOM     11  O   UNL     1      -0.016   1.343   0.009  0.00  0.00    -0.421 OA
BRANCH  10  12
ATOM     12  N   UNL     1       1.673   3.094   0.003  0.00  0.00    -0.306 N 
ATOM     13  H   UNL     1       2.620   3.302  -0.006  0.00  0.00    +0.149 HD
BRANCH  12  14
ATOM     14  C   UNL     1       0.686   4.177   0.018  0.00  0.00    +0.178 C 
BRANCH  14  15
ATOM     15  C   UNL     1       1.397   5.505   0.019  0.00  0.00    +0.122 A 
ATOM     16  C   UNL     1       1.757   6.205  -1.072  0.00  0.00    +0.046 A 
ATOM     17  C   UNL     1       2.393   7.381  -0.613  0.00  0.00    +0.041 A 
ATOM     18  C   UNL     1       2.383   7.330   0.731  0.00  0.00    +0.195 A 
ATOM     19  O   UNL     1       1.773   6.194   1.108  0.00  0.00    -0.466 OA
ENDBRANCH  14  15
ENDBRANCH  12  14
ENDBRANCH  10  12
BRANCH   9  20
ATOM     20  C   UNL     1       3.497   0.634  -0.028  0.00  0.00    +0.124 C 
ATOM     21  N   UNL     1       4.633   0.618  -0.039  0.00  0.00    -0.189 NA
ENDBRANCH   9  20
ENDBRANCH   4   7
BRANCH   1  22
ATOM     22  S   UNL     1      -4.859  -3.537   0.033  0.00  0.00    +0.061 S 
ATOM     23  O   UNL     1      -5.925  -2.765  -0.503  0.00  0.00    -0.153 OA
ATOM     24  O   UNL     1      -4.461  -4.780  -0.528  0.00  0.00    -0.153 OA
BRANCH  22  33
ATOM     25  C   UNL     1      -4.647  -2.097   6.271  0.00  0.00    +0.000 A 
ATOM     26  C   UNL     1      -5.721  -1.395   5.757  0.00  0.00    +0.000 A 
ATOM     27  C   UNL     1      -6.187  -1.687   4.492  0.00  0.00    +0.005 A 
ATOM     28  C   UNL     1      -5.585  -2.680   3.731  0.00  0.00    -0.028 A 
ATOM     29  C   UNL     1      -4.510  -3.375   4.238  0.00  0.00    -0.042 A 
ATOM     30  C   UNL     1      -4.045  -3.081   5.515  0.00  0.00    +0.004 A 
ATOM     31  C   UNL     1      -3.795  -4.452   3.466  0.00  0.00    +0.052 C 
ATOM     32  C   UNL     1      -4.680  -4.990   2.335  0.00  0.00    +0.114 C 
ATOM     33  N   UNL     1      -5.238  -3.832   1.617  0.00  0.00    -0.172 NA
ATOM     34  C   UNL     1      -6.150  -2.955   2.360  0.00  0.00    +0.144 C 
ENDBRANCH  22  33
ENDBRANCH   1  22
TORSDOF 7
