REMARK  Name = ZINC11012809
REMARK  11 active torsions:
REMARK  status: ('A' for Active; 'I' for Inactive)
REMARK    1  A    between atoms: C_1  and  C_2
REMARK    2  A    between atoms: C_2  and  C_3
REMARK    3  A    between atoms: C_2  and  C_4
REMARK    4  A    between atoms: C_4  and  C_6
REMARK    5  A    between atoms: C_4  and  N_16
REMARK    6  A    between atoms: C_17  and  C_19
REMARK    7  A    between atoms: C_19  and  N_57
REMARK    8  A    between atoms: C_20  and  N_57
REMARK    9  A    between atoms: C_21  and  C_22
REMARK   10  A    between atoms: C_21  and  N_57
REMARK   11  A    between atoms: C_24  and  N_29
REMARK                            x       y       z     vdW  Elec       q    Type
REMARK                         _______ _______ _______ _____ _____    ______ ____
ROOT
ATOM      1  N   UNL     1      -4.657  -0.137  -0.860  0.00  0.00    -0.310 N 
ATOM      2  C   UNL     1      -5.660  -0.844  -1.419  0.00  0.00    +0.197 C 
ATOM      3  O   UNL     1      -5.762  -2.031  -1.195  0.00  0.00    -0.278 OA
ATOM      4  H   UNL     1      -4.575   0.813  -1.039  0.00  0.00    +0.149 HD
ENDROOT
BRANCH   1   5
ATOM      5  C   UNL     1      -3.692  -0.803   0.018  0.00  0.00    +0.106 C 
BRANCH   5   6
ATOM      6  C   UNL     1      -2.397  -0.033   0.016  0.00  0.00    -0.023 A 
ATOM      7  C   UNL     1      -2.415   1.349   0.026  0.00  0.00    +0.009 A 
ATOM      8  C   UNL     1      -1.229   2.059   0.019  0.00  0.00    +0.050 A 
ATOM      9  C   UNL     1      -0.017   1.385   0.010  0.00  0.00    +0.162 A 
ATOM     10  C   UNL     1       0.002  -0.004   0.002  0.00  0.00    +0.162 A 
ATOM     11  C   UNL     1      -1.192  -0.710   0.004  0.00  0.00    +0.055 A 
ATOM     12  O   UNL     1       1.181  -0.685  -0.007  0.00  0.00    -0.485 OA
ATOM     13  C   UNL     1       2.347   0.053  -0.387  0.00  0.00    +0.270 C 
ATOM     14  C   UNL     1       2.334   1.392   0.364  0.00  0.00    +0.270 C 
ATOM     15  O   UNL     1       1.143   2.098   0.002  0.00  0.00    -0.485 OA
ENDBRANCH   5   6
BRANCH   5  17
ATOM     16  C   UNL     1      -5.566  -1.640   1.443  0.00  0.00    +0.009 C 
ATOM     17  C   UNL     1      -4.250  -0.858   1.441  0.00  0.00    +0.008 C 
ATOM     18  C   UNL     1      -3.242  -1.554   2.358  0.00  0.00    +0.009 C 
ENDBRANCH   5  17
ENDBRANCH   1   5
BRANCH   2  19
ATOM     19  C   UNL     1      -6.653  -0.158  -2.322  0.00  0.00    +0.019 C 
BRANCH  19  21
ATOM     20  C   UNL     1      -8.461  -1.639  -1.691  0.00  0.00    -0.095 C 
ATOM     21  N   UNL     1      -7.623  -1.160  -2.811  0.00  0.00    +0.386 N 
ATOM     22  H   UNL     1      -7.110  -1.956  -3.208  0.00  0.00    -0.081 HD
BRANCH  21  23
ATOM     23  C   UNL     1      -8.476  -0.566  -3.862  0.00  0.00    -0.041 C 
BRANCH  23  24
ATOM     24  C   UNL     1      -9.300  -1.659  -4.493  0.00  0.00    -0.043 A 
ATOM     25  C   UNL     1     -10.648  -1.764  -4.202  0.00  0.00    +0.036 A 
ATOM     26  C   UNL     1     -11.405  -2.762  -4.785  0.00  0.00    +0.126 A 
ATOM     27  C   UNL     1     -10.813  -3.662  -5.652  0.00  0.00    +0.034 A 
ATOM     28  C   UNL     1      -9.466  -3.562  -5.940  0.00  0.00    +0.022 A 
ATOM     29  C   UNL     1      -8.708  -2.559  -5.360  0.00  0.00    +0.042 A 
ATOM     30 CL   UNL     1      -7.015  -2.431  -5.721  0.00  0.00    -0.083 Cl
BRANCH  26  31
ATOM     31  N   UNL     1     -12.848  -2.872  -4.477  0.00  0.00    +0.056 N 
ATOM     32  O   UNL     1     -13.515  -3.754  -4.987  0.00  0.00    -0.126 OA
ATOM     33  O   UNL     1     -13.370  -2.079  -3.713  0.00  0.00    -0.126 OA
ENDBRANCH  26  31
ENDBRANCH  23  24
ENDBRANCH  21  23
ENDBRANCH  19  21
ENDBRANCH   2  19
TORSDOF 8
