REMARK  Name = ZINC28535753
REMARK  7 active torsions:
REMARK  status: ('A' for Active; 'I' for Inactive)
REMARK    1  A    between atoms: C_1  and  C_2
REMARK    2  A    between atoms: C_2  and  C_3
REMARK    3  A    between atoms: C_8  and  N_9
REMARK    4  A    between atoms: N_13  and  N_25
REMARK    5  A    between atoms: C_14  and  S_17
REMARK    6  A    between atoms: S_17  and  C_18
REMARK    7  A    between atoms: C_18  and  C_19
REMARK                            x       y       z     vdW  Elec       q    Type
REMARK                         _______ _______ _______ _____ _____    ______ ____
ROOT
ATOM      1  N   UNL     1      -5.757  -0.902   0.053  0.00  0.00    -0.293 N 
ATOM      2  C   UNL     1      -4.373  -0.727   0.048  0.00  0.00    +0.212 A 
ATOM      3  C   UNL     1      -3.506  -1.852   0.053  0.00  0.00    +0.312 A 
ATOM      4  O   UNL     1      -3.951  -2.987   0.060  0.00  0.00    -0.262 OA
ATOM      5  N   UNL     1      -2.172  -1.627   0.049  0.00  0.00    -0.205 N 
ATOM      6  C   UNL     1      -1.728  -0.336   0.040  0.00  0.00    +0.210 A 
ATOM      7  N   UNL     1      -2.584   0.667   0.041  0.00  0.00    -0.121 NA
ATOM      8  N   UNL     1      -3.855   0.483   0.039  0.00  0.00    -0.126 NA
ATOM      9  H   UNL     1      -6.184  -1.912  -0.038  0.00  0.00    +0.154 HD
ENDROOT
BRANCH   1  15
ATOM     10  C   UNL     1      -7.902   0.143  -0.311  0.00  0.00    -0.026 A 
ATOM     11  C   UNL     1      -8.733   1.239  -0.192  0.00  0.00    +0.005 A 
ATOM     12  C   UNL     1      -8.273   2.397   0.409  0.00  0.00    +0.000 A 
ATOM     13  C   UNL     1      -6.978   2.461   0.892  0.00  0.00    +0.002 A 
ATOM     14  C   UNL     1      -6.143   1.367   0.780  0.00  0.00    +0.023 A 
ATOM     15  C   UNL     1      -6.601   0.204   0.172  0.00  0.00    +0.036 A 
BRANCH  10  17
ATOM     16  C   UNL     1      -8.915  -2.081   0.107  0.00  0.00    +0.009 C 
ATOM     17  C   UNL     1      -8.405  -1.117  -0.966  0.00  0.00    +0.033 C 
ENDBRANCH  10  17
ENDBRANCH   1  15
BRANCH   5  18
ATOM     18  N   UNL     1      -1.288  -2.669   0.053  0.00  0.00    -0.293 N 
ATOM     19  H   UNL     1      -0.206  -2.472   0.050  0.00  0.00    +0.163 HD
ATOM     20  H   UNL     1      -1.659  -3.704   0.061  0.00  0.00    +0.163 HD
ENDBRANCH   5  18
BRANCH   6  21
ATOM     21  S   UNL     1       0.003  -0.007   0.034  0.00  0.00    -0.080 S 
BRANCH  21  22
ATOM     22  C   UNL     1      -0.021   1.803   0.023  0.00  0.00    +0.112 C 
BRANCH  22  23
ATOM     23  C   UNL     1       1.393   2.323   0.016  0.00  0.00    -0.037 A 
ATOM     24  C   UNL     1       2.042   2.575   1.210  0.00  0.00    +0.004 A 
ATOM     25  C   UNL     1       3.341   3.048   1.205  0.00  0.00    +0.000 A 
ATOM     26  C   UNL     1       3.987   3.279   0.005  0.00  0.00    +0.000 A 
ATOM     27  C   UNL     1       3.336   3.033  -1.190  0.00  0.00    +0.000 A 
ATOM     28  C   UNL     1       2.039   2.555  -1.184  0.00  0.00    +0.004 A 
ENDBRANCH  22  23
ENDBRANCH  21  22
ENDBRANCH   6  21
TORSDOF 6
