REMARK  Name = ZINC02081676
REMARK  10 active torsions:
REMARK  status: ('A' for Active; 'I' for Inactive)
REMARK    1  A    between atoms: C_1  and  C_2
REMARK    2  A    between atoms: C_2  and  C_3
REMARK    3  A    between atoms: C_3  and  C_4
REMARK    4  A    between atoms: C_3  and  C_5
REMARK    5  A    between atoms: C_3  and  C_6
REMARK    6  A    between atoms: C_13  and  N_18
REMARK    7  A    between atoms: C_14  and  C_15
REMARK    8  A    between atoms: C_19  and  C_21
REMARK    9  A    between atoms: C_22  and  C_33
REMARK   10  A    between atoms: C_25  and  C_26
REMARK                            x       y       z     vdW  Elec       q    Type
REMARK                         _______ _______ _______ _____ _____    ______ ____
ROOT
ATOM      1  C   UNL     1       0.011   1.072   2.506  0.00  0.00    -0.000 C 
ATOM      2  C   UNL     1      -0.704   1.565   3.768  0.00  0.00    +0.009 C 
ATOM      3  C   UNL     1       0.157   1.276   5.000  0.00  0.00    +0.037 C 
ATOM      4  C   UNL     1       0.548  -0.196   4.990  0.00  0.00    -0.023 A 
ATOM      5  C   UNL     1       0.469  -0.930   3.859  0.00  0.00    -0.004 A 
ATOM      6  S   UNL     1       1.015  -2.547   4.330  0.00  0.00    -0.077 S 
ATOM      7  C   UNL     1       1.345  -2.255   6.005  0.00  0.00    +0.085 A 
ATOM      8  C   UNL     1       1.024  -0.913   6.161  0.00  0.00    +0.068 A 
ATOM      9  C   UNL     1       0.018  -0.463   2.510  0.00  0.00    +0.046 C 
ENDROOT
BRANCH   8  10
ATOM     10  C   UNL     1       1.162  -0.244   7.458  0.00  0.00    +0.244 C 
ATOM     11  O   UNL     1       0.227  -0.231   8.238  0.00  0.00    -0.270 OA
ATOM     12  N   UNL     1       2.323   0.356   7.788  0.00  0.00    -0.325 N 
ATOM     13  H   UNL     1       3.067   0.345   7.166  0.00  0.00    +0.145 HD
ATOM     14  H   UNL     1       2.413   0.798   8.646  0.00  0.00    +0.145 HD
ENDBRANCH   8  10
BRANCH   7  15
ATOM     15  N   UNL     1       1.814  -3.144   6.958  0.00  0.00    -0.275 N 
ATOM     16  C   UNL     1       2.073  -4.422   6.618  0.00  0.00    +0.254 C 
ATOM     17  O   UNL     1       1.895  -4.795   5.474  0.00  0.00    -0.270 OA
ATOM     18  H   UNL     1       1.956  -2.847   7.871  0.00  0.00    +0.156 HD
BRANCH  16  19
ATOM     19  C   UNL     1       2.572  -5.367   7.630  0.00  0.00    +0.106 A 
ATOM     20  C   UNL     1       3.871  -5.646   7.974  0.00  0.00    +0.147 A 
ATOM     21  O   UNL     1       3.819  -6.566   8.941  0.00  0.00    -0.359 OA
ATOM     22  N   UNL     1       2.695  -6.888   9.236  0.00  0.00    -0.077 NA
ATOM     23  C   UNL     1       1.798  -6.245   8.533  0.00  0.00    +0.127 A 
ATOM     24  C   UNL     1       5.112  -5.034   7.378  0.00  0.00    +0.090 C 
BRANCH  23  25
ATOM     25  C   UNL     1       0.323  -6.372   8.620  0.00  0.00    +0.023 A 
ATOM     26  C   UNL     1      -0.496  -5.605   7.793  0.00  0.00    +0.011 A 
ATOM     27  C   UNL     1      -1.868  -5.731   7.875  0.00  0.00    +0.001 A 
ATOM     28  C   UNL     1      -2.432  -6.608   8.784  0.00  0.00    +0.001 A 
ATOM     29  C   UNL     1      -1.626  -7.369   9.611  0.00  0.00    +0.020 A 
ATOM     30  C   UNL     1      -0.251  -7.256   9.534  0.00  0.00    +0.050 A 
ATOM     31 CL   UNL     1       0.760  -8.210  10.574  0.00  0.00    -0.083 Cl
ENDBRANCH  23  25
ENDBRANCH  16  19
ENDBRANCH   7  15
BRANCH   1  32
ATOM     32  C   UNL     1      -0.729   1.579   1.267  0.00  0.00    -0.032 C 
ATOM     33  C   UNL     1      -0.750   3.109   1.275  0.00  0.00    +0.011 C 
ATOM     34  C   UNL     1      -2.164   1.050   1.278  0.00  0.00    +0.011 C 
BRANCH  32  36
ATOM     35  C   UNL     1      -0.753   1.593  -1.232  0.00  0.00    +0.004 C 
ATOM     36  C   UNL     1      -0.013   1.086   0.008  0.00  0.00    +0.003 C 
ENDBRANCH  32  36
ENDBRANCH   1  32
TORSDOF 6
