REMARK  Name = ZINC21722101
REMARK  4 active torsions:
REMARK  status: ('A' for Active; 'I' for Inactive)
REMARK    1  A    between atoms: C_1  and  C_2
REMARK    2  A    between atoms: C_2  and  C_29
REMARK    3  A    between atoms: C_6  and  C_20
REMARK    4  A    between atoms: N_18  and  C_19
REMARK                            x       y       z     vdW  Elec       q    Type
REMARK                         _______ _______ _______ _____ _____    ______ ____
ROOT
ATOM      1  C   UNL     1       3.661   0.331  -3.905  0.00  0.00    +0.011 C 
ATOM      2  C   UNL     1       4.890   0.195  -3.003  0.00  0.00    -0.023 C 
ATOM      3  C   UNL     1       4.450   0.037  -1.549  0.00  0.00    +0.058 C 
ATOM      4  C   UNL     1       3.644   1.251  -1.117  0.00  0.00    +0.017 C 
ATOM      5  C   UNL     1       3.914   2.465  -1.627  0.00  0.00    +0.037 C 
ATOM      6  C   UNL     1       3.198   3.749  -1.285  0.00  0.00    +0.148 C 
ATOM      7  N   UNL     1       2.323   3.660  -0.136  0.00  0.00    -0.242 N 
ATOM      8  C   UNL     1       1.195   2.838  -0.154  0.00  0.00    +0.060 A 
ATOM      9  C   UNL     1      -0.085   3.367  -0.114  0.00  0.00    +0.025 A 
ATOM     10  C   UNL     1      -1.175   2.520  -0.214  0.00  0.00    +0.002 A 
ATOM     11  C   UNL     1      -0.992   1.156  -0.351  0.00  0.00    +0.002 A 
ATOM     12  C   UNL     1       0.285   0.621  -0.358  0.00  0.00    +0.025 A 
ATOM     13  C   UNL     1       1.375   1.467  -0.254  0.00  0.00    +0.053 A 
ATOM     14  N   UNL     1       2.681   0.995  -0.195  0.00  0.00    -0.316 N 
ATOM     15  C   UNL     1       2.600   4.381   0.969  0.00  0.00    +0.307 C 
ATOM     16  O   UNL     1       3.581   5.100   0.994  0.00  0.00    -0.252 OA
ATOM     17  N   UNL     1       1.792   4.306   2.044  0.00  0.00    -0.302 N 
ATOM     18  C   UNL     1       2.094   5.090   3.244  0.00  0.00    +0.129 C 
ATOM     19  C   UNL     1       4.942   2.621  -2.587  0.00  0.00    +0.163 C 
ATOM     20  O   UNL     1       5.181   3.734  -3.014  0.00  0.00    -0.292 OA
ATOM     21  C   UNL     1       5.746   1.463  -3.097  0.00  0.00    +0.086 C 
ATOM     22  C   UNL     1       5.715  -1.021  -3.430  0.00  0.00    +0.011 C 
ATOM     23  H   UNL     1       2.911   0.369   0.681  0.00  0.00    +0.152 HD
ATOM     24  H   UNL     1       0.905   3.655   2.021  0.00  0.00    +0.150 HD
ENDROOT
BRANCH   6  25
ATOM     25  C   UNL     1       2.377   4.170  -2.476  0.00  0.00    -0.022 A 
ATOM     26  C   UNL     1       1.341   3.370  -2.919  0.00  0.00    +0.006 A 
ATOM     27  C   UNL     1       0.584   3.758  -4.009  0.00  0.00    +0.000 A 
ATOM     28  C   UNL     1       0.870   4.943  -4.661  0.00  0.00    +0.000 A 
ATOM     29  C   UNL     1       1.909   5.742  -4.221  0.00  0.00    +0.000 A 
ATOM     30  C   UNL     1       2.663   5.355  -3.129  0.00  0.00    +0.006 A 
ENDBRANCH   6  25
TORSDOF 1
