REMARK  Name = ZINC60036607
REMARK  8 active torsions:
REMARK  status: ('A' for Active; 'I' for Inactive)
REMARK    1  A    between atoms: C_1  and  C_2
REMARK    2  A    between atoms: C_5  and  S_7
REMARK    3  A    between atoms: S_7  and  C_8
REMARK    4  A    between atoms: C_11  and  N_14
REMARK    5  A    between atoms: N_17  and  C_18
REMARK    6  A    between atoms: C_18  and  C_19
REMARK    7  A    between atoms: N_21  and  C_22
REMARK    8  A    between atoms: C_22  and  C_23
REMARK                            x       y       z     vdW  Elec       q    Type
REMARK                         _______ _______ _______ _____ _____    ______ ____
ROOT
ATOM      1  N   UNL     1       0.380  -8.659   0.352  0.00  0.00    -0.269 N 
ATOM      2  C   UNL     1       0.243  -9.710   1.185  0.00  0.00    +0.304 C 
ATOM      3  O   UNL     1       0.143  -9.527   2.383  0.00  0.00    -0.252 OA
ATOM      4  N   UNL     1       0.216 -10.963   0.690  0.00  0.00    -0.291 N 
ATOM      5  H   UNL     1       0.527  -8.807  -0.596  0.00  0.00    +0.156 HD
ATOM      6  H   UNL     1       0.295 -11.109  -0.266  0.00  0.00    +0.151 HD
ENDROOT
BRANCH   1  10
ATOM      7  C   UNL     1       0.176  -4.771   1.848  0.00  0.00    +0.015 A 
ATOM      8  C   UNL     1      -0.329  -5.058   0.586  0.00  0.00    +0.017 A 
ATOM      9  C   UNL     1      -0.262  -6.345   0.091  0.00  0.00    +0.024 A 
ATOM     10  C   UNL     1       0.312  -7.353   0.855  0.00  0.00    +0.035 A 
ATOM     11  C   UNL     1       0.817  -7.067   2.116  0.00  0.00    +0.024 A 
ATOM     12  C   UNL     1       0.755  -5.779   2.609  0.00  0.00    +0.017 A 
BRANCH   7  13
ATOM     13  S   UNL     1       0.091  -3.128   2.479  0.00  0.00    -0.063 S 
BRANCH  13  18
ATOM     14  C   UNL     1      -3.529  -1.212   5.758  0.00  0.00    +0.066 C 
ATOM     15  C   UNL     1      -2.979  -2.310   4.884  0.00  0.00    +0.047 A 
ATOM     16  C   UNL     1      -3.619  -3.497   4.752  0.00  0.00    +0.070 A 
ATOM     17  S   UNL     1      -2.520  -4.346   3.631  0.00  0.00    -0.069 S 
ATOM     18  C   UNL     1      -1.379  -3.122   3.451  0.00  0.00    +0.139 A 
ATOM     19  N   UNL     1      -1.855  -2.155   4.208  0.00  0.00    -0.238 NA
ENDBRANCH  13  18
ENDBRANCH   7  13
ENDBRANCH   1  10
BRANCH   4  20
ATOM     20  C   UNL     1       0.066 -12.105   1.595  0.00  0.00    +0.201 C 
BRANCH  20  21
ATOM     21  C   UNL     1       0.065 -13.383   0.796  0.00  0.00    +0.231 C 
ATOM     22  O   UNL     1       0.178 -13.344  -0.411  0.00  0.00    -0.274 OA
ATOM     23  N   UNL     1      -0.061 -14.569   1.423  0.00  0.00    -0.307 N 
ATOM     24  H   UNL     1      -0.152 -14.601   2.388  0.00  0.00    +0.149 HD
BRANCH  23  25
ATOM     25  C   UNL     1      -0.062 -15.812   0.646  0.00  0.00    +0.178 C 
BRANCH  25  26
ATOM     26  C   UNL     1      -0.216 -16.986   1.578  0.00  0.00    +0.122 A 
ATOM     27  C   UNL     1      -1.381 -17.540   1.960  0.00  0.00    +0.046 A 
ATOM     28  C   UNL     1      -1.061 -18.607   2.830  0.00  0.00    +0.041 A 
ATOM     29  C   UNL     1       0.280 -18.642   2.927  0.00  0.00    +0.195 A 
ATOM     30  O   UNL     1       0.787 -17.662   2.162  0.00  0.00    -0.466 OA
ENDBRANCH  25  26
ENDBRANCH  23  25
ENDBRANCH  20  21
ENDBRANCH   4  20
TORSDOF 7
