REMARK  Name = ZINC03079172
REMARK  8 active torsions:
REMARK  status: ('A' for Active; 'I' for Inactive)
REMARK    1  A    between atoms: C_1  and  C_2
REMARK    2  A    between atoms: C_5  and  C_30
REMARK    3  A    between atoms: C_6  and  O_8
REMARK    4  A    between atoms: O_8  and  C_9
REMARK    5  A    between atoms: C_9  and  C_10
REMARK    6  A    between atoms: N_12  and  N_13
REMARK    7  A    between atoms: C_30  and  C_31
REMARK    8  A    between atoms: C_30  and  C_32
REMARK                            x       y       z     vdW  Elec       q    Type
REMARK                         _______ _______ _______ _____ _____    ______ ____
ROOT
ATOM      1  N   UNL     1       0.069  -3.319   7.081  0.00  0.00    -0.169 N 
ATOM      2  C   UNL     1      -1.046  -3.510   7.766  0.00  0.00    +0.276 C 
ATOM      3  O   UNL     1      -2.097  -2.994   7.440  0.00  0.00    -0.267 OA
ATOM      4  C   UNL     1      -0.942  -4.393   8.960  0.00  0.00    +0.091 C 
ATOM      5  C   UNL     1      -1.918  -4.776   9.861  0.00  0.00    +0.065 C 
ATOM      6  C   UNL     1      -3.305  -4.274   9.951  0.00  0.00    +0.010 A 
ATOM      7  C   UNL     1      -4.027  -3.331   9.225  0.00  0.00    +0.010 A 
ATOM      8  C   UNL     1      -5.341  -3.071   9.557  0.00  0.00    +0.001 A 
ATOM      9  C   UNL     1      -5.938  -3.746  10.609  0.00  0.00    +0.002 A 
ATOM     10  C   UNL     1      -5.230  -4.682  11.337  0.00  0.00    +0.024 A 
ATOM     11  C   UNL     1      -3.906  -4.959  11.017  0.00  0.00    +0.042 A 
ATOM     12  N   UNL     1      -2.984  -5.837  11.576  0.00  0.00    -0.281 N 
ATOM     13  C   UNL     1      -1.803  -5.780  10.938  0.00  0.00    +0.250 C 
ATOM     14  O   UNL     1      -0.814  -6.437  11.202  0.00  0.00    -0.270 OA
ATOM     15  S   UNL     1       0.792  -4.823   8.908  0.00  0.00    -0.059 S 
ATOM     16  C   UNL     1       1.230  -3.899   7.444  0.00  0.00    +0.138 C 
ATOM     17  S   UNL     1       2.760  -3.777   6.684  0.00  0.00    -0.026 S 
ATOM     18  H   UNL     1      -3.171  -6.420  12.329  0.00  0.00    +0.155 HD
ENDROOT
BRANCH   1  21
ATOM     19  C   UNL     1       0.076  -3.048   4.715  0.00  0.00    +0.267 C 
ATOM     20  O   UNL     1       0.132  -4.253   4.591  0.00  0.00    -0.271 OA
ATOM     21  N   UNL     1       0.040  -2.498   5.946  0.00  0.00    -0.223 N 
ATOM     22  H   UNL     1      -0.005  -1.534   6.045  0.00  0.00    +0.174 HD
BRANCH  19  23
ATOM     23  C   UNL     1       0.045  -2.165   3.495  0.00  0.00    +0.326 C 
BRANCH  23  24
ATOM     24  O   UNL     1       0.092  -2.976   2.319  0.00  0.00    -0.482 OA
BRANCH  24  30
ATOM     25  C   UNL     1      -0.081   1.213  -0.180  0.00  0.00    +0.044 C 
ATOM     26  C   UNL     1      -0.011  -0.292  -0.135  0.00  0.00    -0.047 A 
ATOM     27  C   UNL     1       0.032  -1.017  -1.311  0.00  0.00    +0.004 A 
ATOM     28  C   UNL     1       0.095  -2.398  -1.273  0.00  0.00    +0.008 A 
ATOM     29  C   UNL     1       0.115  -3.056  -0.058  0.00  0.00    -0.003 A 
ATOM     30  C   UNL     1       0.072  -2.331   1.123  0.00  0.00    +0.125 A 
ATOM     31  C   UNL     1       0.015  -0.945   1.082  0.00  0.00    +0.049 A 
BRANCH  29  32
ATOM     32  C   UNL     1       0.184  -4.561  -0.017  0.00  0.00    +0.016 C 
ATOM     33  C   UNL     1      -1.034  -5.147  -0.735  0.00  0.00    +0.012 C 
ATOM     34  C   UNL     1       1.461  -5.033  -0.714  0.00  0.00    +0.012 C 
ENDBRANCH  29  32
ENDBRANCH  24  30
ENDBRANCH  23  24
ENDBRANCH  19  23
ENDBRANCH   1  21
TORSDOF 5
