REMARK  Name = ZINC12496758
REMARK  7 active torsions:
REMARK  status: ('A' for Active; 'I' for Inactive)
REMARK    1  A    between atoms: C_1  and  O_2
REMARK    2  A    between atoms: O_2  and  C_3
REMARK    3  A    between atoms: C_3  and  C_5
REMARK    4  A    between atoms: C_5  and  C_31
REMARK    5  A    between atoms: C_10  and  C_12
REMARK    6  A    between atoms: C_15  and  O_18
REMARK    7  A    between atoms: N_21  and  C_24
REMARK                            x       y       z     vdW  Elec       q    Type
REMARK                         _______ _______ _______ _____ _____    ______ ____
ROOT
ATOM      1  C   UNL     1       0.209   5.569  -0.132  0.00  0.00    +0.070 C 
ATOM      2  C   UNL     1      -1.103   5.728   0.546  0.00  0.00    +0.090 C 
ATOM      3  C   UNL     1      -0.685   5.547   2.060  0.00  0.00    +0.078 C 
ATOM      4  C   UNL     1       0.463   6.527   2.076  0.00  0.00    -0.026 C 
ATOM      5  C   UNL     1      -2.019   5.744   2.669  0.00  0.00    +0.229 C 
ATOM      6  O   UNL     1      -2.273   6.285   3.724  0.00  0.00    -0.275 OA
ATOM      7  N   UNL     1      -2.906   5.184   1.787  0.00  0.00    -0.210 N 
ATOM      8  C   UNL     1      -2.352   4.965   0.551  0.00  0.00    +0.229 C 
ATOM      9  O   UNL     1      -2.792   4.277  -0.345  0.00  0.00    -0.275 OA
ATOM     10  N   UNL     1       1.185   6.181   0.815  0.00  0.00    +0.398 N 
ATOM     11  H   UNL     1       1.585   7.030   0.399  0.00  0.00    -0.083 HD
ATOM     12  H   UNL     1       1.937   5.512   1.018  0.00  0.00    -0.083 HD
ENDROOT
BRANCH   7  13
ATOM     13  C   UNL     1      -4.234   4.871   2.112  0.00  0.00    +0.044 A 
ATOM     14  C   UNL     1      -5.070   4.311   1.156  0.00  0.00    +0.027 A 
ATOM     15  C   UNL     1      -6.376   3.998   1.478  0.00  0.00    +0.040 A 
ATOM     16  C   UNL     1      -6.855   4.253   2.752  0.00  0.00    +0.124 A 
ATOM     17  C   UNL     1      -6.025   4.817   3.706  0.00  0.00    +0.040 A 
ATOM     18  C   UNL     1      -4.716   5.126   3.389  0.00  0.00    +0.027 A 
ATOM     19  F   UNL     1      -8.134   3.951   3.065  0.00  0.00    -0.205 F 
ENDBRANCH   7  13
BRANCH   4  20
ATOM     20  C   UNL     1       1.340   6.311   3.282  0.00  0.00    -0.060 A 
ATOM     21  C   UNL     1       2.057   5.136   3.412  0.00  0.00    +0.005 A 
ATOM     22  C   UNL     1       2.867   4.938   4.514  0.00  0.00    +0.045 A 
ATOM     23  C   UNL     1       2.950   5.914   5.497  0.00  0.00    +0.117 A 
ATOM     24  C   UNL     1       2.225   7.090   5.366  0.00  0.00    +0.045 A 
ATOM     25  C   UNL     1       1.422   7.286   4.259  0.00  0.00    +0.005 A 
BRANCH  23  26
ATOM     26  O   UNL     1       3.741   5.719   6.585  0.00  0.00    -0.507 OA
ATOM     27  H   UNL     1       3.291   5.291   7.326  0.00  0.00    +0.292 HD
ENDBRANCH  23  26
ENDBRANCH   4  20
BRANCH   1  28
ATOM     28  C   UNL     1       0.519   4.109  -0.343  0.00  0.00    -0.047 A 
ATOM     29  C   UNL     1       1.598   3.532   0.299  0.00  0.00    +0.003 A 
ATOM     30  C   UNL     1       1.882   2.193   0.107  0.00  0.00    +0.000 A 
ATOM     31  C   UNL     1       1.087   1.431  -0.728  0.00  0.00    +0.000 A 
ATOM     32  C   UNL     1       0.010   2.010  -1.375  0.00  0.00    +0.000 A 
ATOM     33  C   UNL     1      -0.277   3.347  -1.178  0.00  0.00    +0.003 A 
ENDBRANCH   1  28
BRANCH   1  34
ATOM     34  C   UNL     1       0.214   6.301  -1.449  0.00  0.00    +0.301 C 
ATOM     35  O   UNL     1      -0.822   6.485  -2.043  0.00  0.00    -0.252 OA
BRANCH  34  37
ATOM     36  C   UNL     1       1.300   7.447  -3.235  0.00  0.00    +0.280 C 
ATOM     37  O   UNL     1       1.370   6.750  -1.963  0.00  0.00    -0.469 OA
ENDBRANCH  34  37
ENDBRANCH   1  34
TORSDOF 6
