REMARK  Name = ZINC08988692
REMARK  6 active torsions:
REMARK  status: ('A' for Active; 'I' for Inactive)
REMARK    1  A    between atoms: C_1  and  C_2
REMARK    2  A    between atoms: C_16  and  C_17
REMARK    3  A    between atoms: C_16  and  N_62
REMARK    4  A    between atoms: N_19  and  C_20
REMARK    5  A    between atoms: C_24  and  S_26
REMARK    6  A    between atoms: S_26  and  N_29
REMARK                            x       y       z     vdW  Elec       q    Type
REMARK                         _______ _______ _______ _____ _____    ______ ____
ROOT
ATOM      1  C   UNL     1       6.502   1.829   2.017  0.00  0.00    -0.008 C 
ATOM      2  C   UNL     1       6.113   2.785   0.888  0.00  0.00    -0.040 C 
ATOM      3  C   UNL     1       7.179   3.840   0.743  0.00  0.00    -0.054 A 
ATOM      4  C   UNL     1       7.719   4.395   1.893  0.00  0.00    +0.051 A 
ATOM      5  C   UNL     1       8.697   5.372   1.811  0.00  0.00    +0.162 A 
ATOM      6  C   UNL     1       9.142   5.796   0.563  0.00  0.00    +0.162 A 
ATOM      7  C   UNL     1       8.601   5.237  -0.583  0.00  0.00    +0.053 A 
ATOM      8  C   UNL     1       7.622   4.259  -0.494  0.00  0.00    -0.038 A 
ATOM      9  C   UNL     1       7.066   3.676  -1.765  0.00  0.00    -0.019 C 
ATOM     10  C   UNL     1       8.089   2.702  -2.380  0.00  0.00    +0.010 C 
ATOM     11  C   UNL     1       7.955   2.927  -3.907  0.00  0.00    +0.001 C 
ATOM     12  C   UNL     1       7.732   4.456  -4.010  0.00  0.00    +0.001 C 
ATOM     13  C   UNL     1       6.837   4.791  -2.797  0.00  0.00    +0.010 C 
ATOM     14  C   UNL     1       5.756   2.942  -1.492  0.00  0.00    -0.066 C 
ATOM     15  O   UNL     1      10.102   6.747   0.458  0.00  0.00    -0.485 OA
ATOM     16  C   UNL     1      10.445   7.516   1.600  0.00  0.00    +0.270 C 
ATOM     17  C   UNL     1      10.393   6.685   2.873  0.00  0.00    +0.270 C 
ATOM     18  O   UNL     1       9.208   5.909   2.946  0.00  0.00    -0.485 OA
ATOM     19  N   UNL     1       5.985   2.017  -0.361  0.00  0.00    +0.390 N 
ATOM     20  H   UNL     1       6.855   1.496  -0.525  0.00  0.00    -0.080 HD
ENDROOT
BRANCH  19  21
ATOM     21  C   UNL     1       4.864   1.058  -0.255  0.00  0.00    +0.020 C 
BRANCH  21  22
ATOM     22  C   UNL     1       3.556   1.795  -0.124  0.00  0.00    +0.201 C 
ATOM     23  O   UNL     1       3.541   3.008  -0.118  0.00  0.00    -0.278 OA
ATOM     24  N   UNL     1       2.402   1.106  -0.015  0.00  0.00    -0.287 N 
ATOM     25  H   UNL     1       2.419   0.138   0.047  0.00  0.00    +0.155 HD
BRANCH  24  26
ATOM     26  C   UNL     1       1.180   1.788   0.008  0.00  0.00    +0.035 A 
ATOM     27  C   UNL     1       1.087   3.028   0.626  0.00  0.00    +0.023 A 
ATOM     28  C   UNL     1      -0.120   3.698   0.647  0.00  0.00    +0.004 A 
ATOM     29  C   UNL     1      -1.236   3.135   0.054  0.00  0.00    +0.028 A 
ATOM     30  C   UNL     1      -1.145   1.903  -0.566  0.00  0.00    +0.107 A 
ATOM     31  C   UNL     1       0.059   1.225  -0.586  0.00  0.00    +0.051 A 
BRANCH  30  32
ATOM     32  S   UNL     1      -2.567   1.194  -1.327  0.00  0.00    +0.056 S 
ATOM     33  O   UNL     1      -3.437   2.271  -1.646  0.00  0.00    -0.153 OA
ATOM     34  O   UNL     1      -2.091   0.282  -2.307  0.00  0.00    -0.153 OA
BRANCH  32  35
ATOM     35  N   UNL     1      -3.339   0.289  -0.174  0.00  0.00    -0.204 NA
ATOM     36  H   UNL     1      -2.976   0.236   0.724  0.00  0.00    +0.144 HD
ATOM     37  H   UNL     1      -4.154  -0.188  -0.397  0.00  0.00    +0.144 HD
ENDBRANCH  32  35
ENDBRANCH  30  32
ENDBRANCH  24  26
ENDBRANCH  21  22
ENDBRANCH  19  21
TORSDOF 5
