REMARK  Name = ZINC66481855
REMARK  8 active torsions:
REMARK  status: ('A' for Active; 'I' for Inactive)
REMARK    1  A    between atoms: C_1  and  C_2
REMARK    2  A    between atoms: N_5  and  C_8
REMARK    3  A    between atoms: C_8  and  C_9
REMARK    4  A    between atoms: C_9  and  C_11
REMARK    5  A    between atoms: C_9  and  O_30
REMARK    6  A    between atoms: C_11  and  N_12
REMARK    7  A    between atoms: C_15  and  C_19
REMARK    8  A    between atoms: C_15  and  C_20
REMARK                            x       y       z     vdW  Elec       q    Type
REMARK                         _______ _______ _______ _____ _____    ______ ____
ROOT
ATOM      1  N   UNL     1       0.437  -6.434   4.168  0.00  0.00    -0.222 N 
ATOM      2  C   UNL     1       1.769  -6.630   4.209  0.00  0.00    +0.251 C 
ATOM      3  O   UNL     1       2.550  -6.551   3.285  0.00  0.00    -0.272 OA
ATOM      4  C   UNL     1       2.089  -6.968   5.652  0.00  0.00    +0.136 C 
ATOM      5  N   UNL     1       0.776  -6.919   6.318  0.00  0.00    -0.281 N 
ATOM      6  C   UNL     1      -0.123  -6.594   5.372  0.00  0.00    +0.310 C 
ATOM      7  O   UNL     1      -1.313  -6.465   5.587  0.00  0.00    -0.252 OA
ATOM      8  C   UNL     1       3.037  -5.927   6.251  0.00  0.00    +0.047 C 
ATOM      9  H   UNL     1       0.597  -7.085   7.257  0.00  0.00    +0.152 HD
ENDROOT
BRANCH   4  10
ATOM     10  C   UNL     1       2.684  -8.349   5.753  0.00  0.00    -0.008 A 
ATOM     11  C   UNL     1       2.030  -9.327   6.437  0.00  0.00    +0.007 A 
ATOM     12  C   UNL     1       2.564 -10.610   6.542  0.00  0.00    +0.001 A 
ATOM     13  C   UNL     1       3.756 -10.922   5.963  0.00  0.00    +0.008 A 
ATOM     14  C   UNL     1       4.460  -9.938   5.248  0.00  0.00    -0.018 A 
ATOM     15  C   UNL     1       3.914  -8.635   5.137  0.00  0.00    -0.012 A 
ATOM     16  C   UNL     1       4.616  -7.653   4.417  0.00  0.00    +0.009 A 
ATOM     17  C   UNL     1       5.804  -7.967   3.834  0.00  0.00    +0.001 A 
ATOM     18  C   UNL     1       6.338  -9.250   3.938  0.00  0.00    +0.001 A 
ATOM     19  C   UNL     1       5.694 -10.223   4.638  0.00  0.00    +0.008 A 
ENDBRANCH   4  10
BRANCH   1  20
ATOM     20  C   UNL     1      -0.306  -6.082   2.955  0.00  0.00    +0.147 C 
BRANCH  20  21
ATOM     21  C   UNL     1      -0.362  -4.559   2.815  0.00  0.00    +0.116 C 
BRANCH  21  22
ATOM     22  O   UNL     1       0.958  -4.051   2.611  0.00  0.00    -0.392 OA
ATOM     23  H   UNL     1       1.393  -4.395   1.819  0.00  0.00    +0.210 HD
ENDBRANCH  21  22
BRANCH  21  24
ATOM     24  C   UNL     1      -1.242  -4.189   1.620  0.00  0.00    -0.046 C 
BRANCH  24  29
ATOM     25  C   UNL     1      -2.643   1.319   1.140  0.00  0.00    +0.007 C 
ATOM     26  C   UNL     1      -2.712  -0.204   1.274  0.00  0.00    -0.018 C 
ATOM     27  C   UNL     1      -2.007  -0.638   2.562  0.00  0.00    -0.016 C 
ATOM     28  C   UNL     1      -2.010  -2.165   2.650  0.00  0.00    -0.078 C 
ATOM     29  N   UNL     1      -1.304  -2.727   1.492  0.00  0.00    +0.381 N 
ATOM     30  C   UNL     1      -2.015  -2.375   0.257  0.00  0.00    -0.078 C 
ATOM     31  C   UNL     1      -2.012  -0.855   0.077  0.00  0.00    -0.016 C 
ATOM     32  H   UNL     1      -0.367  -2.354   1.457  0.00  0.00    -0.082 HD
ENDBRANCH  24  29
ENDBRANCH  21  24
ENDBRANCH  20  21
ENDBRANCH   1  20
TORSDOF 6
