REMARK  Name = ZINC63281361
REMARK  6 active torsions:
REMARK  status: ('A' for Active; 'I' for Inactive)
REMARK    1  A    between atoms: C_7  and  C_10
REMARK    2  A    between atoms: C_10  and  C_11
REMARK    3  A    between atoms: C_11  and  N_12
REMARK    4  A    between atoms: C_13  and  C_15
REMARK    5  A    between atoms: N_17  and  C_18
REMARK    6  A    between atoms: C_21  and  C_24
REMARK                            x       y       z     vdW  Elec       q    Type
REMARK                         _______ _______ _______ _____ _____    ______ ____
ROOT
ATOM      1  C   UNL     1      -1.742  -6.548  -2.622  0.00  0.00    +0.303 C 
ATOM      2  O   UNL     1      -2.175  -6.977  -1.572  0.00  0.00    -0.265 OA
ATOM      3  N   UNL     1      -2.096  -7.129  -3.785  0.00  0.00    -0.278 N 
ATOM      4  H   UNL     1      -1.804  -6.747  -4.627  0.00  0.00    +0.155 HD
ENDROOT
BRANCH   3   5
ATOM      5  C   UNL     1      -2.884  -8.283  -3.778  0.00  0.00    +0.034 A 
ATOM      6  C   UNL     1      -2.680  -9.271  -4.733  0.00  0.00    +0.023 A 
ATOM      7  C   UNL     1      -3.460 -10.411  -4.723  0.00  0.00    +0.008 A 
ATOM      8  C   UNL     1      -4.443 -10.569  -3.763  0.00  0.00    -0.017 A 
ATOM      9  C   UNL     1      -4.649  -9.587  -2.811  0.00  0.00    +0.008 A 
ATOM     10  C   UNL     1      -3.868  -8.448  -2.812  0.00  0.00    +0.023 A 
BRANCH   8  11
ATOM     11  C   UNL     1      -5.293 -11.813  -3.756  0.00  0.00    +0.164 C 
ATOM     12  N   UNL     1      -6.604 -11.555  -3.146  0.00  0.00    -0.327 N 
ATOM     13  C   UNL     1      -6.928 -12.262  -1.989  0.00  0.00    +0.042 A 
ATOM     14  C   UNL     1      -8.131 -12.147  -1.269  0.00  0.00    +0.024 A 
ATOM     15  C   UNL     1      -8.356 -12.892  -0.135  0.00  0.00    +0.002 A 
ATOM     16  C   UNL     1      -7.406 -13.780   0.337  0.00  0.00    +0.001 A 
ATOM     17  C   UNL     1      -6.212 -13.914  -0.352  0.00  0.00    +0.016 A 
ATOM     18  C   UNL     1      -5.988 -13.168  -1.487  0.00  0.00    +0.031 A 
ATOM     19  S   UNL     1      -4.609 -13.074  -2.607  0.00  0.00    -0.096 S 
ATOM     20  H   UNL     1      -7.222 -10.915  -3.534  0.00  0.00    +0.147 HD
ENDBRANCH   8  11
ENDBRANCH   3   5
BRANCH   1  22
ATOM     21  N   UNL     1      -0.462  -4.795  -1.461  0.00  0.00    -0.307 N 
ATOM     22  C   UNL     1      -0.816  -5.376  -2.624  0.00  0.00    +0.299 C 
ATOM     23  O   UNL     1      -0.382  -4.947  -3.673  0.00  0.00    -0.265 OA
ATOM     24  H   UNL     1      -0.808  -5.137  -0.622  0.00  0.00    +0.149 HD
BRANCH  21  25
ATOM     25  C   UNL     1       0.447  -3.645  -1.463  0.00  0.00    +0.109 C 
BRANCH  25  26
ATOM     26  C   UNL     1       0.684  -3.180  -0.025  0.00  0.00    +0.052 C 
BRANCH  26  33
ATOM     27  C   UNL     1      -0.049   1.350   0.024  0.00  0.00    +0.001 A 
ATOM     28  C   UNL     1       1.129   2.110   0.013  0.00  0.00    +0.002 A 
ATOM     29  C   UNL     1       2.358   1.551  -0.008  0.00  0.00    +0.026 A 
ATOM     30  C   UNL     1       2.503   0.136  -0.022  0.00  0.00    +0.043 A 
ATOM     31  N   UNL     1       3.566  -0.632  -0.044  0.00  0.00    -0.380 N 
ATOM     32  C   UNL     1       3.130  -2.033  -0.049  0.00  0.00    +0.144 C 
ATOM     33  C   UNL     1       1.618  -1.997  -0.028  0.00  0.00    -0.040 C 
ATOM     34  C   UNL     1       1.274  -0.689  -0.011  0.00  0.00    -0.001 A 
ATOM     35  C   UNL     1      -0.022  -0.002   0.012  0.00  0.00    +0.010 A 
ATOM     36  H   UNL     1       4.486  -0.325  -0.054  0.00  0.00    +0.160 HD
ENDBRANCH  26  33
ENDBRANCH  25  26
ENDBRANCH  21  25
ENDBRANCH   1  22
TORSDOF 6
