REMARK  Name = ZINC37131329
REMARK  7 active torsions:
REMARK  status: ('A' for Active; 'I' for Inactive)
REMARK    1  A    between atoms: C_1  and  C_2
REMARK    2  A    between atoms: C_2  and  C_4
REMARK    3  A    between atoms: C_2  and  N_12
REMARK    4  A    between atoms: C_7  and  O_11
REMARK    5  A    between atoms: C_9  and  O_10
REMARK    6  A    between atoms: N_12  and  C_13
REMARK    7  A    between atoms: C_16  and  N_20
REMARK                            x       y       z     vdW  Elec       q    Type
REMARK                         _______ _______ _______ _____ _____    ______ ____
ROOT
ATOM      1  C   UNL     1       0.006   1.525  -0.050  0.00  0.00    +0.033 C 
ATOM      2  C   UNL     1       0.002  -0.004   0.002  0.00  0.00    +0.101 C 
ENDROOT
BRANCH   2   3
ATOM      3  C   UNL     1       0.576  -0.464   1.318  0.00  0.00    +0.014 A 
ATOM      4  C   UNL     1      -0.263  -0.709   2.388  0.00  0.00    +0.012 A 
ATOM      5  C   UNL     1       0.260  -1.131   3.596  0.00  0.00    +0.046 A 
ATOM      6  C   UNL     1       1.629  -1.309   3.736  0.00  0.00    +0.120 A 
ATOM      7  C   UNL     1       2.472  -1.063   2.664  0.00  0.00    +0.091 A 
ATOM      8  C   UNL     1       1.944  -0.646   1.451  0.00  0.00    +0.125 A 
BRANCH   8   9
ATOM      9  O   UNL     1       2.768  -0.410   0.396  0.00  0.00    -0.506 OA
ATOM     10  H   UNL     1       3.093   0.499   0.347  0.00  0.00    +0.292 HD
ENDBRANCH   8   9
BRANCH   6  11
ATOM     11  O   UNL     1       2.142  -1.723   4.924  0.00  0.00    -0.507 OA
ATOM     12  H   UNL     1       2.208  -2.684   5.011  0.00  0.00    +0.292 HD
ENDBRANCH   6  11
ENDBRANCH   2   3
BRANCH   2  13
ATOM     13  N   UNL     1      -1.373  -0.493  -0.129  0.00  0.00    -0.336 N 
ATOM     14  H   UNL     1      -1.895  -0.689   0.664  0.00  0.00    +0.147 HD
BRANCH  13  15
ATOM     15  C   UNL     1      -1.931  -0.678  -1.397  0.00  0.00    +0.042 A 
ATOM     16  C   UNL     1      -1.181  -0.403  -2.534  0.00  0.00    +0.026 A 
ATOM     17  C   UNL     1      -1.736  -0.587  -3.785  0.00  0.00    +0.034 A 
ATOM     18  C   UNL     1      -3.035  -1.044  -3.908  0.00  0.00    +0.127 A 
ATOM     19  C   UNL     1      -3.784  -1.318  -2.779  0.00  0.00    +0.049 A 
ATOM     20  C   UNL     1      -3.234  -1.142  -1.523  0.00  0.00    +0.041 A 
ATOM     21 BR   UNL     1      -4.257  -1.525   0.021  0.00  0.00    -0.048 Br
BRANCH  18  22
ATOM     22  N   UNL     1      -3.626  -1.238  -5.251  0.00  0.00    +0.056 N 
ATOM     23  O   UNL     1      -2.972  -0.999  -6.239  0.00  0.00    -0.126 OA
ATOM     24  O   UNL     1      -4.762  -1.637  -5.360  0.00  0.00    -0.126 OA
ENDBRANCH  18  22
ENDBRANCH  13  15
ENDBRANCH   2  13
TORSDOF 6
