REMARK  Name = ZINC29759878
REMARK  6 active torsions:
REMARK  status: ('A' for Active; 'I' for Inactive)
REMARK    1  A    between atoms: C_1  and  C_2
REMARK    2  A    between atoms: C_2  and  C_3
REMARK    3  A    between atoms: C_2  and  C_4
REMARK    4  A    between atoms: C_4  and  N_5
REMARK    5  A    between atoms: C_7  and  C_12
REMARK    6  A    between atoms: N_14  and  C_15
REMARK                            x       y       z     vdW  Elec       q    Type
REMARK                         _______ _______ _______ _____ _____    ______ ____
ROOT
ATOM      1  C   UNL     1      -2.743  -6.271   0.694  0.00  0.00    +0.222 C 
ATOM      2  O   UNL     1      -2.747  -6.266  -0.519  0.00  0.00    -0.275 OA
ATOM      3  N   UNL     1      -2.273  -5.205   1.370  0.00  0.00    -0.285 N 
ATOM      4  H   UNL     1      -2.198  -5.239   2.467  0.00  0.00    +0.155 HD
ENDROOT
BRANCH   3   5
ATOM      5  C   UNL     1      -1.879  -4.053   0.677  0.00  0.00    +0.037 A 
ATOM      6  C   UNL     1      -2.088  -2.800   1.236  0.00  0.00    +0.027 A 
ATOM      7  C   UNL     1      -1.700  -1.662   0.554  0.00  0.00    +0.051 A 
ATOM      8  C   UNL     1      -1.101  -1.770  -0.688  0.00  0.00    +0.167 A 
ATOM      9  C   UNL     1      -0.889  -3.027  -1.253  0.00  0.00    +0.169 A 
ATOM     10  C   UNL     1      -1.277  -4.165  -0.570  0.00  0.00    +0.072 A 
ATOM     11  O   UNL     1      -0.287  -2.856  -2.473  0.00  0.00    -0.447 OA
ATOM     12  C   UNL     1      -0.604  -1.501  -2.824  0.00  0.00    +0.254 C 
ATOM     13  O   UNL     1      -0.629  -0.822  -1.560  0.00  0.00    -0.448 OA
ATOM     14  C   UNL     1       0.447  -0.904  -3.760  0.00  0.00    +0.093 C 
ATOM     15  C   UNL     1      -0.312  -0.452  -5.027  0.00  0.00    +0.008 C 
ATOM     16  C   UNL     1      -1.594  -1.324  -5.034  0.00  0.00    +0.008 C 
ATOM     17  C   UNL     1      -1.960  -1.412  -3.530  0.00  0.00    +0.093 C 
ENDBRANCH   3   5
BRANCH   1  20
ATOM     18  N   UNL     1      -4.927  -9.165   1.107  0.00  0.00    -0.300 N 
ATOM     19  C   UNL     1      -3.749  -8.565   0.468  0.00  0.00    +0.121 C 
ATOM     20  C   UNL     1      -3.264  -7.470   1.444  0.00  0.00    +0.101 C 
ATOM     21  C   UNL     1      -4.567  -7.124   2.202  0.00  0.00    +0.110 C 
ATOM     22  C   UNL     1      -5.410  -8.374   2.080  0.00  0.00    +0.216 C 
ATOM     23  O   UNL     1      -6.380  -8.627   2.763  0.00  0.00    -0.276 OA
BRANCH  18  24
ATOM     24  C   UNL     1      -5.501 -10.459   0.731  0.00  0.00    +0.110 C 
BRANCH  24  26
ATOM     25  C   UNL     1      -5.202 -11.379   3.034  0.00  0.00    +0.009 C 
ATOM     26  C   UNL     1      -4.847 -11.567   1.558  0.00  0.00    +0.000 C 
ATOM     27  C   UNL     1      -5.355 -12.928   1.080  0.00  0.00    +0.009 C 
ENDBRANCH  24  26
ENDBRANCH  18  24
ENDBRANCH   1  20
TORSDOF 4
