REMARK  Name = ZINC41161652
REMARK  2 active torsions:
REMARK  status: ('A' for Active; 'I' for Inactive)
REMARK    1  A    between atoms: C_3  and  C_11
REMARK    2  A    between atoms: C_13  and  C_17
REMARK                            x       y       z     vdW  Elec       q    Type
REMARK                         _______ _______ _______ _____ _____    ______ ____
ROOT
ATOM      1  C   UNL     1       3.659   2.168  -0.025  0.00  0.00    +0.182 A 
ATOM      2  N   UNL     1       3.770   3.503  -0.013  0.00  0.00    -0.211 NA
ATOM      3  C   UNL     1       5.032   3.842  -0.027  0.00  0.00    +0.129 A 
ATOM      4  N   UNL     1       5.771   2.717  -0.048  0.00  0.00    -0.262 N 
ATOM      5  H   UNL     1       6.739   2.659  -0.062  0.00  0.00    +0.190 HD
ATOM      6  N   UNL     1       4.865   1.645  -0.041  0.00  0.00    -0.152 NA
ENDROOT
BRANCH   1   9
ATOM      7  C   UNL     1      -0.017   1.377   0.010  0.00  0.00    +0.003 A 
ATOM      8  C   UNL     1       1.169   2.084   0.002  0.00  0.00    +0.012 A 
ATOM      9  C   UNL     1       2.385   1.406  -0.015  0.00  0.00    +0.026 A 
ATOM     10  C   UNL     1       2.407   0.011  -0.025  0.00  0.00    -0.016 A 
ATOM     11  C   UNL     1       1.213  -0.690  -0.013  0.00  0.00    +0.031 A 
ATOM     12  C   UNL     1       0.002  -0.004   0.002  0.00  0.00    +0.023 A 
ATOM     13  N   UNL     1       1.203  -2.089  -0.013  0.00  0.00    -0.344 N 
ATOM     14  C   UNL     1       2.444  -2.809  -0.327  0.00  0.00    +0.102 C 
ATOM     15  C   UNL     1       3.586  -2.135   0.446  0.00  0.00    +0.023 C 
ATOM     16  C   UNL     1       3.736  -0.697  -0.049  0.00  0.00    +0.039 C 
ATOM     17  H   UNL     1       0.389  -2.576   0.192  0.00  0.00    +0.146 HD
ENDBRANCH   1   9
BRANCH   3  18
ATOM     18  C   UNL     1       5.569   5.250  -0.020  0.00  0.00    +0.056 C 
ATOM     19  C   UNL     1       6.866   5.298   0.790  0.00  0.00    +0.011 C 
ATOM     20  C   UNL     1       7.410   6.728   0.796  0.00  0.00    +0.001 C 
ATOM     21  C   UNL     1       7.689   7.174  -0.641  0.00  0.00    +0.000 C 
ATOM     22  C   UNL     1       6.392   7.126  -1.451  0.00  0.00    +0.001 C 
ATOM     23  C   UNL     1       5.848   5.696  -1.457  0.00  0.00    +0.011 C 
ENDBRANCH   3  18
TORSDOF 2
