REMARK  Name = ZINC00612102
REMARK  2 active torsions:
REMARK  status: ('A' for Active; 'I' for Inactive)
REMARK    1  A    between atoms: N_13  and  C_14
REMARK    2  A    between atoms: C_19  and  C_20
REMARK                            x       y       z     vdW  Elec       q    Type
REMARK                         _______ _______ _______ _____ _____    ______ ____
ROOT
ATOM      1  C   UNL     1      -2.664   0.502   0.055  0.00  0.00    +0.000 A 
ATOM      2  C   UNL     1      -2.475   1.851  -0.183  0.00  0.00    +0.000 A 
ATOM      3  C   UNL     1      -1.197   2.370  -0.200  0.00  0.00    +0.005 A 
ATOM      4  C   UNL     1      -0.100   1.549   0.023  0.00  0.00    -0.027 A 
ATOM      5  C   UNL     1      -0.287   0.207   0.268  0.00  0.00    -0.041 A 
ATOM      6  C   UNL     1      -1.575  -0.314   0.279  0.00  0.00    +0.004 A 
ATOM      7  C   UNL     1       0.852  -0.742   0.533  0.00  0.00    +0.054 C 
ATOM      8  C   UNL     1       2.171  -0.164   0.021  0.00  0.00    +0.114 C 
ATOM      9  N   UNL     1       2.266   1.229   0.488  0.00  0.00    -0.281 N 
ATOM     10  C   UNL     1       1.270   2.179  -0.020  0.00  0.00    +0.144 C 
ATOM     11  C   UNL     1       3.230   1.616   1.347  0.00  0.00    +0.307 C 
ATOM     12  O   UNL     1       3.985   0.792   1.825  0.00  0.00    -0.252 OA
ATOM     13  N   UNL     1       3.356   2.917   1.676  0.00  0.00    -0.269 N 
ATOM     14  H   UNL     1       2.708   3.564   1.355  0.00  0.00    +0.156 HD
ENDROOT
BRANCH  13  15
ATOM     15  C   UNL     1       4.422   3.335   2.481  0.00  0.00    +0.046 A 
ATOM     16  C   UNL     1       5.548   2.533   2.616  0.00  0.00    +0.024 A 
ATOM     17  C   UNL     1       6.600   2.950   3.408  0.00  0.00    +0.002 A 
ATOM     18  C   UNL     1       6.529   4.161   4.072  0.00  0.00    +0.001 A 
ATOM     19  C   UNL     1       5.408   4.960   3.943  0.00  0.00    +0.014 A 
ATOM     20  C   UNL     1       4.354   4.550   3.149  0.00  0.00    +0.076 A 
BRANCH  20  21
ATOM     21  C   UNL     1       3.132   5.421   3.009  0.00  0.00    +0.419 C 
ATOM     22  F   UNL     1       3.298   6.583   3.771  0.00  0.00    -0.166 F 
ATOM     23  F   UNL     1       2.957   5.765   1.665  0.00  0.00    -0.166 F 
ATOM     24  F   UNL     1       2.008   4.723   3.463  0.00  0.00    -0.166 F 
ENDBRANCH  20  21
ENDBRANCH  13  15
TORSDOF 2
