REMARK  Name = ZINC36027325
REMARK  9 active torsions:
REMARK  status: ('A' for Active; 'I' for Inactive)
REMARK    1  A    between atoms: C_1  and  O_2
REMARK    2  A    between atoms: O_2  and  C_3
REMARK    3  A    between atoms: C_3  and  C_4
REMARK    4  A    between atoms: C_4  and  C_5
REMARK    5  A    between atoms: C_5  and  N_6
REMARK    6  A    between atoms: C_9  and  C_29
REMARK    7  A    between atoms: N_15  and  S_18
REMARK    8  A    between atoms: S_18  and  C_21
REMARK    9  A    between atoms: C_29  and  C_30
REMARK                            x       y       z     vdW  Elec       q    Type
REMARK                         _______ _______ _______ _____ _____    ______ ____
ROOT
ATOM      1  N   UNL     1       1.377  -4.159  -2.111  0.00  0.00    -0.314 N 
ATOM      2  C   UNL     1       2.336  -4.828  -1.438  0.00  0.00    +0.201 C 
ATOM      3  O   UNL     1       3.280  -4.327  -0.864  0.00  0.00    -0.277 OA
ATOM      4  C   UNL     1       2.035  -6.309  -1.518  0.00  0.00    +0.023 C 
ATOM      5  N   UNL     1       0.616  -6.383  -1.941  0.00  0.00    +0.401 N 
ATOM      6  C   UNL     1       0.412  -5.112  -2.664  0.00  0.00    +0.006 C 
ATOM      7  C   UNL     1      -1.014  -4.612  -2.441  0.00  0.00    +0.023 C 
ATOM      8  C   UNL     1      -1.203  -3.276  -3.167  0.00  0.00    +0.109 C 
ATOM      9  N   UNL     1      -0.828  -3.447  -4.577  0.00  0.00    -0.177 NA
ATOM     10  C   UNL     1       0.498  -3.994  -4.895  0.00  0.00    +0.109 C 
ATOM     11  C   UNL     1       0.673  -5.324  -4.155  0.00  0.00    +0.023 C 
ATOM     12  H   UNL     1       0.467  -7.172  -2.553  0.00  0.00    -0.082 HD
ATOM     13  H   UNL     1       0.007  -6.434  -1.138  0.00  0.00    -0.082 HD
ENDROOT
BRANCH   9  14
ATOM     14  S   UNL     1      -1.881  -3.031  -5.786  0.00  0.00    +0.061 S 
ATOM     15  O   UNL     1      -1.510  -3.793  -6.927  0.00  0.00    -0.153 OA
ATOM     16  O   UNL     1      -3.185  -3.085  -5.225  0.00  0.00    -0.153 OA
BRANCH  14  17
ATOM     17  C   UNL     1      -1.574  -1.343  -6.186  0.00  0.00    +0.107 A 
ATOM     18  C   UNL     1      -2.255  -0.340  -5.521  0.00  0.00    +0.030 A 
ATOM     19  C   UNL     1      -2.016   0.984  -5.834  0.00  0.00    +0.023 A 
ATOM     20  C   UNL     1      -1.094   1.308  -6.813  0.00  0.00    +0.059 A 
ATOM     21  C   UNL     1      -0.411   0.304  -7.479  0.00  0.00    +0.061 A 
ATOM     22  C   UNL     1      -0.649  -1.021  -7.161  0.00  0.00    +0.050 A 
ATOM     23 CL   UNL     1       0.745   0.708  -8.709  0.00  0.00    -0.082 Cl
ATOM     24 CL   UNL     1      -0.793   2.972  -7.207  0.00  0.00    -0.082 Cl
ENDBRANCH  14  17
ENDBRANCH   9  14
BRANCH   1  25
ATOM     25  C   UNL     1       1.309  -2.703  -2.261  0.00  0.00    +0.108 C 
BRANCH  25  26
ATOM     26  C   UNL     1       0.540  -2.104  -1.082  0.00  0.00    +0.047 C 
BRANCH  26  27
ATOM     27  C   UNL     1       0.349  -0.603  -1.307  0.00  0.00    +0.161 C 
BRANCH  27  29
ATOM     28  C   UNL     1      -0.602   1.362  -0.316  0.00  0.00    +0.193 C 
ATOM     29  O   UNL     1      -0.369  -0.044  -0.205  0.00  0.00    -0.383 OA
ENDBRANCH  27  29
ENDBRANCH  26  27
ENDBRANCH  25  26
ENDBRANCH   1  25
BRANCH   4  30
ATOM     30  C   UNL     1       2.221  -6.965  -0.149  0.00  0.00    +0.028 C 
BRANCH  30  31
ATOM     31  C   UNL     1       2.001  -8.451  -0.271  0.00  0.00    -0.048 A 
ATOM     32  C   UNL     1       0.735  -8.979  -0.101  0.00  0.00    +0.003 A 
ATOM     33  C   UNL     1       0.533 -10.342  -0.212  0.00  0.00    +0.000 A 
ATOM     34  C   UNL     1       1.598 -11.177  -0.494  0.00  0.00    +0.000 A 
ATOM     35  C   UNL     1       2.864 -10.649  -0.665  0.00  0.00    +0.000 A 
ATOM     36  C   UNL     1       3.065  -9.286  -0.558  0.00  0.00    +0.003 A 
ENDBRANCH  30  31
ENDBRANCH   4  30
TORSDOF 8
