REMARK  Name = ZINC06856660
REMARK  7 active torsions:
REMARK  status: ('A' for Active; 'I' for Inactive)
REMARK    1  A    between atoms: C_1  and  C_2
REMARK    2  A    between atoms: C_2  and  C_3
REMARK    3  A    between atoms: C_3  and  C_4
REMARK    4  A    between atoms: C_4  and  S_5
REMARK    5  A    between atoms: S_5  and  C_6
REMARK    6  A    between atoms: C_17  and  C_19
REMARK    7  A    between atoms: C_22  and  C_25
REMARK                            x       y       z     vdW  Elec       q    Type
REMARK                         _______ _______ _______ _____ _____    ______ ____
ROOT
ATOM      1  C   UNL     1      -2.923  -4.443   0.006  0.00  0.00    +0.171 A 
ATOM      2  N   UNL     1      -4.031  -5.235   0.007  0.00  0.00    -0.302 N 
ATOM      3  H   UNL     1      -4.913  -4.833   0.011  0.00  0.00    +0.171 HD
ATOM      4  C   UNL     1      -3.903  -6.579   0.001  0.00  0.00    +0.258 A 
ATOM      5  O   UNL     1      -4.889  -7.298   0.004  0.00  0.00    -0.267 OA
ATOM      6  C   UNL     1      -2.617  -7.133  -0.009  0.00  0.00    +0.069 A 
ATOM      7  C   UNL     1      -1.524  -6.284  -0.013  0.00  0.00    +0.135 A 
ATOM      8  N   UNL     1      -1.710  -4.959  -0.008  0.00  0.00    -0.208 NA
ATOM      9  N   UNL     1      -0.248  -6.811  -0.030  0.00  0.00    -0.302 N 
ATOM     10  C   UNL     1      -0.033  -8.102  -0.428  0.00  0.00    +0.017 C 
ATOM     11  C   UNL     1      -1.040  -9.001  -0.444  0.00  0.00    +0.024 C 
ATOM     12  C   UNL     1      -2.433  -8.621  -0.011  0.00  0.00    +0.092 C 
ATOM     13  C   UNL     1      -0.822 -10.324  -0.868  0.00  0.00    +0.162 C 
ATOM     14  O   UNL     1      -1.748 -11.110  -0.863  0.00  0.00    -0.292 OA
ATOM     15  C   UNL     1       0.533 -10.785  -1.329  0.00  0.00    +0.080 C 
ATOM     16  C   UNL     1       1.295  -9.589  -1.910  0.00  0.00    +0.014 C 
ATOM     17  C   UNL     1       1.365  -8.494  -0.844  0.00  0.00    +0.051 C 
ATOM     18  H   UNL     1       0.502  -6.261   0.243  0.00  0.00    +0.153 HD
ENDROOT
BRANCH  12  19
ATOM     19  C   UNL     1      -2.679  -9.151   1.378  0.00  0.00    -0.035 A 
ATOM     20  C   UNL     1      -1.900  -8.707   2.432  0.00  0.00    +0.006 A 
ATOM     21  C   UNL     1      -2.120  -9.188   3.706  0.00  0.00    +0.019 A 
ATOM     22  C   UNL     1      -3.131 -10.124   3.931  0.00  0.00    +0.052 A 
ATOM     23  C   UNL     1      -3.913 -10.567   2.863  0.00  0.00    +0.019 A 
ATOM     24  C   UNL     1      -3.686 -10.075   1.595  0.00  0.00    +0.006 A 
BRANCH  22  25
ATOM     25  C   UNL     1      -3.364 -10.628   5.251  0.00  0.00    +0.099 C 
ATOM     26  N   UNL     1      -3.549 -11.028   6.298  0.00  0.00    -0.191 NA
ENDBRANCH  22  25
ENDBRANCH  12  19
BRANCH   1  27
ATOM     27  S   UNL     1      -3.114  -2.691   0.017  0.00  0.00    -0.088 S 
BRANCH  27  28
ATOM     28  C   UNL     1      -1.413  -2.063   0.004  0.00  0.00    +0.077 C 
BRANCH  28  29
ATOM     29  C   UNL     1      -1.433  -0.534   0.013  0.00  0.00    +0.011 C 
BRANCH  29  31
ATOM     30  C   UNL     1      -0.019   1.526   0.010  0.00  0.00    +0.004 C 
ATOM     31  C   UNL     1       0.002  -0.004   0.002  0.00  0.00    -0.003 C 
ENDBRANCH  29  31
ENDBRANCH  28  29
ENDBRANCH  27  28
ENDBRANCH   1  27
TORSDOF 6
