REMARK  Name = ZINC22512988
REMARK  10 active torsions:
REMARK  status: ('A' for Active; 'I' for Inactive)
REMARK    1  A    between atoms: C_1  and  C_2
REMARK    2  A    between atoms: C_2  and  C_4
REMARK    3  A    between atoms: C_2  and  N_12
REMARK    4  A    between atoms: C_13  and  C_15
REMARK    5  A    between atoms: C_15  and  C_17
REMARK    6  A    between atoms: C_15  and  O_18
REMARK    7  A    between atoms: O_18  and  C_19
REMARK    8  A    between atoms: C_19  and  C_21
REMARK    9  A    between atoms: C_24  and  S_27
REMARK   10  A    between atoms: S_27  and  N_30
REMARK                            x       y       z     vdW  Elec       q    Type
REMARK                         _______ _______ _______ _____ _____    ______ ____
ROOT
ATOM      1  O   UNL     1      -3.273   5.935  -2.243  0.00  0.00    -0.449 OA
ENDROOT
BRANCH   1   2
ATOM      2  C   UNL     1      -2.009   5.462  -1.710  0.00  0.00    +0.259 C 
ATOM      3  C   UNL     1      -1.521   6.425  -0.625  0.00  0.00    +0.062 C 
BRANCH   2   5
ATOM      4  N   UNL     1      -1.150   3.449  -0.557  0.00  0.00    -0.306 N 
ATOM      5  C   UNL     1      -2.196   4.090  -1.116  0.00  0.00    +0.254 C 
ATOM      6  O   UNL     1      -3.288   3.562  -1.140  0.00  0.00    -0.272 OA
ATOM      7  H   UNL     1      -0.160   3.927  -0.535  0.00  0.00    +0.149 HD
BRANCH   4   9
ATOM      8  C   UNL     1      -1.832   2.246   1.460  0.00  0.00    +0.033 C 
ATOM      9  C   UNL     1      -1.332   2.115   0.020  0.00  0.00    +0.102 C 
BRANCH   9  10
ATOM     10  C   UNL     1      -0.017   1.379   0.010  0.00  0.00    -0.009 A 
ATOM     11  C   UNL     1       1.171   2.087   0.002  0.00  0.00    +0.008 A 
ATOM     12  C   UNL     1       2.377   1.413  -0.013  0.00  0.00    +0.020 A 
ATOM     13  C   UNL     1       2.397   0.029  -0.021  0.00  0.00    +0.042 A 
ATOM     14  C   UNL     1       1.210  -0.679  -0.013  0.00  0.00    +0.040 A 
ATOM     15  C   UNL     1       0.002  -0.004   0.002  0.00  0.00    +0.047 A 
ATOM     16 CL   UNL     1      -1.489  -0.893   0.011  0.00  0.00    -0.083 Cl
ATOM     17 CL   UNL     1       3.913  -0.817  -0.039  0.00  0.00    -0.083 Cl
ENDBRANCH   9  10
ENDBRANCH   4   9
ENDBRANCH   2   5
ENDBRANCH   1   2
BRANCH   1  18
ATOM     18  C   UNL     1      -3.217   6.771  -3.298  0.00  0.00    +0.340 C 
ATOM     19  O   UNL     1      -2.142   7.096  -3.760  0.00  0.00    -0.245 OA
BRANCH  18  20
ATOM     20  C   UNL     1      -4.465   7.293  -3.894  0.00  0.00    +0.059 A 
ATOM     21  C   UNL     1      -5.703   6.917  -3.370  0.00  0.00    +0.017 A 
ATOM     22  C   UNL     1      -6.863   7.412  -3.928  0.00  0.00    +0.029 A 
ATOM     23  C   UNL     1      -6.802   8.270  -5.011  0.00  0.00    +0.106 A 
ATOM     24  C   UNL     1      -5.579   8.642  -5.539  0.00  0.00    +0.029 A 
ATOM     25  C   UNL     1      -4.410   8.159  -4.988  0.00  0.00    +0.017 A 
BRANCH  23  26
ATOM     26  S   UNL     1      -8.290   8.892  -5.723  0.00  0.00    +0.061 S 
ATOM     27  O   UNL     1      -9.283   8.828  -4.708  0.00  0.00    -0.153 OA
ATOM     28  O   UNL     1      -7.950  10.105  -6.380  0.00  0.00    -0.153 OA
BRANCH  26  29
ATOM     29  N   UNL     1      -8.751   7.826  -6.903  0.00  0.00    -0.177 NA
ATOM     30  C   UNL     1      -8.355   7.891  -8.318  0.00  0.00    +0.109 C 
ATOM     31  C   UNL     1      -9.041   6.712  -9.040  0.00  0.00    +0.018 C 
ATOM     32  C   UNL     1     -10.240   6.388  -8.110  0.00  0.00    +0.018 C 
ATOM     33  C   UNL     1      -9.631   6.659  -6.712  0.00  0.00    +0.109 C 
ENDBRANCH  26  29
ENDBRANCH  23  26
ENDBRANCH  18  20
ENDBRANCH   1  18
TORSDOF 8
