REMARK  Name = ZINC06087615
REMARK  5 active torsions:
REMARK  status: ('A' for Active; 'I' for Inactive)
REMARK    1  A    between atoms: C_1  and  C_2
REMARK    2  A    between atoms: C_7  and  N_12
REMARK    3  A    between atoms: C_9  and  C_11
REMARK    4  A    between atoms: C_13  and  C_15
REMARK    5  A    between atoms: C_15  and  N_16
REMARK                            x       y       z     vdW  Elec       q    Type
REMARK                         _______ _______ _______ _____ _____    ______ ____
ROOT
ATOM      1  N   UNL     1      -1.183   1.883   0.018  0.00  0.00    -0.290 N 
ATOM      2  C   UNL     1      -1.220   3.240   0.030  0.00  0.00    +0.203 A 
ATOM      3  N   UNL     1      -0.121   3.947   0.024  0.00  0.00    -0.230 NA
ATOM      4  C   UNL     1       1.071   3.357   0.010  0.00  0.00    +0.116 A 
ATOM      5  C   UNL     1       1.210   1.960   0.001  0.00  0.00    +0.076 A 
ATOM      6  C   UNL     1      -0.015   1.215   0.009  0.00  0.00    +0.263 A 
ATOM      7  O   UNL     1       0.002  -0.004   0.002  0.00  0.00    -0.267 OA
ATOM      8  C   UNL     1       2.582   1.453  -0.015  0.00  0.00    -0.023 A 
ATOM      9  C   UNL     1       3.573   2.370  -0.019  0.00  0.00    -0.004 A 
ATOM     10  S   UNL     1       2.748   3.938  -0.002  0.00  0.00    -0.073 S 
ATOM     11  C   UNL     1       5.048   2.110  -0.034  0.00  0.00    +0.043 C 
ATOM     12  C   UNL     1       5.285   0.637   0.327  0.00  0.00    +0.005 C 
ATOM     13  C   UNL     1       4.339  -0.232  -0.507  0.00  0.00    +0.005 C 
ATOM     14  C   UNL     1       2.900  -0.039  -0.029  0.00  0.00    +0.037 C 
ENDROOT
BRANCH   1  15
ATOM     15  C   UNL     1      -2.440   1.131   0.019  0.00  0.00    +0.221 C 
BRANCH  15  17
ATOM     16  N   UNL     1      -4.000   0.183   1.688  0.00  0.00    -0.311 N 
ATOM     17  C   UNL     1      -2.865   0.865   1.440  0.00  0.00    +0.233 C 
ATOM     18  O   UNL     1      -2.184   1.264   2.362  0.00  0.00    -0.274 OA
ATOM     19  H   UNL     1      -4.545  -0.136   0.951  0.00  0.00    +0.149 HD
BRANCH  16  25
ATOM     20  C   UNL     1      -7.877  -0.740   4.614  0.00  0.00    +0.008 C 
ATOM     21  C   UNL     1      -6.361  -0.543   4.564  0.00  0.00    -0.009 C 
ATOM     22  C   UNL     1      -5.665  -1.805   5.076  0.00  0.00    +0.003 C 
ATOM     23  C   UNL     1      -4.148  -1.608   5.025  0.00  0.00    +0.002 C 
ATOM     24  C   UNL     1      -3.717  -1.338   3.582  0.00  0.00    +0.022 C 
ATOM     25  C   UNL     1      -4.413  -0.075   3.070  0.00  0.00    +0.076 C 
ATOM     26  C   UNL     1      -5.930  -0.273   3.120  0.00  0.00    +0.009 C 
ATOM     27  C   UNL     1      -6.626   0.990   2.608  0.00  0.00    +0.009 C 
ENDBRANCH  16  25
ENDBRANCH  15  17
ENDBRANCH   1  15
TORSDOF 3
