REMARK  Name = ZINC00214081
REMARK  7 active torsions:
REMARK  status: ('A' for Active; 'I' for Inactive)
REMARK    1  A    between atoms: C_1  and  C_2
REMARK    2  A    between atoms: C_4  and  C_8
REMARK    3  A    between atoms: N_5  and  C_7
REMARK    4  A    between atoms: N_13  and  C_14
REMARK    5  A    between atoms: C_14  and  C_15
REMARK    6  A    between atoms: C_15  and  C_16
REMARK    7  A    between atoms: C_15  and  C_17
REMARK                            x       y       z     vdW  Elec       q    Type
REMARK                         _______ _______ _______ _____ _____    ______ ____
ROOT
ATOM      1  C   UNL     1       1.315   1.698   2.747  0.00  0.00    +0.153 A 
ATOM      2  N   UNL     1       2.332   1.301   1.990  0.00  0.00    -0.138 NA
ATOM      3  N   UNL     1       3.512   1.252   2.433  0.00  0.00    -0.126 NA
ATOM      4  C   UNL     1       3.806   1.582   3.685  0.00  0.00    +0.182 A 
ATOM      5  S   UNL     1       2.177   2.023   4.283  0.00  0.00    -0.029 S 
ATOM      6  N   UNL     1       5.026   1.585   4.342  0.00  0.00    -0.322 N 
ATOM      7  H   UNL     1       5.075   1.857   5.272  0.00  0.00    +0.148 HD
ENDROOT
BRANCH   1  11
ATOM      8  C   UNL     1      -3.669   2.601   3.099  0.00  0.00    +0.069 C 
ATOM      9  C   UNL     1      -2.315   2.221   2.556  0.00  0.00    +0.079 A 
ATOM     10  C   UNL     1      -1.117   2.245   3.270  0.00  0.00    +0.091 A 
ATOM     11  C   UNL     1      -0.115   1.828   2.418  0.00  0.00    +0.114 A 
ATOM     12  N   UNL     1      -0.698   1.558   1.213  0.00  0.00    -0.263 N 
ATOM     13  N   UNL     1      -2.069   1.820   1.335  0.00  0.00    -0.175 NA
ATOM     14  C   UNL     1      -0.013   1.086   0.008  0.00  0.00    +0.173 C 
ATOM     15 CL   UNL     1      -0.923   2.713   4.930  0.00  0.00    -0.079 Cl
ENDBRANCH   1  11
BRANCH   6  16
ATOM     16  C   UNL     1       6.241   1.177   3.632  0.00  0.00    +0.106 C 
BRANCH  16  17
ATOM     17  C   UNL     1       7.440   1.270   4.579  0.00  0.00    -0.000 C 
ATOM     18  C   UNL     1       7.274   0.257   5.713  0.00  0.00    +0.009 C 
ATOM     19  C   UNL     1       8.724   0.965   3.806  0.00  0.00    +0.009 C 
ENDBRANCH  16  17
ENDBRANCH   6  16
TORSDOF 3
