REMARK  Name = ZINC05363479
REMARK  9 active torsions:
REMARK  status: ('A' for Active; 'I' for Inactive)
REMARK    1  A    between atoms: C_1  and  C_2
REMARK    2  A    between atoms: C_8  and  N_10
REMARK    3  A    between atoms: C_11  and  C_13
REMARK    4  A    between atoms: C_13  and  O_14
REMARK    5  A    between atoms: O_14  and  C_15
REMARK    6  A    between atoms: C_15  and  C_17
REMARK    7  A    between atoms: C_20  and  N_26
REMARK    8  A    between atoms: C_21  and  N_23
REMARK    9  A    between atoms: N_26  and  C_27
REMARK                            x       y       z     vdW  Elec       q    Type
REMARK                         _______ _______ _______ _____ _____    ______ ____
ROOT
ATOM      1  C   UNL     1       2.054  -4.390   4.495  0.00  0.00    +0.340 C 
ATOM      2  O   UNL     1       1.161  -5.145   4.163  0.00  0.00    -0.245 OA
ENDROOT
BRANCH   1   3
ATOM      3  C   UNL     1       3.323  -4.933   5.012  0.00  0.00    +0.061 A 
ATOM      4  C   UNL     1       4.354  -4.066   5.388  0.00  0.00    +0.017 A 
ATOM      5  C   UNL     1       5.528  -4.569   5.873  0.00  0.00    +0.026 A 
ATOM      6  C   UNL     1       5.708  -5.945   5.983  0.00  0.00    +0.058 A 
ATOM      7  C   UNL     1       4.689  -6.816   5.605  0.00  0.00    +0.148 A 
ATOM      8  C   UNL     1       3.502  -6.315   5.122  0.00  0.00    +0.049 A 
BRANCH   7   9
ATOM      9  N   UNL     1       4.883  -8.278   5.723  0.00  0.00    +0.058 N 
ATOM     10  O   UNL     1       4.429  -9.024   4.874  0.00  0.00    -0.126 OA
ATOM     11  O   UNL     1       5.498  -8.737   6.670  0.00  0.00    -0.126 OA
ENDBRANCH   7   9
BRANCH   6  12
ATOM     12  N   UNL     1       6.907  -6.451   6.472  0.00  0.00    -0.345 N 
ATOM     13  C   UNL     1       7.929  -5.539   6.991  0.00  0.00    +0.125 C 
ATOM     14  H   UNL     1       7.066  -7.407   6.470  0.00  0.00    +0.146 HD
ENDBRANCH   6  12
ENDBRANCH   1   3
BRANCH   1  15
ATOM     15  O   UNL     1       1.884  -3.058   4.389  0.00  0.00    -0.452 OA
BRANCH  15  16
ATOM     16  C   UNL     1       0.609  -2.595   3.872  0.00  0.00    +0.328 C 
BRANCH  16  18
ATOM     17  N   UNL     1      -0.486  -0.432   3.378  0.00  0.00    -0.309 N 
ATOM     18  C   UNL     1       0.602  -1.088   3.827  0.00  0.00    +0.251 C 
ATOM     19  O   UNL     1       1.576  -0.466   4.194  0.00  0.00    -0.272 OA
ATOM     20  H   UNL     1      -1.266  -0.930   3.084  0.00  0.00    +0.149 HD
BRANCH  17  27
ATOM     21  C   UNL     1      -1.073   0.956   0.905  0.00  0.00    +0.009 C 
ATOM     22  C   UNL     1      -1.487   1.506   2.271  0.00  0.00    +0.006 C 
ATOM     23  C   UNL     1      -2.888   1.000   2.622  0.00  0.00    +0.005 C 
ATOM     24  C   UNL     1      -3.301   1.549   3.989  0.00  0.00    +0.000 C 
ATOM     25  C   UNL     1      -2.307   1.075   5.051  0.00  0.00    +0.002 C 
ATOM     26  C   UNL     1      -0.906   1.581   4.700  0.00  0.00    +0.022 C 
ATOM     27  C   UNL     1      -0.493   1.032   3.334  0.00  0.00    +0.076 C 
ENDBRANCH  17  27
ENDBRANCH  16  18
ENDBRANCH  15  16
ENDBRANCH   1  15
TORSDOF 7
