REMARK  Name = ZINC07049270
REMARK  7 active torsions:
REMARK  status: ('A' for Active; 'I' for Inactive)
REMARK    1  A    between atoms: C_1  and  C_2
REMARK    2  A    between atoms: C_7  and  C_14
REMARK    3  A    between atoms: C_11  and  C_12
REMARK    4  A    between atoms: C_14  and  S_15
REMARK    5  A    between atoms: S_15  and  C_16
REMARK    6  A    between atoms: C_18  and  C_23
REMARK    7  A    between atoms: C_20  and  N_22
REMARK                            x       y       z     vdW  Elec       q    Type
REMARK                         _______ _______ _______ _____ _____    ______ ____
ROOT
ATOM      1  C   UNL     1       5.988  -0.909  -0.056  0.00  0.00    +0.044 C 
ATOM      2  C   UNL     1       4.703  -0.122  -0.041  0.00  0.00    -0.045 A 
ATOM      3  C   UNL     1       4.751   1.270  -0.035  0.00  0.00    +0.004 A 
ATOM      4  C   UNL     1       3.607   2.009  -0.021  0.00  0.00    +0.010 A 
ATOM      5  C   UNL     1       2.362   1.360  -0.013  0.00  0.00    +0.001 A 
ATOM      6  C   UNL     1       1.157   2.088   0.002  0.00  0.00    +0.017 A 
ATOM      7  C   UNL     1      -0.017   1.391   0.010  0.00  0.00    +0.000 A 
ATOM      8  C   UNL     1       0.002  -0.004   0.002  0.00  0.00    +0.134 A 
ATOM      9  N   UNL     1       1.127  -0.678  -0.012  0.00  0.00    -0.235 NA
ATOM     10  C   UNL     1       2.311  -0.055  -0.020  0.00  0.00    +0.076 A 
ATOM     11  C   UNL     1       3.513  -0.783  -0.034  0.00  0.00    -0.022 A 
ATOM     12  C   UNL     1       3.485  -2.290  -0.041  0.00  0.00    +0.046 C 
ATOM     13 CL   UNL     1      -1.502  -0.870   0.012  0.00  0.00    -0.062 Cl
ENDROOT
BRANCH   7  14
ATOM     14  C   UNL     1      -1.332   2.127   0.020  0.00  0.00    +0.115 C 
BRANCH  14  15
ATOM     15  S   UNL     1      -1.850   2.413   1.730  0.00  0.00    -0.081 S 
BRANCH  15  16
ATOM     16  C   UNL     1      -3.367   3.264   1.452  0.00  0.00    +0.190 A 
ATOM     17  N   UNL     1      -4.088   3.658   2.493  0.00  0.00    -0.227 NA
ATOM     18  C   UNL     1      -5.231   4.306   2.324  0.00  0.00    +0.044 A 
ATOM     19  C   UNL     1      -5.680   4.561   1.042  0.00  0.00    +0.066 A 
ATOM     20  C   UNL     1      -4.903   4.128  -0.034  0.00  0.00    +0.121 A 
ATOM     21  N   UNL     1      -3.763   3.489   0.208  0.00  0.00    -0.207 NA
ATOM     22  C   UNL     1      -6.036   4.753   3.516  0.00  0.00    +0.066 C 
BRANCH  20  23
ATOM     23  N   UNL     1      -5.315   4.362  -1.336  0.00  0.00    -0.343 N 
ATOM     24  H   UNL     1      -4.770   4.059  -2.079  0.00  0.00    +0.144 HD
ATOM     25  H   UNL     1      -6.148   4.829  -1.505  0.00  0.00    +0.144 HD
ENDBRANCH  20  23
ENDBRANCH  15  16
ENDBRANCH  14  15
ENDBRANCH   7  14
TORSDOF 4
