REMARK  Name = ZINC05209814
REMARK  6 active torsions:
REMARK  status: ('A' for Active; 'I' for Inactive)
REMARK    1  A    between atoms: C_1  and  C_2
REMARK    2  A    between atoms: C_12  and  C_14
REMARK    3  A    between atoms: C_14  and  C_16
REMARK    4  A    between atoms: C_14  and  S_17
REMARK    5  A    between atoms: S_17  and  C_18
REMARK    6  A    between atoms: C_21  and  C_24
REMARK                            x       y       z     vdW  Elec       q    Type
REMARK                         _______ _______ _______ _____ _____    ______ ____
ROOT
ATOM      1  C   UNL     1       2.515  -0.746   2.840  0.00  0.00    +0.137 C 
ATOM      2  C   UNL     1       3.099  -2.149   2.663  0.00  0.00    +0.029 C 
ENDROOT
BRANCH   1  13
ATOM      3  C   UNL     1      -0.171   1.360   0.031  0.00  0.00    +0.029 C 
ATOM      4  C   UNL     1       0.045  -0.151  -0.069  0.00  0.00    +0.083 C 
ATOM      5  C   UNL     1      -1.307  -0.883  -0.088  0.00  0.00    +0.059 C 
ATOM      6  C   UNL     1      -1.280  -1.766   1.139  0.00  0.00    -0.024 A 
ATOM      7  C   UNL     1      -2.217  -2.649   1.641  0.00  0.00    +0.005 A 
ATOM      8  C   UNL     1      -1.956  -3.353   2.801  0.00  0.00    +0.000 A 
ATOM      9  C   UNL     1      -0.753  -3.172   3.460  0.00  0.00    +0.002 A 
ATOM     10  C   UNL     1       0.184  -2.292   2.963  0.00  0.00    +0.024 A 
ATOM     11  C   UNL     1      -0.073  -1.577   1.792  0.00  0.00    +0.040 A 
ATOM     12  N   UNL     1       0.735  -0.646   1.126  0.00  0.00    -0.267 N 
ATOM     13  C   UNL     1       1.964  -0.262   1.523  0.00  0.00    +0.233 C 
ATOM     14  O   UNL     1       2.626   0.474   0.822  0.00  0.00    -0.274 OA
ENDBRANCH   1  13
BRANCH   1  15
ATOM     15  S   UNL     1       3.819   0.385   3.401  0.00  0.00    -0.074 S 
BRANCH  15  16
ATOM     16  C   UNL     1       4.252  -0.224   4.997  0.00  0.00    +0.185 A 
ATOM     17  N   UNL     1       3.720  -1.266   5.597  0.00  0.00    -0.201 NA
ATOM     18  H   UNL     1       5.755   1.067   5.639  0.00  0.00    +0.191 HD
ATOM     19  C   UNL     1       4.293  -1.435   6.797  0.00  0.00    +0.182 A 
ATOM     20  N   UNL     1       5.199  -0.500   6.973  0.00  0.00    -0.152 NA
ATOM     21  N   UNL     1       5.194   0.295   5.816  0.00  0.00    -0.253 N 
BRANCH  19  22
ATOM     22  C   UNL     1       3.958  -2.505   7.770  0.00  0.00    +0.021 A 
ATOM     23  C   UNL     1       2.977  -3.446   7.464  0.00  0.00    +0.011 A 
ATOM     24  C   UNL     1       2.670  -4.439   8.372  0.00  0.00    +0.001 A 
ATOM     25  C   UNL     1       3.334  -4.501   9.584  0.00  0.00    +0.000 A 
ATOM     26  C   UNL     1       4.309  -3.570   9.893  0.00  0.00    +0.001 A 
ATOM     27  C   UNL     1       4.628  -2.576   8.989  0.00  0.00    +0.011 A 
ENDBRANCH  19  22
ENDBRANCH  15  16
ENDBRANCH   1  15
TORSDOF 4
