REMARK  Name = ZINC12572087
REMARK  11 active torsions:
REMARK  status: ('A' for Active; 'I' for Inactive)
REMARK    1  A    between atoms: C_1  and  C_2
REMARK    2  A    between atoms: C_7  and  C_8
REMARK    3  A    between atoms: C_8  and  S_9
REMARK    4  A    between atoms: S_9  and  C_10
REMARK    5  A    between atoms: C_13  and  C_22
REMARK    6  A    between atoms: N_14  and  C_15
REMARK    7  A    between atoms: C_15  and  C_16
REMARK    8  A    between atoms: C_22  and  N_60
REMARK    9  A    between atoms: C_23  and  N_60
REMARK   10  A    between atoms: C_24  and  C_25
REMARK   11  A    between atoms: C_24  and  N_60
REMARK                            x       y       z     vdW  Elec       q    Type
REMARK                         _______ _______ _______ _____ _____    ______ ____
ROOT
ATOM      1  C   UNL     1       6.230  -2.343  -4.975  0.00  0.00    +0.192 A 
ATOM      2  N   UNL     1       5.411  -3.342  -4.742  0.00  0.00    -0.123 NA
ATOM      3  N   UNL     1       4.996  -3.292  -3.526  0.00  0.00    -0.135 NA
ATOM      4  C   UNL     1       5.514  -2.262  -2.919  0.00  0.00    +0.117 A 
ATOM      5  N   UNL     1       6.322  -1.623  -3.818  0.00  0.00    -0.305 N 
ENDROOT
BRANCH   1   6
ATOM      6  S   UNL     1       7.056  -1.998  -6.492  0.00  0.00    -0.081 S 
BRANCH   6   7
ATOM      7  C   UNL     1       6.437  -3.364  -7.505  0.00  0.00    +0.112 C 
BRANCH   7  14
ATOM      8  C   UNL     1       8.934  -4.690  -8.103  0.00  0.00    +0.044 C 
ATOM      9  C   UNL     1       8.222  -3.905  -9.175  0.00  0.00    -0.046 A 
ATOM     10  C   UNL     1       8.763  -3.820 -10.444  0.00  0.00    +0.003 A 
ATOM     11  C   UNL     1       8.110  -3.102 -11.427  0.00  0.00    +0.000 A 
ATOM     12  C   UNL     1       6.915  -2.467 -11.141  0.00  0.00    +0.000 A 
ATOM     13  C   UNL     1       6.371  -2.556  -9.873  0.00  0.00    +0.005 A 
ATOM     14  C   UNL     1       7.027  -3.271  -8.889  0.00  0.00    -0.034 A 
ENDBRANCH   7  14
ENDBRANCH   6   7
ENDBRANCH   1   6
BRANCH   5  15
ATOM     15  C   UNL     1       7.120  -0.416  -3.589  0.00  0.00    +0.157 C 
BRANCH  15  16
ATOM     16  C   UNL     1       8.511  -0.811  -3.089  0.00  0.00    +0.138 C 
ATOM     17  C   UNL     1       9.318   0.454  -2.729  0.00  0.00    +0.035 C 
ATOM     18  C   UNL     1      10.740   0.093  -3.242  0.00  0.00    +0.031 C 
ATOM     19  C   UNL     1      10.397  -0.760  -4.489  0.00  0.00    +0.160 C 
ATOM     20  O   UNL     1       9.221  -1.500  -4.125  0.00  0.00    -0.375 OA
ENDBRANCH  15  16
ENDBRANCH   5  15
BRANCH   4  21
ATOM     21  C   UNL     1       5.272  -1.855  -1.488  0.00  0.00    -0.001 C 
BRANCH  21  23
ATOM     22  C   UNL     1       4.426   0.329  -2.105  0.00  0.00    -0.095 C 
ATOM     23  N   UNL     1       4.103  -0.952  -1.441  0.00  0.00    +0.385 N 
ATOM     24  H   UNL     1       3.319  -1.395  -1.934  0.00  0.00    -0.081 HD
BRANCH  23  25
ATOM     25  C   UNL     1       3.711  -0.707  -0.037  0.00  0.00    -0.043 C 
BRANCH  25  26
ATOM     26  C   UNL     1       2.396   0.029  -0.021  0.00  0.00    -0.064 A 
ATOM     27  C   UNL     1       1.208  -0.678  -0.013  0.00  0.00    +0.004 A 
ATOM     28  C   UNL     1       0.002  -0.004   0.002  0.00  0.00    +0.038 A 
ATOM     29  C   UNL     1      -0.017   1.380   0.010  0.00  0.00    +0.123 A 
ATOM     30  C   UNL     1       1.173   2.088   0.002  0.00  0.00    +0.038 A 
ATOM     31  C   UNL     1       2.379   1.412  -0.013  0.00  0.00    +0.004 A 
ATOM     32  F   UNL     1      -1.195   2.040   0.019  0.00  0.00    -0.205 F 
ENDBRANCH  25  26
ENDBRANCH  23  25
ENDBRANCH  21  23
ENDBRANCH   4  21
TORSDOF 9
