REMARK  Name = ZINC18493601
REMARK  5 active torsions:
REMARK  status: ('A' for Active; 'I' for Inactive)
REMARK    1  A    between atoms: N_13  and  C_17
REMARK    2  A    between atoms: C_17  and  C_18
REMARK    3  A    between atoms: N_20  and  C_21
REMARK    4  A    between atoms: C_21  and  C_22
REMARK    5  A    between atoms: N_24  and  C_25
REMARK                            x       y       z     vdW  Elec       q    Type
REMARK                         _______ _______ _______ _____ _____    ______ ____
ROOT
ATOM      1  C   UNL     1       2.349   0.006   0.026  0.00  0.00    +0.001 A 
ATOM      2  C   UNL     1       1.158  -0.697   0.048  0.00  0.00    +0.004 A 
ATOM      3  C   UNL     1      -0.043  -0.019   0.072  0.00  0.00    +0.046 A 
ATOM      4  C   UNL     1      -0.060   1.372   0.074  0.00  0.00    +0.126 A 
ATOM      5  C   UNL     1       1.133   2.074   0.056  0.00  0.00    +0.027 A 
ATOM      6  C   UNL     1       2.335   1.387   0.030  0.00  0.00    +0.010 A 
ATOM      7  C   UNL     1       1.151   3.577   0.071  0.00  0.00    +0.144 C 
ATOM      8  C   UNL     1      -0.216   4.138  -0.305  0.00  0.00    +0.081 C 
ATOM      9  C   UNL     1      -1.288   3.379   0.490  0.00  0.00    +0.232 C 
ATOM     10  O   UNL     1      -1.260   2.008   0.090  0.00  0.00    -0.492 OA
ATOM     11  C   UNL     1       1.575   4.087   1.429  0.00  0.00    +0.252 C 
ATOM     12  O   UNL     1       1.013   3.907   2.488  0.00  0.00    -0.272 OA
ATOM     13  N   UNL     1       2.709   4.785   1.215  0.00  0.00    -0.215 N 
ATOM     14  C   UNL     1       3.052   4.783  -0.079  0.00  0.00    +0.310 C 
ATOM     15  O   UNL     1       4.036   5.346  -0.519  0.00  0.00    -0.252 OA
ATOM     16  N   UNL     1       2.185   4.088  -0.839  0.00  0.00    -0.281 N 
ATOM     17  H   UNL     1       2.233   3.951  -1.798  0.00  0.00    +0.152 HD
ENDROOT
BRANCH  13  18
ATOM     18  C   UNL     1       3.473   5.459   2.268  0.00  0.00    +0.213 C 
BRANCH  18  19
ATOM     19  C   UNL     1       4.498   4.510   2.832  0.00  0.00    +0.231 C 
ATOM     20  O   UNL     1       4.583   3.381   2.397  0.00  0.00    -0.274 OA
ATOM     21  N   UNL     1       5.321   4.915   3.820  0.00  0.00    -0.305 N 
ATOM     22  H   UNL     1       5.253   5.818   4.167  0.00  0.00    +0.149 HD
BRANCH  21  23
ATOM     23  C   UNL     1       6.317   3.992   4.368  0.00  0.00    +0.200 C 
BRANCH  23  24
ATOM     24  C   UNL     1       7.103   4.686   5.451  0.00  0.00    +0.234 C 
ATOM     25  O   UNL     1       6.854   5.838   5.737  0.00  0.00    -0.274 OA
ATOM     26  N   UNL     1       8.081   4.026   6.102  0.00  0.00    -0.283 N 
ATOM     27  H   UNL     1       8.237   3.087   5.920  0.00  0.00    +0.155 HD
BRANCH  26  28
ATOM     28  C   UNL     1       8.872   4.697   7.042  0.00  0.00    +0.047 A 
ATOM     29  C   UNL     1       8.317   5.694   7.834  0.00  0.00    +0.024 A 
ATOM     30  C   UNL     1       9.100   6.351   8.763  0.00  0.00    +0.002 A 
ATOM     31  C   UNL     1      10.437   6.025   8.898  0.00  0.00    +0.001 A 
ATOM     32  C   UNL     1      10.994   5.037   8.108  0.00  0.00    +0.017 A 
ATOM     33  C   UNL     1      10.216   4.372   7.179  0.00  0.00    +0.039 A 
ATOM     34 BR   UNL     1      10.979   3.022   6.098  0.00  0.00    -0.048 Br
ENDBRANCH  26  28
ENDBRANCH  23  24
ENDBRANCH  21  23
ENDBRANCH  18  19
ENDBRANCH  13  18
TORSDOF 5
