REMARK  Name = ZINC42477695
REMARK  3 active torsions:
REMARK  status: ('A' for Active; 'I' for Inactive)
REMARK    1  A    between atoms: C_5  and  C_6
REMARK    2  A    between atoms: C_7  and  C_8
REMARK    3  A    between atoms: N_10  and  C_11
REMARK                            x       y       z     vdW  Elec       q    Type
REMARK                         _______ _______ _______ _____ _____    ______ ____
ROOT
ATOM      1  C   UNL     1      -2.099  -3.051  -0.064  0.00  0.00    +0.238 C 
ATOM      2  O   UNL     1      -3.218  -2.574  -0.114  0.00  0.00    -0.271 OA
ATOM      3  N   UNL     1      -1.938  -4.387  -0.002  0.00  0.00    -0.301 N 
ATOM      4  H   UNL     1      -1.046  -4.767   0.037  0.00  0.00    +0.150 HD
ENDROOT
BRANCH   3   5
ATOM      5  C   UNL     1      -3.110  -5.266   0.005  0.00  0.00    +0.159 C 
ATOM      6  C   UNL     1      -2.701  -6.664   0.477  0.00  0.00    +0.032 C 
ATOM      7  C   UNL     1      -1.302  -7.005  -0.001  0.00  0.00    +0.004 C 
ATOM      8  C   UNL     1      -1.188  -7.158  -1.506  0.00  0.00    +0.019 C 
ATOM      9  C   UNL     1      -1.416  -5.819  -2.210  0.00  0.00    +0.104 C 
ATOM     10  N   UNL     1      -2.862  -5.641  -2.425  0.00  0.00    -0.314 N 
ATOM     11  C   UNL     1      -3.673  -5.374  -1.397  0.00  0.00    +0.233 C 
ATOM     12  O   UNL     1      -4.862  -5.223  -1.583  0.00  0.00    -0.274 OA
ATOM     13  H   UNL     1      -3.228  -5.715  -3.320  0.00  0.00    +0.149 HD
ENDBRANCH   3   5
BRANCH   1  15
ATOM     14  C   UNL     1      -1.129  -0.856  -0.133  0.00  0.00    +0.051 C 
ATOM     15  C   UNL     1      -0.967  -2.202  -0.071  0.00  0.00    +0.071 C 
BRANCH  14  20
ATOM     16  C   UNL     1      -0.015   1.372  -0.199  0.00  0.00    +0.050 A 
ATOM     17  C   UNL     1       1.323   1.790  -0.181  0.00  0.00    +0.057 A 
ATOM     18  C   UNL     1       2.090   0.677  -0.113  0.00  0.00    +0.171 A 
ATOM     19  O   UNL     1       1.293  -0.401  -0.088  0.00  0.00    -0.449 OA
ATOM     20  C   UNL     1       0.003  -0.007  -0.139  0.00  0.00    +0.129 A 
ATOM     21 BR   UNL     1       3.980   0.647  -0.062  0.00  0.00    -0.008 Br
ENDBRANCH  14  20
ENDBRANCH   1  15
TORSDOF 3
