REMARK  Name = ZINC09045978
REMARK  12 active torsions:
REMARK  status: ('A' for Active; 'I' for Inactive)
REMARK    1  A    between atoms: C_1  and  C_2
REMARK    2  A    between atoms: C_2  and  O_3
REMARK    3  A    between atoms: O_3  and  C_4
REMARK    4  A    between atoms: C_4  and  C_6
REMARK    5  A    between atoms: C_7  and  C_30
REMARK    6  A    between atoms: C_10  and  N_11
REMARK    7  A    between atoms: C_12  and  C_14
REMARK    8  A    between atoms: C_14  and  N_15
REMARK    9  A    between atoms: C_19  and  C_24
REMARK   10  A    between atoms: C_21  and  S_22
REMARK   11  A    between atoms: S_22  and  C_23
REMARK   12  A    between atoms: C_33  and  C_36
REMARK                            x       y       z     vdW  Elec       q    Type
REMARK                         _______ _______ _______ _____ _____    ______ ____
ROOT
ATOM      1  N   UNL     1      -1.222  -2.360   2.485  0.00  0.00    -0.278 N 
ATOM      2  C   UNL     1      -1.241  -3.230   3.514  0.00  0.00    +0.238 C 
ATOM      3  O   UNL     1      -1.290  -4.423   3.300  0.00  0.00    -0.273 OA
ATOM      4  H   UNL     1      -1.183  -1.406   2.656  0.00  0.00    +0.155 HD
ENDROOT
BRANCH   1   9
ATOM      5  C   UNL     1      -1.248  -2.095   0.003  0.00  0.00    +0.095 A 
ATOM      6  C   UNL     1      -1.290  -2.848  -1.236  0.00  0.00    +0.005 A 
ATOM      7  C   UNL     1      -1.340  -4.200  -1.127  0.00  0.00    +0.056 A 
ATOM      8  S   UNL     1      -1.333  -4.469   0.633  0.00  0.00    -0.080 S 
ATOM      9  C   UNL     1      -1.259  -2.829   1.181  0.00  0.00    +0.086 A 
BRANCH   6  10
ATOM     10  C   UNL     1      -1.277  -2.175  -2.557  0.00  0.00    -0.017 A 
ATOM     11  C   UNL     1      -2.168  -1.136  -2.821  0.00  0.00    +0.009 A 
ATOM     12  C   UNL     1      -2.150  -0.510  -4.051  0.00  0.00    +0.004 A 
ATOM     13  C   UNL     1      -1.255  -0.918  -5.024  0.00  0.00    -0.050 A 
ATOM     14  C   UNL     1      -0.372  -1.952  -4.769  0.00  0.00    +0.004 A 
ATOM     15  C   UNL     1      -0.378  -2.582  -3.542  0.00  0.00    +0.009 A 
ATOM     16  C   UNL     1      -1.244  -0.235  -6.367  0.00  0.00    +0.044 C 
ENDBRANCH   6  10
BRANCH   5  17
ATOM     17  C   UNL     1      -1.191  -0.633   0.010  0.00  0.00    +0.342 C 
ATOM     18  O   UNL     1      -2.220   0.016   0.023  0.00  0.00    -0.245 OA
BRANCH  17  19
ATOM     19  O   UNL     1       0.002  -0.004   0.002  0.00  0.00    -0.461 OA
BRANCH  19  21
ATOM     20  C   UNL     1       1.418   1.977  -0.001  0.00  0.00    +0.048 C 
ATOM     21  C   UNL     1      -0.018   1.448   0.010  0.00  0.00    +0.229 C 
ENDBRANCH  19  21
ENDBRANCH  17  19
ENDBRANCH   5  17
ENDBRANCH   1   9
BRANCH   2  22
ATOM     22  C   UNL     1      -1.200  -2.720   4.932  0.00  0.00    +0.223 C 
BRANCH  22  23
ATOM     23  N   UNL     1      -1.230  -3.854   5.859  0.00  0.00    -0.279 N 
ATOM     24  C   UNL     1      -0.076  -4.420   6.269  0.00  0.00    +0.256 A 
ATOM     25  O   UNL     1       0.998  -3.996   5.872  0.00  0.00    -0.268 OA
ATOM     26  C   UNL     1      -0.131  -5.504   7.157  0.00  0.00    +0.098 A 
ATOM     27  C   UNL     1      -1.373  -5.954   7.582  0.00  0.00    +0.079 A 
ATOM     28  N   UNL     1      -2.485  -5.352   7.141  0.00  0.00    -0.223 NA
ATOM     29  C   UNL     1      -2.424  -4.331   6.311  0.00  0.00    +0.172 A 
BRANCH  27  30
ATOM     30  C   UNL     1      -1.468  -7.098   8.520  0.00  0.00    +0.001 A 
ATOM     31  C   UNL     1      -0.311  -7.729   8.974  0.00  0.00    +0.010 A 
ATOM     32  C   UNL     1      -0.406  -8.790   9.851  0.00  0.00    +0.001 A 
ATOM     33  C   UNL     1      -1.647  -9.235  10.271  0.00  0.00    +0.000 A 
ATOM     34  C   UNL     1      -2.799  -8.616   9.820  0.00  0.00    +0.001 A 
ATOM     35  C   UNL     1      -2.716  -7.550   8.947  0.00  0.00    +0.010 A 
ENDBRANCH  27  30
BRANCH  29  36
ATOM     36  S   UNL     1      -3.918  -3.571   5.768  0.00  0.00    -0.091 S 
ATOM     37  C   UNL     1      -5.127  -4.582   6.658  0.00  0.00    +0.093 C 
ENDBRANCH  29  36
ENDBRANCH  22  23
ENDBRANCH   2  22
TORSDOF 9
