REMARK  Name = ZINC37129974
REMARK  3 active torsions:
REMARK  status: ('A' for Active; 'I' for Inactive)
REMARK    1  A    between atoms: C_1  and  C_2
REMARK    2  A    between atoms: C_8  and  N_10
REMARK    3  A    between atoms: N_10  and  C_11
REMARK                            x       y       z     vdW  Elec       q    Type
REMARK                         _______ _______ _______ _____ _____    ______ ____
ROOT
ATOM      1  C   UNL     1       0.764   0.098   3.646  0.00  0.00    +0.030 A 
ATOM      2  C   UNL     1       2.119  -0.209   3.692  0.00  0.00    +0.026 A 
ATOM      3  C   UNL     1       2.822  -0.077   4.872  0.00  0.00    +0.050 A 
ATOM      4  C   UNL     1       2.177   0.364   6.018  0.00  0.00    +0.157 A 
ATOM      5  C   UNL     1       0.818   0.673   5.974  0.00  0.00    +0.089 A 
ATOM      6  C   UNL     1       0.114   0.546   4.787  0.00  0.00    +0.052 A 
ATOM      7  N   UNL     1       0.460   1.082   7.258  0.00  0.00    -0.288 N 
ATOM      8  H   UNL     1      -0.423   1.362   7.546  0.00  0.00    +0.172 HD
ATOM      9  C   UNL     1       1.565   1.015   8.027  0.00  0.00    +0.419 A 
ATOM     10  O   UNL     1       1.617   1.300   9.208  0.00  0.00    -0.223 OA
ATOM     11  O   UNL     1       2.599   0.585   7.288  0.00  0.00    -0.408 OA
ENDROOT
BRANCH   1  12
ATOM     12  N   UNL     1       0.056  -0.038   2.447  0.00  0.00    -0.341 N 
ATOM     13  H   UNL     1      -0.888   0.180   2.413  0.00  0.00    +0.146 HD
BRANCH  12  20
ATOM     14  C   UNL     1      -0.019   1.526   0.010  0.00  0.00    +0.009 C 
ATOM     15  C   UNL     1       0.002  -0.004   0.002  0.00  0.00    +0.006 C 
ATOM     16  C   UNL     1       0.718  -0.497  -1.257  0.00  0.00    +0.005 C 
ATOM     17  C   UNL     1       0.739  -2.027  -1.265  0.00  0.00    +0.000 C 
ATOM     18  C   UNL     1       1.479  -2.534  -0.026  0.00  0.00    +0.002 C 
ATOM     19  C   UNL     1       0.763  -2.041   1.233  0.00  0.00    +0.022 C 
ATOM     20  C   UNL     1       0.742  -0.511   1.242  0.00  0.00    +0.073 C 
ENDBRANCH  12  20
ENDBRANCH   1  12
TORSDOF 2
