REMARK  Name = ZINC01336155
REMARK  13 active torsions:
REMARK  status: ('A' for Active; 'I' for Inactive)
REMARK    1  A    between atoms: C_1  and  C_2
REMARK    2  A    between atoms: C_2  and  C_3
REMARK    3  A    between atoms: C_3  and  C_4
REMARK    4  A    between atoms: C_3  and  C_5
REMARK    5  A    between atoms: C_3  and  N_6
REMARK    6  A    between atoms: C_7  and  C_11
REMARK    7  A    between atoms: C_11  and  C_13
REMARK    8  A    between atoms: C_11  and  N_62
REMARK    9  A    between atoms: C_16  and  C_19
REMARK   10  A    between atoms: C_23  and  C_24
REMARK   11  A    between atoms: C_23  and  N_62
REMARK   12  A    between atoms: C_30  and  C_31
REMARK   13  A    between atoms: C_30  and  N_62
REMARK                            x       y       z     vdW  Elec       q    Type
REMARK                         _______ _______ _______ _____ _____    ______ ____
ROOT
ATOM      1  C   UNL     1       1.334   5.267   1.989  0.00  0.00    +0.034 C 
ENDROOT
BRANCH   1   2
ATOM      2  C   UNL     1       1.149   5.289   3.484  0.00  0.00    -0.054 A 
ATOM      3  C   UNL     1      -0.124   5.334   4.022  0.00  0.00    +0.003 A 
ATOM      4  C   UNL     1      -0.294   5.349   5.394  0.00  0.00    +0.012 A 
ATOM      5  C   UNL     1       0.808   5.328   6.227  0.00  0.00    +0.055 A 
ATOM      6  C   UNL     1       2.081   5.289   5.689  0.00  0.00    +0.012 A 
ATOM      7  C   UNL     1       2.251   5.269   4.317  0.00  0.00    +0.003 A 
BRANCH   5   8
ATOM      8  C   UNL     1       0.623   5.349   7.723  0.00  0.00    +0.417 C 
ATOM      9  F   UNL     1       0.600   6.674   8.171  0.00  0.00    -0.166 F 
ATOM     10  F   UNL     1      -0.585   4.725   8.052  0.00  0.00    -0.166 F 
ATOM     11  F   UNL     1       1.681   4.668   8.334  0.00  0.00    -0.166 F 
ENDBRANCH   5   8
ENDBRANCH   1   2
BRANCH   1  13
ATOM     12  N   UNL     1       0.997   7.535   0.872  0.00  0.00    -0.225 N 
ATOM     13  C   UNL     1       0.525   6.376   1.366  0.00  0.00    +0.143 A 
ATOM     14  N   UNL     1      -0.776   6.401   1.206  0.00  0.00    -0.115 NA
ATOM     15  N   UNL     1      -1.086   7.515   0.639  0.00  0.00    -0.023 NA
ATOM     16  N   UNL     1      -0.016   8.202   0.432  0.00  0.00    -0.043 NA
BRANCH  12  17
ATOM     17  C   UNL     1       2.399   7.960   0.836  0.00  0.00    +0.061 C 
ATOM     18  C   UNL     1       2.991   7.882   2.245  0.00  0.00    +0.036 C 
ATOM     19  C   UNL     1       3.186   7.040  -0.100  0.00  0.00    +0.036 C 
BRANCH  17  21
ATOM     20  C   UNL     1       3.947   9.842   0.289  0.00  0.00    +0.006 C 
ATOM     21  C   UNL     1       2.483   9.399   0.326  0.00  0.00    +0.026 C 
ENDBRANCH  17  21
ENDBRANCH  12  17
ENDBRANCH   1  13
BRANCH   1  22
ATOM     22  N   UNL     1       0.882   3.976   1.429  0.00  0.00    +0.396 N 
ATOM     23  H   UNL     1       0.850   4.050   0.405  0.00  0.00    -0.079 HD
BRANCH  22  24
ATOM     24  C   UNL     1      -0.471   3.655   1.930  0.00  0.00    -0.039 C 
BRANCH  24  25
ATOM     25  C   UNL     1      -0.995   2.457   1.180  0.00  0.00    -0.046 A 
ATOM     26  C   UNL     1      -1.700   2.623  -0.003  0.00  0.00    +0.005 A 
ATOM     27  C   UNL     1      -2.163   1.492  -0.658  0.00  0.00    +0.020 A 
ATOM     28  C   UNL     1      -1.908   0.247  -0.116  0.00  0.00    +0.111 A 
ATOM     29  N   UNL     1      -1.234   0.128   1.011  0.00  0.00    -0.263 NA
ATOM     30  C   UNL     1      -0.779   1.180   1.662  0.00  0.00    +0.112 A 
ENDBRANCH  24  25
ENDBRANCH  22  24
BRANCH  22  31
ATOM     31  C   UNL     1       1.827   2.904   1.804  0.00  0.00    -0.001 C 
BRANCH  31  32
ATOM     32  C   UNL     1       3.086   3.061   0.990  0.00  0.00    +0.089 A 
ATOM     33  C   UNL     1       4.208   3.687   1.389  0.00  0.00    +0.042 A 
ATOM     34  C   UNL     1       5.128   3.598   0.319  0.00  0.00    +0.041 A 
ATOM     35  C   UNL     1       4.514   2.923  -0.669  0.00  0.00    +0.195 A 
ATOM     36  O   UNL     1       3.279   2.596  -0.255  0.00  0.00    -0.470 OA
ENDBRANCH  31  32
ENDBRANCH  22  31
ENDBRANCH   1  22
TORSDOF 10
