REMARK  Name = ZINC00887891
REMARK  10 active torsions:
REMARK  status: ('A' for Active; 'I' for Inactive)
REMARK    1  A    between atoms: C_1  and  C_2
REMARK    2  A    between atoms: C_5  and  C_7
REMARK    3  A    between atoms: N_10  and  C_12
REMARK    4  A    between atoms: C_12  and  C_13
REMARK    5  A    between atoms: N_15  and  C_16
REMARK    6  A    between atoms: N_15  and  C_26
REMARK    7  A    between atoms: C_16  and  C_17
REMARK    8  A    between atoms: C_26  and  C_28
REMARK    9  A    between atoms: C_26  and  C_35
REMARK   10  A    between atoms: N_37  and  C_38
REMARK                            x       y       z     vdW  Elec       q    Type
REMARK                         _______ _______ _______ _____ _____    ______ ____
ROOT
ATOM      1  C   UNL     1       5.416  -4.756  -0.987  0.00  0.00    +0.240 C 
ATOM      2  O   UNL     1       4.668  -4.747  -1.942  0.00  0.00    -0.273 OA
ATOM      3  N   UNL     1       6.308  -5.756  -0.839  0.00  0.00    -0.280 N 
ENDROOT
BRANCH   1   4
ATOM      4  C   UNL     1       5.350  -3.648   0.032  0.00  0.00    +0.264 C 
BRANCH   4   8
ATOM      5  C   UNL     1       3.746  -0.850  -1.402  0.00  0.00    +0.239 A 
ATOM      6  N   UNL     1       2.719  -1.472  -0.803  0.00  0.00    -0.105 NA
ATOM      7  N   UNL     1       3.191  -2.529  -0.234  0.00  0.00    -0.045 NA
ATOM      8  N   UNL     1       4.458  -2.591  -0.452  0.00  0.00    -0.154 N 
ATOM      9  N   UNL     1       4.820  -1.581  -1.166  0.00  0.00    -0.127 NA
BRANCH   5  14
ATOM     10  C   UNL     1       5.162   3.090  -4.172  0.00  0.00    +0.086 C 
ATOM     11  C   UNL     1       4.300   2.132  -3.391  0.00  0.00    +0.103 A 
ATOM     12  C   UNL     1       2.974   2.253  -3.190  0.00  0.00    +0.045 A 
ATOM     13  C   UNL     1       2.572   1.148  -2.413  0.00  0.00    +0.053 A 
ATOM     14  C   UNL     1       3.687   0.407  -2.179  0.00  0.00    +0.175 A 
ATOM     15  O   UNL     1       4.727   1.012  -2.784  0.00  0.00    -0.457 OA
ENDBRANCH   5  14
ENDBRANCH   4   8
ENDBRANCH   1   4
BRANCH   3  16
ATOM     16  C   UNL     1       7.128  -5.832   0.372  0.00  0.00    +0.144 C 
BRANCH  16  17
ATOM     17  C   UNL     1       6.898  -7.156   1.053  0.00  0.00    -0.026 A 
ATOM     18  C   UNL     1       5.667  -7.438   1.615  0.00  0.00    +0.009 A 
ATOM     19  C   UNL     1       5.450  -8.652   2.240  0.00  0.00    +0.050 A 
ATOM     20  C   UNL     1       6.468  -9.589   2.306  0.00  0.00    +0.166 A 
ATOM     21  C   UNL     1       7.708  -9.306   1.740  0.00  0.00    +0.167 A 
ATOM     22  C   UNL     1       7.916  -8.089   1.109  0.00  0.00    +0.054 A 
ATOM     23  O   UNL     1       8.532 -10.377   1.934  0.00  0.00    -0.453 OA
ATOM     24  C   UNL     1       7.914 -11.152   2.978  0.00  0.00    +0.466 C 
ATOM     25  O   UNL     1       6.514 -10.838   2.855  0.00  0.00    -0.453 OA
ENDBRANCH  16  17
ENDBRANCH   3  16
BRANCH   3  26
ATOM     26  C   UNL     1       6.455  -6.767  -1.889  0.00  0.00    +0.193 C 
BRANCH  26  27
ATOM     27  C   UNL     1       6.322  -6.113  -3.239  0.00  0.00    -0.018 A 
ATOM     28  C   UNL     1       7.002  -4.940  -3.509  0.00  0.00    +0.009 A 
ATOM     29  C   UNL     1       6.881  -4.339  -4.747  0.00  0.00    +0.038 A 
ATOM     30  C   UNL     1       6.077  -4.912  -5.718  0.00  0.00    +0.123 A 
ATOM     31  C   UNL     1       5.396  -6.086  -5.447  0.00  0.00    +0.038 A 
ATOM     32  C   UNL     1       5.523  -6.688  -4.210  0.00  0.00    +0.009 A 
ATOM     33  F   UNL     1       5.957  -4.325  -6.929  0.00  0.00    -0.205 F 
ENDBRANCH  26  27
BRANCH  26  34
ATOM     34  C   UNL     1       7.812  -7.414  -1.776  0.00  0.00    +0.238 C 
ATOM     35  O   UNL     1       8.631  -6.973  -0.998  0.00  0.00    -0.273 OA
ATOM     36  N   UNL     1       8.114  -8.483  -2.539  0.00  0.00    -0.311 N 
ATOM     37  H   UNL     1       7.459  -8.836  -3.161  0.00  0.00    +0.149 HD
BRANCH  36  38
ATOM     38  C   UNL     1       9.433  -9.112  -2.429  0.00  0.00    +0.073 C 
ATOM     39  C   UNL     1      10.426  -8.373  -3.328  0.00  0.00    +0.022 C 
ATOM     40  C   UNL     1      11.803  -9.030  -3.214  0.00  0.00    +0.002 C 
ATOM     41  C   UNL     1      11.709 -10.492  -3.652  0.00  0.00    +0.000 C 
ATOM     42  C   UNL     1      10.716 -11.231  -2.753  0.00  0.00    +0.002 C 
ATOM     43  C   UNL     1       9.338 -10.575  -2.868  0.00  0.00    +0.022 C 
ENDBRANCH  36  38
ENDBRANCH  26  34
ENDBRANCH   3  26
TORSDOF 9
