REMARK  Name = ZINC07605644
REMARK  8 active torsions:
REMARK  status: ('A' for Active; 'I' for Inactive)
REMARK    1  A    between atoms: C_1  and  C_2
REMARK    2  A    between atoms: C_5  and  C_9
REMARK    3  A    between atoms: C_7  and  C_8
REMARK    4  A    between atoms: C_9  and  O_11
REMARK    5  A    between atoms: O_11  and  C_12
REMARK    6  A    between atoms: C_12  and  C_14
REMARK    7  A    between atoms: C_12  and  C_15
REMARK    8  A    between atoms: N_17  and  C_18
REMARK                            x       y       z     vdW  Elec       q    Type
REMARK                         _______ _______ _______ _____ _____    ______ ____
ROOT
ATOM      1  C   UNL     1      -3.711  -1.064  -0.202  0.00  0.00    +0.259 C 
ATOM      2  C   UNL     1      -4.564  -0.803   1.041  0.00  0.00    +0.062 C 
ENDROOT
BRANCH   1   3
ATOM      3  C   UNL     1      -2.414  -0.304  -0.090  0.00  0.00    +0.258 C 
ATOM      4  O   UNL     1      -1.359  -0.901  -0.099  0.00  0.00    -0.271 OA
ATOM      5  N   UNL     1      -2.428   1.039   0.019  0.00  0.00    -0.281 N 
ATOM      6  H   UNL     1      -3.272   1.512   0.091  0.00  0.00    +0.155 HD
BRANCH   5   7
ATOM      7  C   UNL     1      -1.224   1.753   0.029  0.00  0.00    +0.052 A 
ATOM      8  C   UNL     1      -0.096   1.206   0.626  0.00  0.00    +0.026 A 
ATOM      9  C   UNL     1       1.093   1.910   0.628  0.00  0.00    +0.022 A 
ATOM     10  C   UNL     1       1.159   3.162   0.042  0.00  0.00    +0.042 A 
ATOM     11  C   UNL     1       0.036   3.712  -0.549  0.00  0.00    +0.041 A 
ATOM     12  C   UNL     1      -1.156   3.013  -0.554  0.00  0.00    +0.064 A 
ATOM     13 CL   UNL     1      -2.566   3.704  -1.295  0.00  0.00    -0.082 Cl
ATOM     14 CL   UNL     1       2.655   4.043   0.047  0.00  0.00    -0.083 Cl
ENDBRANCH   5   7
ENDBRANCH   1   3
BRANCH   1  15
ATOM     15  O   UNL     1      -3.432  -2.485  -0.307  0.00  0.00    -0.449 OA
BRANCH  15  16
ATOM     16  C   UNL     1      -4.310  -3.231  -1.004  0.00  0.00    +0.340 C 
ATOM     17  O   UNL     1      -5.283  -2.709  -1.510  0.00  0.00    -0.245 OA
BRANCH  16  22
ATOM     18  C   UNL     1      -3.454  -8.891  -1.585  0.00  0.00    +0.044 C 
ATOM     19  C   UNL     1      -3.678  -7.408  -1.433  0.00  0.00    -0.047 A 
ATOM     20  C   UNL     1      -2.773  -6.645  -0.717  0.00  0.00    +0.004 A 
ATOM     21  C   UNL     1      -2.970  -5.287  -0.578  0.00  0.00    +0.015 A 
ATOM     22  C   UNL     1      -4.090  -4.684  -1.153  0.00  0.00    +0.059 A 
ATOM     23  C   UNL     1      -4.999  -5.460  -1.875  0.00  0.00    +0.018 A 
ATOM     24  C   UNL     1      -4.788  -6.817  -2.011  0.00  0.00    -0.047 A 
ATOM     25  C   UNL     1      -5.767  -7.657  -2.789  0.00  0.00    +0.044 C 
ENDBRANCH  16  22
ENDBRANCH  15  16
ENDBRANCH   1  15
TORSDOF 5
