REMARK  Name = ZINC02706379
REMARK  10 active torsions:
REMARK  status: ('A' for Active; 'I' for Inactive)
REMARK    1  A    between atoms: C_1  and  C_2
REMARK    2  A    between atoms: C_4  and  C_26
REMARK    3  A    between atoms: C_6  and  S_8
REMARK    4  A    between atoms: S_8  and  C_9
REMARK    5  A    between atoms: C_9  and  C_10
REMARK    6  A    between atoms: C_13  and  S_22
REMARK    7  A    between atoms: N_14  and  C_15
REMARK    8  A    between atoms: S_22  and  C_23
REMARK    9  A    between atoms: C_23  and  C_24
REMARK   10  A    between atoms: C_23  and  C_25
REMARK                            x       y       z     vdW  Elec       q    Type
REMARK                         _______ _______ _______ _____ _____    ______ ____
ROOT
ATOM      1  C   UNL     1      -1.412  -0.526   0.013  0.00  0.00    +0.149 A 
ATOM      2  N   UNL     1      -2.124  -0.804   1.068  0.00  0.00    -0.132 NA
ATOM      3  N   UNL     1      -3.287  -1.225   0.718  0.00  0.00    -0.122 NA
ATOM      4  C   UNL     1      -3.379  -1.247  -0.592  0.00  0.00    +0.196 A 
ATOM      5  N   UNL     1      -2.184  -0.801  -1.085  0.00  0.00    -0.274 N 
ENDROOT
BRANCH   5   6
ATOM      6  C   UNL     1      -1.824  -0.654  -2.433  0.00  0.00    +0.050 A 
ATOM      7  C   UNL     1      -1.571   0.608  -2.952  0.00  0.00    +0.029 A 
ATOM      8  C   UNL     1      -1.211   0.749  -4.277  0.00  0.00    +0.040 A 
ATOM      9  C   UNL     1      -1.114  -0.366  -5.092  0.00  0.00    +0.124 A 
ATOM     10  C   UNL     1      -1.371  -1.626  -4.578  0.00  0.00    +0.040 A 
ATOM     11  C   UNL     1      -1.726  -1.772  -3.251  0.00  0.00    +0.029 A 
ATOM     12  F   UNL     1      -0.768  -0.225  -6.391  0.00  0.00    -0.205 F 
ENDBRANCH   5   6
BRANCH   1  13
ATOM     13  C   UNL     1       0.002  -0.004   0.002  0.00  0.00    +0.154 C 
BRANCH  13  14
ATOM     14  S   UNL     1      -0.022   1.806   0.012  0.00  0.00    -0.078 S 
BRANCH  14  20
ATOM     15  C   UNL     1       4.827   0.173  -0.043  0.00  0.00    +0.066 C 
ATOM     16  C   UNL     1       3.866   1.333  -0.028  0.00  0.00    +0.043 A 
ATOM     17  C   UNL     1       4.338   2.636  -0.025  0.00  0.00    +0.046 A 
ATOM     18  C   UNL     1       3.420   3.674  -0.011  0.00  0.00    +0.043 A 
ATOM     19  N   UNL     1       2.128   3.393   0.000  0.00  0.00    -0.227 NA
ATOM     20  C   UNL     1       1.708   2.135  -0.003  0.00  0.00    +0.189 A 
ATOM     21  N   UNL     1       2.560   1.120  -0.011  0.00  0.00    -0.227 NA
ATOM     22  C   UNL     1       3.888   5.107  -0.008  0.00  0.00    +0.066 C 
ENDBRANCH  14  20
ENDBRANCH  13  14
ENDBRANCH   1  13
BRANCH   4  23
ATOM     23  S   UNL     1      -4.778  -1.754  -1.536  0.00  0.00    -0.083 S 
BRANCH  23  24
ATOM     24  C   UNL     1      -5.918  -2.188  -0.199  0.00  0.00    +0.048 C 
ATOM     25  C   UNL     1      -7.282  -2.552  -0.790  0.00  0.00    +0.019 C 
ATOM     26  C   UNL     1      -5.363  -3.385   0.577  0.00  0.00    +0.019 C 
ENDBRANCH  23  24
ENDBRANCH   4  23
TORSDOF 6
