REMARK  Name = ZINC36029882
REMARK  9 active torsions:
REMARK  status: ('A' for Active; 'I' for Inactive)
REMARK    1  A    between atoms: C_1  and  C_2
REMARK    2  A    between atoms: C_2  and  C_3
REMARK    3  A    between atoms: C_3  and  C_5
REMARK    4  A    between atoms: C_3  and  C_6
REMARK    5  A    between atoms: N_10  and  C_31
REMARK    6  A    between atoms: N_15  and  S_18
REMARK    7  A    between atoms: S_18  and  C_21
REMARK    8  A    between atoms: C_25  and  C_27
REMARK    9  A    between atoms: C_31  and  C_32
REMARK                            x       y       z     vdW  Elec       q    Type
REMARK                         _______ _______ _______ _____ _____    ______ ____
ROOT
ATOM      1  C   UNL     1      -1.199  -3.464   0.766  0.00  0.00    +0.022 C 
ATOM      2  C   UNL     1      -2.079  -4.050  -0.317  0.00  0.00    +0.201 C 
ATOM      3  O   UNL     1      -3.086  -4.701  -0.137  0.00  0.00    -0.277 OA
ATOM      4  N   UNL     1      -1.554  -3.724  -1.517  0.00  0.00    -0.309 N 
ATOM      5  C   UNL     1      -0.334  -2.937  -1.320  0.00  0.00    +0.006 C 
ATOM      6  N   UNL     1      -0.372  -2.446   0.075  0.00  0.00    +0.401 N 
ATOM      7  C   UNL     1       0.899  -3.814  -1.523  0.00  0.00    +0.023 C 
ATOM      8  C   UNL     1       0.910  -4.352  -2.958  0.00  0.00    +0.109 C 
ATOM      9  N   UNL     1       0.805  -3.219  -3.888  0.00  0.00    -0.177 NA
ATOM     10  C   UNL     1      -0.308  -2.273  -3.727  0.00  0.00    +0.109 C 
ATOM     11  C   UNL     1      -0.308  -1.753  -2.285  0.00  0.00    +0.023 C 
ATOM     12  H   UNL     1      -0.811  -1.538   0.121  0.00  0.00    -0.082 HD
ATOM     13  H   UNL     1       0.557  -2.414   0.468  0.00  0.00    -0.082 HD
ENDROOT
BRANCH   9  14
ATOM     14  S   UNL     1       1.920  -3.012  -5.094  0.00  0.00    +0.061 S 
ATOM     15  O   UNL     1       1.903  -1.631  -5.431  0.00  0.00    -0.153 OA
ATOM     16  O   UNL     1       3.102  -3.678  -4.673  0.00  0.00    -0.153 OA
BRANCH  14  17
ATOM     17  C   UNL     1       1.327  -3.882  -6.507  0.00  0.00    +0.106 A 
ATOM     18  C   UNL     1       1.667  -5.209  -6.694  0.00  0.00    +0.028 A 
ATOM     19  C   UNL     1       1.201  -5.891  -7.802  0.00  0.00    +0.002 A 
ATOM     20  C   UNL     1       0.396  -5.247  -8.723  0.00  0.00    +0.012 A 
ATOM     21  C   UNL     1       0.056  -3.921  -8.536  0.00  0.00    +0.057 A 
ATOM     22  C   UNL     1       0.518  -3.239  -7.425  0.00  0.00    +0.041 A 
BRANCH  21  23
ATOM     23  C   UNL     1      -0.821  -3.218  -9.540  0.00  0.00    +0.417 C 
ATOM     24  F   UNL     1      -1.161  -4.108 -10.565  0.00  0.00    -0.166 F 
ATOM     25  F   UNL     1      -1.985  -2.768  -8.908  0.00  0.00    -0.166 F 
ATOM     26  F   UNL     1      -0.131  -2.127 -10.079  0.00  0.00    -0.166 F 
ENDBRANCH  21  23
ENDBRANCH  14  17
ENDBRANCH   9  14
BRANCH   1  27
ATOM     27  C   UNL     1      -2.055  -2.808   1.851  0.00  0.00    -0.020 C 
ATOM     28  C   UNL     1      -1.145  -2.159   2.896  0.00  0.00    +0.006 C 
BRANCH  27  30
ATOM     29  C   UNL     1      -3.873  -3.197   3.521  0.00  0.00    +0.004 C 
ATOM     30  C   UNL     1      -2.928  -3.870   2.523  0.00  0.00    -0.001 C 
ENDBRANCH  27  30
ENDBRANCH   1  27
BRANCH   4  31
ATOM     31  C   UNL     1      -2.117  -4.101  -2.816  0.00  0.00    +0.142 C 
BRANCH  31  32
ATOM     32  C   UNL     1      -3.139  -3.077  -3.237  0.00  0.00    -0.012 A 
ATOM     33  C   UNL     1      -3.953  -2.468  -2.293  0.00  0.00    +0.008 A 
ATOM     34  C   UNL     1      -4.879  -1.532  -2.726  0.00  0.00    +0.020 A 
ATOM     35  C   UNL     1      -4.960  -1.238  -4.074  0.00  0.00    +0.111 A 
ATOM     36  N   UNL     1      -4.171  -1.837  -4.944  0.00  0.00    -0.263 NA
ATOM     37  C   UNL     1      -3.274  -2.728  -4.567  0.00  0.00    +0.115 A 
ENDBRANCH  31  32
ENDBRANCH   4  31
TORSDOF 7
