REMARK  Name = ZINC43596939
REMARK  4 active torsions:
REMARK  status: ('A' for Active; 'I' for Inactive)
REMARK    1  A    between atoms: C_4  and  O_8
REMARK    2  A    between atoms: C_5  and  O_7
REMARK    3  A    between atoms: O_8  and  C_9
REMARK    4  A    between atoms: C_12  and  N_16
REMARK                            x       y       z     vdW  Elec       q    Type
REMARK                         _______ _______ _______ _____ _____    ______ ____
ROOT
ATOM      1  C   UNL     1       4.731   0.113  -0.148  0.00  0.00    +0.143 A 
ATOM      2  C   UNL     1       4.664   1.499  -0.132  0.00  0.00    +0.049 A 
ATOM      3  C   UNL     1       5.820   2.246  -0.246  0.00  0.00    +0.036 A 
ATOM      4  C   UNL     1       7.044   1.614  -0.376  0.00  0.00    +0.127 A 
ATOM      5  C   UNL     1       7.113   0.234  -0.392  0.00  0.00    +0.051 A 
ATOM      6  C   UNL     1       5.960  -0.519  -0.272  0.00  0.00    +0.062 A 
ATOM      7 BR   UNL     1       6.057  -2.408  -0.286  0.00  0.00    -0.046 Br
ENDROOT
BRANCH   4   8
ATOM      8  N   UNL     1       8.281   2.418  -0.498  0.00  0.00    +0.056 N 
ATOM      9  O   UNL     1       8.221   3.625  -0.484  0.00  0.00    -0.126 OA
ATOM     10  O   UNL     1       9.351   1.867  -0.611  0.00  0.00    -0.126 OA
ENDBRANCH   4   8
BRANCH   1  11
ATOM     11  O   UNL     1       3.594  -0.624  -0.036  0.00  0.00    -0.451 OA
BRANCH  11  15
ATOM     12  C   UNL     1      -0.019   1.375  -0.011  0.00  0.00    +0.004 A 
ATOM     13  C   UNL     1       0.554   0.965   1.179  0.00  0.00    +0.004 A 
ATOM     14  C   UNL     1       1.764   0.296   1.173  0.00  0.00    +0.050 A 
ATOM     15  C   UNL     1       2.405   0.034  -0.028  0.00  0.00    +0.170 A 
ATOM     16  C   UNL     1       1.828   0.447  -1.225  0.00  0.00    +0.159 A 
ATOM     17  C   UNL     1       0.615   1.117  -1.212  0.00  0.00    +0.049 A 
BRANCH  16  18
ATOM     18  O   UNL     1       2.453   0.193  -2.406  0.00  0.00    -0.503 OA
ATOM     19  H   UNL     1       2.207  -0.652  -2.808  0.00  0.00    +0.292 HD
ENDBRANCH  16  18
ENDBRANCH  11  15
ENDBRANCH   1  11
TORSDOF 4
