REMARK  Name = ZINC39710636
REMARK  12 active torsions:
REMARK  status: ('A' for Active; 'I' for Inactive)
REMARK    1  A    between atoms: C_1  and  C_2
REMARK    2  A    between atoms: C_7  and  C_14
REMARK    3  A    between atoms: C_14  and  C_16
REMARK    4  A    between atoms: C_14  and  N_26
REMARK    5  A    between atoms: N_21  and  C_22
REMARK    6  A    between atoms: C_22  and  C_23
REMARK    7  A    between atoms: C_22  and  C_24
REMARK    8  A    between atoms: C_22  and  C_25
REMARK    9  A    between atoms: N_26  and  C_27
REMARK   10  A    between atoms: N_26  and  C_34
REMARK   11  A    between atoms: C_27  and  C_28
REMARK   12  A    between atoms: C_34  and  C_35
REMARK                            x       y       z     vdW  Elec       q    Type
REMARK                         _______ _______ _______ _____ _____    ______ ____
ROOT
ATOM      1  C   UNL     1       1.968  -4.625   1.983  0.00  0.00    -0.009 C 
ENDROOT
BRANCH   1   8
ATOM      2  C   UNL     1       3.803   2.626   2.491  0.00  0.00    +0.044 C 
ATOM      3  C   UNL     1       3.208   1.291   2.125  0.00  0.00    -0.049 A 
ATOM      4  C   UNL     1       3.030   0.984   0.775  0.00  0.00    +0.004 A 
ATOM      5  C   UNL     1       2.499  -0.203   0.384  0.00  0.00    +0.010 A 
ATOM      6  C   UNL     1       2.108  -1.173   1.407  0.00  0.00    -0.007 A 
ATOM      7  C   UNL     1       1.571  -2.377   1.061  0.00  0.00    -0.006 C 
ATOM      8  C   UNL     1       1.196  -3.320   2.187  0.00  0.00    +0.088 C 
ATOM      9  C   UNL     1       1.447  -2.849   3.601  0.00  0.00    +0.223 C 
ATOM     10  O   UNL     1       1.165  -3.566   4.543  0.00  0.00    -0.275 OA
ATOM     11  N   UNL     1       1.976  -1.655   3.811  0.00  0.00    -0.285 N 
ATOM     12  C   UNL     1       2.307  -0.822   2.824  0.00  0.00    +0.041 A 
ATOM     13  C   UNL     1       2.870   0.432   3.122  0.00  0.00    +0.027 A 
ATOM     14  H   UNL     1       2.129  -1.371   4.726  0.00  0.00    +0.155 HD
ENDBRANCH   1   8
BRANCH   1  15
ATOM     15  C   UNL     1       3.463  -4.370   2.186  0.00  0.00    +0.205 C 
ATOM     16  N   UNL     1       3.710  -3.801   3.518  0.00  0.00    -0.152 NA
ATOM     17  N   UNL     1       4.218  -2.685   3.386  0.00  0.00    -0.070 NA
ATOM     18  N   UNL     1       4.394  -2.323   2.052  0.00  0.00    -0.179 N 
ATOM     19  N   UNL     1       3.942  -3.337   1.244  0.00  0.00    -0.183 NA
ATOM     20  H   UNL     1       4.776  -1.486   1.742  0.00  0.00    +0.191 HD
BRANCH  19  21
ATOM     21  C   UNL     1       5.022  -3.858   0.395  0.00  0.00    +0.035 C 
ATOM     22  C   UNL     1       4.507  -5.054  -0.408  0.00  0.00    +0.029 C 
ATOM     23  C   UNL     1       5.491  -2.762  -0.564  0.00  0.00    +0.029 C 
ATOM     24  C   UNL     1       6.193  -4.301   1.275  0.00  0.00    +0.029 C 
ENDBRANCH  19  21
ENDBRANCH   1  15
BRANCH   1  25
ATOM     25  N   UNL     1       1.506  -5.625   2.956  0.00  0.00    +0.390 N 
ATOM     26  H   UNL     1       1.697  -5.298   3.891  0.00  0.00    -0.080 HD
BRANCH  25  27
ATOM     27  C   UNL     1       2.211  -6.893   2.727  0.00  0.00    -0.040 C 
BRANCH  27  28
ATOM     28  C   UNL     1       2.194  -7.712   3.991  0.00  0.00    -0.046 A 
ATOM     29  C   UNL     1       2.531  -7.135   5.207  0.00  0.00    +0.005 A 
ATOM     30  C   UNL     1       2.502  -7.927   6.344  0.00  0.00    +0.020 A 
ATOM     31  C   UNL     1       2.140  -9.256   6.230  0.00  0.00    +0.111 A 
ATOM     32  N   UNL     1       1.826  -9.772   5.058  0.00  0.00    -0.263 NA
ATOM     33  C   UNL     1       1.837  -9.047   3.956  0.00  0.00    +0.112 A 
ENDBRANCH  27  28
ENDBRANCH  25  27
BRANCH  25  34
ATOM     34  C   UNL     1       0.061  -5.832   2.796  0.00  0.00    -0.040 C 
BRANCH  34  35
ATOM     35  C   UNL     1      -0.387  -6.960   3.689  0.00  0.00    -0.046 A 
ATOM     36  C   UNL     1      -0.529  -8.235   3.174  0.00  0.00    +0.003 A 
ATOM     37  C   UNL     1      -0.940  -9.269   3.993  0.00  0.00    +0.000 A 
ATOM     38  C   UNL     1      -1.209  -9.030   5.328  0.00  0.00    +0.001 A 
ATOM     39  C   UNL     1      -1.067  -7.756   5.844  0.00  0.00    +0.020 A 
ATOM     40  C   UNL     1      -0.651  -6.721   5.026  0.00  0.00    +0.042 A 
ATOM     41 CL   UNL     1      -0.466  -5.121   5.674  0.00  0.00    -0.083 Cl
ENDBRANCH  34  35
ENDBRANCH  25  34
ENDBRANCH   1  25
TORSDOF 8
