REMARK  Name = ZINC52757356
REMARK  10 active torsions:
REMARK  status: ('A' for Active; 'I' for Inactive)
REMARK    1  A    between atoms: C_1  and  C_2
REMARK    2  A    between atoms: C_2  and  C_3
REMARK    3  A    between atoms: C_3  and  C_5
REMARK    4  A    between atoms: C_3  and  N_23
REMARK    5  A    between atoms: C_5  and  C_7
REMARK    6  A    between atoms: C_5  and  N_13
REMARK    7  A    between atoms: C_17  and  C_19
REMARK    8  A    between atoms: C_19  and  C_20
REMARK    9  A    between atoms: C_20  and  C_21
REMARK   10  A    between atoms: C_21  and  O_22
REMARK                            x       y       z     vdW  Elec       q    Type
REMARK                         _______ _______ _______ _____ _____    ______ ____
ROOT
ATOM      1  C   UNL     1       1.311  -2.046  -0.943  0.00  0.00    +0.079 C 
ENDROOT
BRANCH   1   2
ATOM      2  C   UNL     1       1.915  -0.667  -1.012  0.00  0.00    +0.006 A 
ATOM      3  C   UNL     1       2.283   0.050  -2.102  0.00  0.00    +0.014 A 
ATOM      4  C   UNL     1       2.822   1.310  -1.925  0.00  0.00    +0.023 A 
ATOM      5  C   UNL     1       2.968   1.792  -0.665  0.00  0.00    +0.055 A 
ATOM      6  S   UNL     1       2.324   0.449   0.320  0.00  0.00    -0.085 S 
ATOM      7 BR   UNL     1       3.664   3.457  -0.100  0.00  0.00    -0.043 Br
ENDBRANCH   1   2
BRANCH   1   8
ATOM      8  N   UNL     1       1.861  -2.764   0.215  0.00  0.00    -0.294 NA
ATOM      9  C   UNL     1       1.299  -2.240   1.479  0.00  0.00    +0.085 C 
ATOM     10  C   UNL     1       0.159  -3.224   1.842  0.00  0.00    +0.017 C 
ATOM     11  C   UNL     1       0.762  -4.581   1.395  0.00  0.00    +0.020 C 
ATOM     12  C   UNL     1       1.566  -4.206   0.133  0.00  0.00    +0.057 C 
BRANCH  12  13
ATOM     13  C   UNL     1       2.871  -5.003   0.090  0.00  0.00    +0.021 C 
BRANCH  13  14
ATOM     14  C   UNL     1       3.626  -4.677  -1.200  0.00  0.00    +0.029 C 
BRANCH  14  15
ATOM     15  C   UNL     1       4.867  -5.565  -1.303  0.00  0.00    +0.156 C 
BRANCH  15  16
ATOM     16  O   UNL     1       5.572  -5.261  -2.508  0.00  0.00    -0.395 OA
ATOM     17  H   UNL     1       6.372  -5.787  -2.640  0.00  0.00    +0.209 HD
ENDBRANCH  15  16
ENDBRANCH  14  15
ENDBRANCH  13  14
ENDBRANCH  12  13
ENDBRANCH   1   8
BRANCH   1  18
ATOM     18  C   UNL     1      -0.207  -1.931  -0.797  0.00  0.00    -0.053 C 
BRANCH  18  19
ATOM     19  N   UNL     1      -0.735  -1.054  -1.851  0.00  0.00    +0.381 N 
ATOM     20  H   UNL     1      -1.736  -0.978  -1.755  0.00  0.00    -0.090 HD
ATOM     21  H   UNL     1      -0.319  -0.138  -1.766  0.00  0.00    -0.090 HD
ATOM     22  H   UNL     1      -0.512  -1.442  -2.755  0.00  0.00    -0.090 HD
ENDBRANCH  18  19
BRANCH  18  24
ATOM     23  C   UNL     1      -2.353  -3.210  -0.740  0.00  0.00    +0.002 C 
ATOM     24  C   UNL     1      -0.838  -3.319  -0.927  0.00  0.00    -0.018 C 
ENDBRANCH  18  24
ENDBRANCH   1  18
TORSDOF 9
