REMARK  Name = ZINC00676517
REMARK  10 active torsions:
REMARK  status: ('A' for Active; 'I' for Inactive)
REMARK    1  A    between atoms: C_1  and  C_2
REMARK    2  A    between atoms: C_4  and  C_29
REMARK    3  A    between atoms: C_6  and  N_8
REMARK    4  A    between atoms: C_9  and  C_11
REMARK    5  A    between atoms: C_12  and  C_28
REMARK    6  A    between atoms: C_13  and  C_24
REMARK    7  A    between atoms: C_14  and  N_16
REMARK    8  A    between atoms: C_17  and  C_19
REMARK    9  A    between atoms: C_24  and  O_26
REMARK   10  A    between atoms: O_26  and  C_27
REMARK                            x       y       z     vdW  Elec       q    Type
REMARK                         _______ _______ _______ _____ _____    ______ ____
ROOT
ATOM      1  C   UNL     1      -1.288   1.913  -0.145  0.00  0.00    +0.080 A 
ATOM      2  C   UNL     1      -2.545   1.394  -0.296  0.00  0.00    -0.015 A 
ATOM      3  C   UNL     1      -3.615   2.275  -0.242  0.00  0.00    +0.091 A 
ATOM      4  C   UNL     1      -3.334   3.630  -0.038  0.00  0.00    +0.087 A 
ATOM      5  S   UNL     1      -1.605   3.652   0.082  0.00  0.00    -0.068 S 
ATOM      6  C   UNL     1      -2.760  -0.081  -0.513  0.00  0.00    +0.046 C 
ENDROOT
BRANCH   1   8
ATOM      7  N   UNL     1       1.143   1.903   0.001  0.00  0.00    -0.281 N 
ATOM      8  C   UNL     1      -0.003   1.212  -0.160  0.00  0.00    +0.255 C 
ATOM      9  O   UNL     1       0.032   0.006  -0.324  0.00  0.00    -0.269 OA
ATOM     10  H   UNL     1       1.123   2.871   0.055  0.00  0.00    +0.155 HD
BRANCH   7  16
ATOM     11  C   UNL     1       5.978   1.750  -0.878  0.00  0.00    +0.044 C 
ATOM     12  C   UNL     1       4.722   1.126  -0.327  0.00  0.00    -0.048 A 
ATOM     13  C   UNL     1       4.774  -0.121   0.270  0.00  0.00    +0.006 A 
ATOM     14  C   UNL     1       3.624  -0.697   0.778  0.00  0.00    -0.048 A 
ATOM     15  C   UNL     1       2.419  -0.028   0.691  0.00  0.00    +0.026 A 
ATOM     16  C   UNL     1       2.362   1.224   0.092  0.00  0.00    +0.034 A 
ATOM     17  C   UNL     1       3.518   1.797  -0.422  0.00  0.00    +0.026 A 
ATOM     18  C   UNL     1       3.687  -2.055   1.427  0.00  0.00    +0.044 C 
ENDBRANCH   7  16
ENDBRANCH   1   8
BRANCH   4  19
ATOM     19  N   UNL     1      -4.215   4.688   0.052  0.00  0.00    -0.275 N 
ATOM     20  C   UNL     1      -3.751   5.937   0.253  0.00  0.00    +0.255 C 
ATOM     21  O   UNL     1      -2.554   6.132   0.355  0.00  0.00    -0.269 OA
ATOM     22  H   UNL     1      -5.169   4.532  -0.030  0.00  0.00    +0.156 HD
BRANCH  20  23
ATOM     23  C   UNL     1      -4.687   7.060   0.348  0.00  0.00    +0.074 A 
ATOM     24  C   UNL     1      -4.420   8.405   0.550  0.00  0.00    +0.021 A 
ATOM     25  C   UNL     1      -5.497   9.255   0.599  0.00  0.00    +0.008 A 
ATOM     26  C   UNL     1      -6.749   8.749   0.451  0.00  0.00    +0.046 A 
ATOM     27  S   UNL     1      -6.467   7.053   0.227  0.00  0.00    -0.092 S 
ENDBRANCH  20  23
ENDBRANCH   4  19
BRANCH   3  28
ATOM     28  C   UNL     1      -4.996   1.801  -0.395  0.00  0.00    +0.342 C 
ATOM     29  O   UNL     1      -5.634   1.462   0.583  0.00  0.00    -0.245 OA
BRANCH  28  30
ATOM     30  O   UNL     1      -5.557   1.743  -1.620  0.00  0.00    -0.464 OA
ATOM     31  C   UNL     1      -6.926   1.265  -1.695  0.00  0.00    +0.280 C 
ENDBRANCH  28  30
ENDBRANCH   3  28
TORSDOF 6
