REMARK  Name = ZINC05440817
REMARK  7 active torsions:
REMARK  status: ('A' for Active; 'I' for Inactive)
REMARK    1  A    between atoms: C_1  and  C_2
REMARK    2  A    between atoms: C_2  and  C_23
REMARK    3  A    between atoms: C_6  and  C_22
REMARK    4  A    between atoms: C_13  and  O_20
REMARK    5  A    between atoms: C_14  and  C_17
REMARK    6  A    between atoms: C_15  and  O_16
REMARK    7  A    between atoms: C_17  and  C_19
REMARK                            x       y       z     vdW  Elec       q    Type
REMARK                         _______ _______ _______ _____ _____    ______ ____
ROOT
ATOM      1  C   UNL     1      -0.743  -4.040   0.920  0.00  0.00    +0.039 C 
ATOM      2  C   UNL     1       0.271  -3.408   1.838  0.00  0.00    -0.076 C 
ATOM      3  C   UNL     1       1.149  -2.561   1.360  0.00  0.00    -0.063 C 
ATOM      4  C   UNL     1       2.103  -1.806   2.263  0.00  0.00    +0.035 C 
ATOM      5  C   UNL     1       3.533  -2.033   1.767  0.00  0.00    +0.052 C 
ATOM      6  C   UNL     1       3.649  -1.743   0.279  0.00  0.00    +0.109 C 
ATOM      7  C   UNL     1       2.704  -2.634  -0.548  0.00  0.00    +0.060 C 
ATOM      8  C   UNL     1       1.265  -2.283  -0.133  0.00  0.00    +0.056 C 
ATOM      9  C   UNL     1       1.077  -0.791  -0.306  0.00  0.00    +0.044 A 
ATOM     10  C   UNL     1       2.160   0.071  -0.227  0.00  0.00    +0.132 A 
ATOM     11  C   UNL     1       1.964   1.446  -0.362  0.00  0.00    +0.092 A 
ATOM     12  C   UNL     1       0.702   1.956  -0.587  0.00  0.00    +0.134 A 
ATOM     13  C   UNL     1      -0.399   1.083  -0.683  0.00  0.00    +0.100 A 
ATOM     14  C   UNL     1      -0.196  -0.301  -0.532  0.00  0.00    +0.138 A 
ATOM     15  O   UNL     1       3.424  -0.379  -0.030  0.00  0.00    -0.485 OA
ATOM     16  C   UNL     1       5.076  -2.090  -0.153  0.00  0.00    +0.055 C 
ATOM     17  C   UNL     1       0.276  -3.750   3.306  0.00  0.00    +0.039 C 
ENDROOT
BRANCH  13  18
ATOM     18  C   UNL     1      -1.737   1.610  -0.941  0.00  0.00    +0.167 C 
ATOM     19  O   UNL     1      -2.105   1.798  -2.083  0.00  0.00    -0.292 OA
ATOM     20  C   UNL     1      -2.660   1.919   0.209  0.00  0.00    +0.092 C 
ENDBRANCH  13  18
BRANCH  14  21
ATOM     21  O   UNL     1      -1.248  -1.153  -0.609  0.00  0.00    -0.506 OA
ATOM     22  H   UNL     1      -1.428  -1.477  -1.502  0.00  0.00    +0.292 HD
ENDBRANCH  14  21
BRANCH  12  23
ATOM     23  O   UNL     1       0.522   3.293  -0.717  0.00  0.00    -0.506 OA
ATOM     24  H   UNL     1       0.342   3.749   0.117  0.00  0.00    +0.292 HD
ENDBRANCH  12  23
TORSDOF 3
