REMARK  Name = ZINC05126172
REMARK  5 active torsions:
REMARK  status: ('A' for Active; 'I' for Inactive)
REMARK    1  A    between atoms: C_1  and  C_2
REMARK    2  A    between atoms: C_2  and  C_20
REMARK    3  A    between atoms: N_3  and  N_4
REMARK    4  A    between atoms: C_5  and  C_7
REMARK    5  A    between atoms: C_9  and  C_13
REMARK                            x       y       z     vdW  Elec       q    Type
REMARK                         _______ _______ _______ _____ _____    ______ ____
ROOT
ATOM      1  N   UNL     1       6.010   6.031  -0.015  0.00  0.00    -0.201 N 
ATOM      2  C   UNL     1       5.991   7.379  -0.003  0.00  0.00    +0.281 C 
ATOM      3  O   UNL     1       4.928   7.972   0.018  0.00  0.00    -0.267 OA
ATOM      4  H   UNL     1       6.857   5.559  -0.031  0.00  0.00    +0.178 HD
ENDROOT
BRANCH   2   5
ATOM      5  C   UNL     1       7.254   8.133  -0.015  0.00  0.00    +0.122 A 
ATOM      6  C   UNL     1       7.397   9.508  -0.011  0.00  0.00    +0.062 A 
ATOM      7  C   UNL     1       8.785   9.736  -0.025  0.00  0.00    +0.095 A 
ATOM      8  N   UNL     1       9.381   8.563  -0.044  0.00  0.00    -0.173 NA
ATOM      9  N   UNL     1       8.518   7.612  -0.039  0.00  0.00    -0.272 N 
ATOM     10  H   UNL     1       8.737   6.637  -0.051  0.00  0.00    +0.189 HD
BRANCH   7  11
ATOM     11  C   UNL     1       9.456  11.061  -0.026  0.00  0.00    +0.020 A 
ATOM     12  C   UNL     1       8.700  12.227  -0.118  0.00  0.00    +0.011 A 
ATOM     13  C   UNL     1       9.329  13.456  -0.117  0.00  0.00    +0.001 A 
ATOM     14  C   UNL     1      10.707  13.531  -0.024  0.00  0.00    +0.001 A 
ATOM     15  C   UNL     1      11.463  12.377   0.067  0.00  0.00    +0.020 A 
ATOM     16  C   UNL     1      10.844  11.142   0.072  0.00  0.00    +0.050 A 
ATOM     17 CL   UNL     1      11.794   9.693   0.194  0.00  0.00    -0.083 Cl
ENDBRANCH   7  11
ENDBRANCH   2   5
BRANCH   1  20
ATOM     18  C   UNL     1       6.141   3.281  -0.040  0.00  0.00    +0.068 C 
ATOM     19  C   UNL     1       4.826   4.015  -0.014  0.00  0.00    +0.063 C 
ATOM     20  N   UNL     1       4.807   5.313  -0.003  0.00  0.00    -0.184 NA
BRANCH  19  21
ATOM     21  C   UNL     1       3.560   3.260  -0.002  0.00  0.00    -0.002 A 
ATOM     22  C   UNL     1       3.586   1.853  -0.013  0.00  0.00    +0.010 A 
ATOM     23  C   UNL     1       2.434   1.136  -0.002  0.00  0.00    +0.009 A 
ATOM     24  C   UNL     1       1.193   1.798   0.022  0.00  0.00    -0.018 A 
ATOM     25  C   UNL     1      -0.012   1.076   0.035  0.00  0.00    +0.008 A 
ATOM     26  C   UNL     1      -1.199   1.743   0.054  0.00  0.00    +0.001 A 
ATOM     27  C   UNL     1      -1.239   3.136   0.071  0.00  0.00    +0.001 A 
ATOM     28  C   UNL     1      -0.092   3.869   0.059  0.00  0.00    +0.008 A 
ATOM     29  C   UNL     1       1.153   3.215   0.035  0.00  0.00    -0.017 A 
ATOM     30  C   UNL     1       2.353   3.941   0.022  0.00  0.00    +0.018 A 
ENDBRANCH  19  21
ENDBRANCH   1  20
TORSDOF 4
