REMARK  Name = ZINC04176432
REMARK  8 active torsions:
REMARK  status: ('A' for Active; 'I' for Inactive)
REMARK    1  A    between atoms: C_1  and  O_2
REMARK    2  A    between atoms: O_2  and  C_3
REMARK    3  A    between atoms: C_6  and  C_11
REMARK    4  A    between atoms: C_8  and  O_9
REMARK    5  A    between atoms: O_9  and  C_10
REMARK    6  A    between atoms: C_13  and  C_16
REMARK    7  A    between atoms: N_18  and  C_19
REMARK    8  A    between atoms: C_20  and  C_28
REMARK                            x       y       z     vdW  Elec       q    Type
REMARK                         _______ _______ _______ _____ _____    ______ ____
ROOT
ATOM      1  C   UNL     1       4.827  -1.712  -0.055  0.00  0.00    +0.270 C 
ATOM      2  O   UNL     1       4.232  -2.772  -0.055  0.00  0.00    -0.268 OA
ATOM      3  N   UNL     1       6.175  -1.696  -0.068  0.00  0.00    -0.274 N 
ATOM      4  H   UNL     1       6.650  -0.850  -0.067  0.00  0.00    +0.156 HD
ENDROOT
BRANCH   3   5
ATOM      5  C   UNL     1       6.882  -2.887  -0.081  0.00  0.00    +0.085 A 
ATOM      6  C   UNL     1       8.257  -3.074  -0.100  0.00  0.00    +0.068 A 
ATOM      7  C   UNL     1       8.749  -4.440  -0.106  0.00  0.00    -0.023 A 
ATOM      8  C   UNL     1       7.794  -5.396  -0.104  0.00  0.00    -0.004 A 
ATOM      9  S   UNL     1       6.264  -4.506  -0.085  0.00  0.00    -0.077 S 
ATOM     10  C   UNL     1       8.001  -6.879  -0.115  0.00  0.00    +0.043 C 
ATOM     11  C   UNL     1       9.458  -7.162  -0.509  0.00  0.00    +0.005 C 
ATOM     12  C   UNL     1      10.377  -6.264   0.325  0.00  0.00    +0.005 C 
ATOM     13  C   UNL     1      10.228  -4.809  -0.121  0.00  0.00    +0.037 C 
BRANCH   6  14
ATOM     14  C   UNL     1       9.179  -1.933  -0.110  0.00  0.00    +0.244 C 
ATOM     15  O   UNL     1       9.577  -1.463   0.940  0.00  0.00    -0.270 OA
ATOM     16  N   UNL     1       9.586  -1.406  -1.282  0.00  0.00    -0.325 N 
ATOM     17  H   UNL     1       9.269  -1.781  -2.119  0.00  0.00    +0.145 HD
ATOM     18  H   UNL     1      10.196  -0.652  -1.288  0.00  0.00    +0.145 HD
ENDBRANCH   6  14
ENDBRANCH   3   5
BRANCH   1  21
ATOM     19  C   UNL     1       2.477   1.070  -0.016  0.00  0.00    +0.168 A 
ATOM     20  C   UNL     1       2.660  -0.285  -0.020  0.00  0.00    +0.086 A 
ATOM     21  C   UNL     1       4.070  -0.437  -0.041  0.00  0.00    +0.169 A 
ATOM     22  N   UNL     1       4.572   0.775  -0.038  0.00  0.00    -0.073 NA
ATOM     23  O   UNL     1       3.705   1.618  -0.025  0.00  0.00    -0.354 OA
BRANCH  19  27
ATOM     24  C   UNL     1      -1.238   3.136   0.031  0.00  0.00    +0.162 A 
ATOM     25  C   UNL     1      -1.216   1.749   0.017  0.00  0.00    +0.050 A 
ATOM     26  C   UNL     1      -0.013   1.076   0.008  0.00  0.00    +0.015 A 
ATOM     27  C   UNL     1       1.187   1.790   0.000  0.00  0.00    +0.024 A 
ATOM     28  C   UNL     1       1.165   3.186   0.008  0.00  0.00    +0.061 A 
ATOM     29  C   UNL     1      -0.045   3.855   0.023  0.00  0.00    +0.162 A 
BRANCH  24  31
ATOM     30  C   UNL     1      -3.612   2.996   0.053  0.00  0.00    +0.277 C 
ATOM     31  O   UNL     1      -2.427   3.795   0.046  0.00  0.00    -0.491 OA
ENDBRANCH  24  31
BRANCH  29  32
ATOM     32  O   UNL     1      -0.070   5.215   0.031  0.00  0.00    -0.491 OA
ATOM     33  C   UNL     1       1.191   5.887   0.023  0.00  0.00    +0.277 C 
ENDBRANCH  29  32
ENDBRANCH  19  27
ENDBRANCH   1  21
TORSDOF 6
