REMARK  Name = ZINC66343396
REMARK  6 active torsions:
REMARK  status: ('A' for Active; 'I' for Inactive)
REMARK    1  A    between atoms: C_6  and  C_7
REMARK    2  A    between atoms: C_7  and  C_8
REMARK    3  A    between atoms: N_10  and  N_11
REMARK    4  A    between atoms: N_14  and  C_15
REMARK    5  A    between atoms: C_15  and  C_16
REMARK    6  A    between atoms: N_20  and  C_22
REMARK                            x       y       z     vdW  Elec       q    Type
REMARK                         _______ _______ _______ _____ _____    ______ ____
ROOT
ATOM      1  N   UNL     1      -3.293  -1.932  -2.965  0.00  0.00    -0.218 N 
ATOM      2  C   UNL     1      -4.434  -2.608  -3.204  0.00  0.00    +0.316 C 
ATOM      3  O   UNL     1      -4.794  -2.809  -4.348  0.00  0.00    -0.251 OA
ATOM      4  N   UNL     1      -5.177  -3.062  -2.175  0.00  0.00    -0.298 N 
ATOM      5  H   UNL     1      -2.759  -1.606  -3.706  0.00  0.00    +0.174 HD
ATOM      6  H   UNL     1      -4.891  -2.901  -1.262  0.00  0.00    +0.150 HD
ENDROOT
BRANCH   1   9
ATOM      7  C   UNL     1      -1.738  -1.024  -1.408  0.00  0.00    +0.233 C 
ATOM      8  O   UNL     1      -1.070  -0.616  -2.334  0.00  0.00    -0.274 OA
ATOM      9  N   UNL     1      -2.879  -1.700  -1.647  0.00  0.00    -0.233 N 
ATOM     10  H   UNL     1      -3.414  -2.026  -0.906  0.00  0.00    +0.173 HD
BRANCH   7  11
ATOM     11  C   UNL     1      -1.293  -0.775   0.010  0.00  0.00    +0.132 C 
BRANCH  11  17
ATOM     12  C   UNL     1      -0.017   1.378   0.010  0.00  0.00    +0.007 A 
ATOM     13  C   UNL     1       1.170   2.086   0.002  0.00  0.00    +0.038 A 
ATOM     14  C   UNL     1       2.379   1.410  -0.013  0.00  0.00    +0.123 A 
ATOM     15  C   UNL     1       2.396   0.026  -0.021  0.00  0.00    +0.038 A 
ATOM     16  C   UNL     1       1.208  -0.680  -0.013  0.00  0.00    +0.007 A 
ATOM     17  C   UNL     1       0.002  -0.004   0.002  0.00  0.00    -0.038 A 
ATOM     18  F   UNL     1       3.540   2.101  -0.021  0.00  0.00    -0.205 F 
ENDBRANCH  11  17
ENDBRANCH   7  11
ENDBRANCH   1   9
BRANCH   4  19
ATOM     19  C   UNL     1      -6.418  -3.797  -2.435  0.00  0.00    +0.111 C 
BRANCH  19  20
ATOM     20  C   UNL     1      -7.062  -4.195  -1.105  0.00  0.00    +0.025 C 
ATOM     21  C   UNL     1      -7.593  -2.944  -0.356  0.00  0.00    +0.025 C 
ATOM     22  C   UNL     1      -8.727  -3.555   0.504  0.00  0.00    +0.105 C 
ATOM     23  N   UNL     1      -9.336  -4.589  -0.353  0.00  0.00    -0.330 N 
ATOM     24  C   UNL     1      -8.339  -5.027  -1.346  0.00  0.00    +0.110 C 
BRANCH  23  25
ATOM     25  C   UNL     1     -10.641  -5.077  -0.239  0.00  0.00    +0.030 A 
ATOM     26  C   UNL     1     -11.094  -6.061  -1.109  0.00  0.00    +0.026 A 
ATOM     27  C   UNL     1     -12.383  -6.542  -0.994  0.00  0.00    +0.040 A 
ATOM     28  C   UNL     1     -13.225  -6.044  -0.014  0.00  0.00    +0.124 A 
ATOM     29  C   UNL     1     -12.775  -5.063   0.854  0.00  0.00    +0.040 A 
ATOM     30  C   UNL     1     -11.485  -4.583   0.747  0.00  0.00    +0.026 A 
ATOM     31  F   UNL     1     -14.486  -6.516   0.096  0.00  0.00    -0.205 F 
ENDBRANCH  23  25
ENDBRANCH  19  20
ENDBRANCH   4  19
TORSDOF 6
