REMARK  Name = ZINC22464266
REMARK  10 active torsions:
REMARK  status: ('A' for Active; 'I' for Inactive)
REMARK    1  A    between atoms: C_1  and  C_2
REMARK    2  A    between atoms: C_2  and  C_3
REMARK    3  A    between atoms: C_3  and  C_4
REMARK    4  A    between atoms: C_4  and  C_5
REMARK    5  A    between atoms: C_5  and  C_7
REMARK    6  A    between atoms: C_5  and  N_24
REMARK    7  A    between atoms: N_9  and  C_10
REMARK    8  A    between atoms: C_10  and  C_11
REMARK    9  A    between atoms: C_11  and  C_13
REMARK   10  A    between atoms: C_11  and  N_19
REMARK                            x       y       z     vdW  Elec       q    Type
REMARK                         _______ _______ _______ _____ _____    ______ ____
ROOT
ATOM      1  C   UNL     1      -1.286   1.760  -0.038  0.00  0.00    +0.158 C 
ENDROOT
BRANCH   1   2
ATOM      2  N   UNL     1      -0.015   1.036   0.037  0.00  0.00    -0.316 N 
ATOM      3  C   UNL     1       1.175   1.723  -0.049  0.00  0.00    +0.150 C 
ATOM      4  N   UNL     1       1.180   3.010  -0.190  0.00  0.00    -0.113 NA
ATOM      5  S   UNL     1       2.791   3.458  -0.253  0.00  0.00    +0.101 S 
ATOM      6  O   UNL     1       3.058   3.930  -1.567  0.00  0.00    -0.146 OA
ATOM      7  O   UNL     1       3.079   4.205   0.921  0.00  0.00    -0.146 OA
ATOM      8  C   UNL     1       3.555   1.868  -0.085  0.00  0.00    +0.123 A 
ATOM      9  C   UNL     1       2.457   1.004   0.026  0.00  0.00    +0.043 A 
ATOM     10  C   UNL     1       2.725  -0.366   0.168  0.00  0.00    +0.013 A 
ATOM     11  C   UNL     1       4.025  -0.819   0.206  0.00  0.00    +0.001 A 
ATOM     12  C   UNL     1       5.088   0.059   0.101  0.00  0.00    +0.002 A 
ATOM     13  C   UNL     1       4.842   1.417  -0.046  0.00  0.00    +0.030 A 
ATOM     14  H   UNL     1      -0.012  -0.057   0.162  0.00  0.00    +0.148 HD
ENDBRANCH   1   2
BRANCH   1  15
ATOM     15  C   UNL     1      -2.365   0.832  -0.536  0.00  0.00    +0.233 C 
ATOM     16  O   UNL     1      -2.098  -0.321  -0.802  0.00  0.00    -0.274 OA
ATOM     17  N   UNL     1      -3.626   1.284  -0.686  0.00  0.00    -0.315 N 
ATOM     18  H   UNL     1      -3.868   2.329  -0.445  0.00  0.00    +0.149 HD
BRANCH  17  19
ATOM     19  C   UNL     1      -4.674   0.382  -1.171  0.00  0.00    +0.093 C 
BRANCH  19  20
ATOM     20  C   UNL     1      -6.022   1.103  -1.139  0.00  0.00    -0.020 C 
BRANCH  20  21
ATOM     21  C   UNL     1      -6.005   2.245  -2.122  0.00  0.00    -0.059 A 
ATOM     22  C   UNL     1      -6.201   2.000  -3.469  0.00  0.00    +0.002 A 
ATOM     23  C   UNL     1      -6.189   3.048  -4.370  0.00  0.00    +0.000 A 
ATOM     24  C   UNL     1      -5.971   4.339  -3.927  0.00  0.00    +0.000 A 
ATOM     25  C   UNL     1      -5.771   4.583  -2.581  0.00  0.00    +0.000 A 
ATOM     26  C   UNL     1      -5.787   3.536  -1.679  0.00  0.00    +0.002 A 
ENDBRANCH  20  21
BRANCH  20  27
ATOM     27  N   UNL     1      -7.090   0.162  -1.500  0.00  0.00    +0.385 N 
ATOM     28  C   UNL     1      -7.120  -0.994  -0.567  0.00  0.00    -0.078 C 
ATOM     29  C   UNL     1      -8.550  -1.560  -0.749  0.00  0.00    -0.020 C 
ATOM     30  C   UNL     1      -9.407  -0.285  -0.927  0.00  0.00    -0.020 C 
ATOM     31  C   UNL     1      -8.420   0.801  -1.393  0.00  0.00    -0.078 C 
ATOM     32  H   UNL     1      -6.876  -0.151  -2.533  0.00  0.00    -0.081 HD
ENDBRANCH  20  27
ENDBRANCH  19  20
ENDBRANCH  17  19
ENDBRANCH   1  15
BRANCH   1  33
ATOM     33  C   UNL     1      -1.661   2.278   1.352  0.00  0.00    +0.032 C 
BRANCH  33  34
ATOM     34  C   UNL     1      -0.631   3.314   1.805  0.00  0.00    +0.002 C 
BRANCH  34  36
ATOM     35  C   UNL     1       0.024   4.869   3.648  0.00  0.00    +0.004 C 
ATOM     36  C   UNL     1      -1.006   3.833   3.195  0.00  0.00    -0.003 C 
ENDBRANCH  34  36
ENDBRANCH  33  34
ENDBRANCH   1  33
TORSDOF 9
