REMARK  Name = ZINC38684238
REMARK  17 active torsions:
REMARK  status: ('A' for Active; 'I' for Inactive)
REMARK    1  A    between atoms: C_1  and  C_2
REMARK    2  A    between atoms: C_2  and  C_3
REMARK    3  A    between atoms: C_3  and  O_4
REMARK    4  A    between atoms: O_4  and  C_5
REMARK    5  A    between atoms: C_9  and  C_11
REMARK    6  A    between atoms: C_11  and  O_13
REMARK    7  A    between atoms: O_13  and  C_14
REMARK    8  A    between atoms: C_21  and  N_40
REMARK    9  A    between atoms: C_22  and  C_38
REMARK   10  A    between atoms: C_23  and  C_25
REMARK   11  A    between atoms: C_28  and  O_33
REMARK   12  A    between atoms: C_29  and  O_31
REMARK   13  A    between atoms: O_31  and  C_32
REMARK   14  A    between atoms: O_33  and  C_34
REMARK   15  A    between atoms: C_34  and  C_35
REMARK   16  A    between atoms: C_35  and  C_36
REMARK   17  A    between atoms: C_35  and  C_37
REMARK                            x       y       z     vdW  Elec       q    Type
REMARK                         _______ _______ _______ _____ _____    ______ ____
ROOT
ATOM      1  C   UNL     1       2.836  -7.992   4.609  0.00  0.00    +0.135 A 
ATOM      2  C   UNL     1       2.316  -8.802   3.609  0.00  0.00    +0.047 A 
ATOM      3  C   UNL     1       2.378 -10.176   3.731  0.00  0.00    +0.012 A 
ATOM      4  C   UNL     1       2.957 -10.751   4.848  0.00  0.00    +0.008 A 
ATOM      5  C   UNL     1       3.478  -9.947   5.850  0.00  0.00    +0.138 A 
ATOM      6  C   UNL     1       3.422  -8.565   5.726  0.00  0.00    +0.093 A 
ATOM      7  O   UNL     1       4.050 -10.492   6.952  0.00  0.00    -0.441 OA
ATOM      8  C   UNL     1       3.788 -11.768   7.282  0.00  0.00    +0.199 C 
ATOM      9  C   UNL     1       3.295 -12.653   6.384  0.00  0.00    +0.098 C 
ATOM     10  C   UNL     1       3.014 -12.251   4.963  0.00  0.00    +0.098 C 
ENDROOT
BRANCH  10  11
ATOM     11  C   UNL     1       4.108 -12.778   4.070  0.00  0.00    -0.031 A 
ATOM     12  C   UNL     1       5.416 -12.379   4.272  0.00  0.00    +0.008 A 
ATOM     13  C   UNL     1       6.422 -12.860   3.455  0.00  0.00    +0.050 A 
ATOM     14  C   UNL     1       6.121 -13.744   2.432  0.00  0.00    +0.162 A 
ATOM     15  C   UNL     1       4.804 -14.146   2.228  0.00  0.00    +0.162 A 
ATOM     16  C   UNL     1       3.801 -13.664   3.054  0.00  0.00    +0.054 A 
BRANCH  15  17
ATOM     17  O   UNL     1       4.504 -15.014   1.225  0.00  0.00    -0.491 OA
ATOM     18  C   UNL     1       3.131 -15.382   1.076  0.00  0.00    +0.277 C 
ENDBRANCH  15  17
BRANCH  14  19
ATOM     19  O   UNL     1       7.110 -14.218   1.627  0.00  0.00    -0.488 OA
BRANCH  19  20
ATOM     20  C   UNL     1       8.438 -13.761   1.894  0.00  0.00    +0.232 C 
BRANCH  20  21
ATOM     21  C   UNL     1       9.406 -14.397   0.894  0.00  0.00    +0.020 C 
ATOM     22  C   UNL     1      10.806 -13.815   1.099  0.00  0.00    +0.010 C 
ATOM     23  C   UNL     1       9.446 -15.911   1.114  0.00  0.00    +0.010 C 
ENDBRANCH  20  21
ENDBRANCH  19  20
ENDBRANCH  14  19
ENDBRANCH  10  11
BRANCH   8  24
ATOM     24  N   UNL     1       4.029 -12.187   8.567  0.00  0.00    -0.328 N 
ATOM     25  H   UNL     1       4.382 -11.565   9.221  0.00  0.00    +0.145 HD
ATOM     26  H   UNL     1       3.845 -13.105   8.820  0.00  0.00    +0.145 HD
ENDBRANCH   8  24
BRANCH   9  27
ATOM     27  C   UNL     1       3.036 -14.000   6.796  0.00  0.00    +0.101 C 
ATOM     28  N   UNL     1       2.830 -15.069   7.123  0.00  0.00    -0.191 NA
ENDBRANCH   9  27
BRANCH   1  29
ATOM     29  O   UNL     1       2.776  -6.640   4.490  0.00  0.00    -0.422 OA
BRANCH  29  30
ATOM     30  C   UNL     1       1.598  -6.035   4.736  0.00  0.00    +0.345 C 
ATOM     31  O   UNL     1       0.609  -6.702   4.966  0.00  0.00    -0.245 OA
BRANCH  30  36
ATOM     32  C   UNL     1       0.212  -2.549   4.970  0.00  0.00    +0.121 A 
ATOM     33  C   UNL     1       1.347  -1.792   4.708  0.00  0.00    +0.046 A 
ATOM     34  C   UNL     1       2.555  -2.414   4.455  0.00  0.00    +0.004 A 
ATOM     35  C   UNL     1       2.643  -3.791   4.463  0.00  0.00    +0.015 A 
ATOM     36  C   UNL     1       1.508  -4.560   4.727  0.00  0.00    +0.063 A 
ATOM     37  C   UNL     1       0.290  -3.931   4.987  0.00  0.00    +0.060 A 
BRANCH  32  38
ATOM     38  O   UNL     1      -0.973  -1.932   5.218  0.00  0.00    -0.492 OA
BRANCH  38  39
ATOM     39  C   UNL     1      -0.980  -0.503   5.185  0.00  0.00    +0.229 C 
BRANCH  39  41
ATOM     40  C   UNL     1      -2.399   1.536   5.449  0.00  0.00    +0.007 C 
ATOM     41  C   UNL     1      -2.392   0.007   5.484  0.00  0.00    +0.038 C 
ENDBRANCH  39  41
ENDBRANCH  38  39
ENDBRANCH  32  38
ENDBRANCH  30  36
ENDBRANCH  29  30
ENDBRANCH   1  29
TORSDOF 13
