REMARK  Name = ZINC43385135
REMARK  7 active torsions:
REMARK  status: ('A' for Active; 'I' for Inactive)
REMARK    1  A    between atoms: C_1  and  C_2
REMARK    2  A    between atoms: C_2  and  C_3
REMARK    3  A    between atoms: C_3  and  C_5
REMARK    4  A    between atoms: C_3  and  N_19
REMARK    5  A    between atoms: C_5  and  C_7
REMARK    6  A    between atoms: C_5  and  O_11
REMARK    7  A    between atoms: O_11  and  C_12
REMARK                            x       y       z     vdW  Elec       q    Type
REMARK                         _______ _______ _______ _____ _____    ______ ____
ROOT
ATOM      1  C   UNL     1       0.907  -2.060   1.094  0.00  0.00    +0.263 C 
ENDROOT
BRANCH   1   2
ATOM      2  C   UNL     1       1.876  -2.613   2.141  0.00  0.00    +0.425 C 
ATOM      3  F   UNL     1       1.331  -2.440   3.418  0.00  0.00    -0.167 F 
ATOM      4  F   UNL     1       2.090  -3.975   1.906  0.00  0.00    -0.167 F 
ATOM      5  F   UNL     1       3.094  -1.929   2.058  0.00  0.00    -0.167 F 
ENDBRANCH   1   2
BRANCH   1   6
ATOM      6  C   UNL     1       0.784  -0.545   1.263  0.00  0.00    -0.025 C 
BRANCH   6   7
ATOM      7  N   UNL     1       0.161  -0.246   2.559  0.00  0.00    +0.383 N 
ATOM      8  H   UNL     1      -0.718  -0.736   2.631  0.00  0.00    -0.089 HD
ATOM      9  H   UNL     1       0.774  -0.543   3.304  0.00  0.00    -0.089 HD
ATOM     10  H   UNL     1      -0.002   0.747   2.633  0.00  0.00    -0.089 HD
ENDBRANCH   6   7
BRANCH   6  12
ATOM     11  C   UNL     1      -0.103   1.552   0.234  0.00  0.00    +0.002 C 
ATOM     12  C   UNL     1      -0.082   0.025   0.137  0.00  0.00    -0.016 C 
ENDBRANCH   6  12
ENDBRANCH   1   6
BRANCH   1  13
ATOM     13  O   UNL     1       1.401  -2.355  -0.214  0.00  0.00    -0.481 OA
BRANCH  13  14
ATOM     14  C   UNL     1       1.093  -3.574  -0.730  0.00  0.00    +0.134 A 
ATOM     15  C   UNL     1       0.247  -4.428  -0.038  0.00  0.00    +0.047 A 
ATOM     16  C   UNL     1      -0.065  -5.666  -0.564  0.00  0.00    +0.004 A 
ATOM     17  C   UNL     1       0.467  -6.056  -1.780  0.00  0.00    +0.001 A 
ATOM     18  C   UNL     1       1.311  -5.208  -2.472  0.00  0.00    +0.018 A 
ATOM     19  C   UNL     1       1.620  -3.965  -1.953  0.00  0.00    +0.055 A 
ATOM     20  I   UNL     1       2.892  -2.676  -3.006  0.00  0.00    -0.040 I 
ENDBRANCH  13  14
ENDBRANCH   1  13
TORSDOF 6
