REMARK  Name = ZINC08800220
REMARK  7 active torsions:
REMARK  status: ('A' for Active; 'I' for Inactive)
REMARK    1  A    between atoms: C_1  and  N_2
REMARK    2  A    between atoms: C_10  and  C_12
REMARK    3  A    between atoms: C_12  and  C_14
REMARK    4  A    between atoms: C_12  and  N_60
REMARK    5  A    between atoms: C_14  and  N_15
REMARK    6  A    between atoms: N_15  and  S_16
REMARK    7  A    between atoms: S_16  and  C_19
REMARK                            x       y       z     vdW  Elec       q    Type
REMARK                         _______ _______ _______ _____ _____    ______ ____
ROOT
ATOM      1  C   UNL     1      -5.278   1.135   4.149  0.00  0.00    -0.022 C 
ENDROOT
BRANCH   1  11
ATOM      2  C   UNL     1      -6.269   7.175   5.716  0.00  0.00    +0.129 C 
ATOM      3  N   UNL     1      -5.563   6.244   6.606  0.00  0.00    -0.333 N 
ATOM      4  C   UNL     1      -6.146   6.258   7.949  0.00  0.00    +0.105 C 
ATOM      5  C   UNL     1      -5.388   5.251   8.823  0.00  0.00    +0.024 C 
ATOM      6  C   UNL     1      -5.707   3.846   8.307  0.00  0.00    +0.038 C 
ATOM      7  C   UNL     1      -5.560   3.811   6.806  0.00  0.00    -0.026 A 
ATOM      8  C   UNL     1      -5.504   4.967   6.048  0.00  0.00    +0.033 A 
ATOM      9  C   UNL     1      -5.379   4.871   4.661  0.00  0.00    +0.023 A 
ATOM     10  C   UNL     1      -5.301   3.637   4.051  0.00  0.00    +0.004 A 
ATOM     11  C   UNL     1      -5.359   2.485   4.814  0.00  0.00    -0.059 A 
ATOM     12  C   UNL     1      -5.487   2.574   6.186  0.00  0.00    +0.007 A 
ENDBRANCH   1  11
BRANCH   1  18
ATOM     13  C   UNL     1      -6.708   1.916   2.359  0.00  0.00    -0.078 C 
ATOM     14  C   UNL     1      -7.918   1.549   1.496  0.00  0.00    -0.019 C 
ATOM     15  C   UNL     1      -9.160   1.445   2.384  0.00  0.00    -0.004 C 
ATOM     16  C   UNL     1      -8.910   0.403   3.478  0.00  0.00    -0.019 C 
ATOM     17  C   UNL     1      -7.672   0.803   4.284  0.00  0.00    -0.078 C 
ATOM     18  N   UNL     1      -6.507   0.862   3.375  0.00  0.00    +0.385 N 
ATOM     19  H   UNL     1      -6.408  -0.043   2.901  0.00  0.00    -0.081 HD
ENDBRANCH   1  18
BRANCH   1  20
ATOM     20  C   UNL     1      -4.079   1.106   3.199  0.00  0.00    +0.095 C 
BRANCH  20  21
ATOM     21  N   UNL     1      -4.069  -0.162   2.465  0.00  0.00    -0.191 NA
ATOM     22  H   UNL     1      -4.616  -0.902   2.768  0.00  0.00    +0.148 HD
BRANCH  21  23
ATOM     23  S   UNL     1      -3.123  -0.329   1.116  0.00  0.00    +0.058 S 
ATOM     24  O   UNL     1      -3.376   0.804   0.298  0.00  0.00    -0.153 OA
ATOM     25  O   UNL     1      -3.308  -1.660   0.653  0.00  0.00    -0.153 OA
BRANCH  23  26
ATOM     26  C   UNL     1      -1.444  -0.208   1.639  0.00  0.00    +0.108 A 
ATOM     27  C   UNL     1      -0.753  -1.345   2.014  0.00  0.00    +0.029 A 
ATOM     28  C   UNL     1       0.565  -1.252   2.419  0.00  0.00    +0.005 A 
ATOM     29  C   UNL     1       1.193  -0.021   2.454  0.00  0.00    +0.038 A 
ATOM     30  C   UNL     1       0.500   1.119   2.083  0.00  0.00    +0.125 A 
ATOM     31  C   UNL     1      -0.821   1.025   1.678  0.00  0.00    +0.066 A 
ATOM     32  F   UNL     1       1.112   2.323   2.116  0.00  0.00    -0.205 F 
ENDBRANCH  23  26
ENDBRANCH  21  23
ENDBRANCH  20  21
ENDBRANCH   1  20
TORSDOF 6
