REMARK  Name = ZINC21161989
REMARK  5 active torsions:
REMARK  status: ('A' for Active; 'I' for Inactive)
REMARK    1  A    between atoms: C_1  and  C_2
REMARK    2  A    between atoms: C_8  and  N_10
REMARK    3  A    between atoms: C_11  and  C_13
REMARK    4  A    between atoms: N_27  and  C_28
REMARK    5  A    between atoms: C_28  and  C_29
REMARK                            x       y       z     vdW  Elec       q    Type
REMARK                         _______ _______ _______ _____ _____    ______ ____
ROOT
ATOM      1  C   UNL     1       1.643   1.480  -4.316  0.00  0.00    +0.078 C 
ATOM      2  C   UNL     1       1.978  -0.011  -4.224  0.00  0.00    +0.032 C 
ATOM      3  C   UNL     1       2.806  -0.419  -5.445  0.00  0.00    +0.108 C 
ATOM      4  N   UNL     1       4.039   0.377  -5.492  0.00  0.00    -0.302 N 
ATOM      5  C   UNL     1       3.742   1.809  -5.628  0.00  0.00    +0.108 C 
ATOM      6  C   UNL     1       2.943   2.284  -4.412  0.00  0.00    +0.032 C 
ATOM      7  C   UNL     1       4.868  -0.054  -6.506  0.00  0.00    +0.177 A 
ATOM      8  N   UNL     1       5.052   0.569  -7.643  0.00  0.00    -0.327 N 
ATOM      9  C   UNL     1       5.931  -0.130  -8.409  0.00  0.00    +0.065 A 
ATOM     10  C   UNL     1       6.471   0.076  -9.681  0.00  0.00    +0.028 A 
ATOM     11  C   UNL     1       7.358  -0.838 -10.203  0.00  0.00    +0.002 A 
ATOM     12  C   UNL     1       7.721  -1.962  -9.476  0.00  0.00    +0.002 A 
ATOM     13  C   UNL     1       7.197  -2.180  -8.219  0.00  0.00    +0.028 A 
ATOM     14  C   UNL     1       6.302  -1.270  -7.677  0.00  0.00    +0.068 A 
ATOM     15  N   UNL     1       5.614  -1.197  -6.476  0.00  0.00    -0.309 N 
ATOM     16  H   UNL     1       4.522   1.511  -7.846  0.00  0.00    +0.169 HD
ENDROOT
BRANCH   1  18
ATOM     17  N   UNL     1      -0.301   1.323  -2.795  0.00  0.00    -0.312 N 
ATOM     18  C   UNL     1       0.881   1.901  -3.086  0.00  0.00    +0.216 C 
ATOM     19  O   UNL     1       1.331   2.761  -2.358  0.00  0.00    -0.276 OA
ATOM     20  H   UNL     1      -0.709   0.543  -3.454  0.00  0.00    +0.149 HD
BRANCH  17  27
ATOM     21  C   UNL     1      -3.046   2.223  -3.010  0.00  0.00    +0.009 C 
ATOM     22  C   UNL     1      -2.531   1.442  -1.798  0.00  0.00    +0.006 C 
ATOM     23  C   UNL     1      -3.306   1.870  -0.550  0.00  0.00    +0.005 C 
ATOM     24  C   UNL     1      -2.791   1.089   0.661  0.00  0.00    +0.000 C 
ATOM     25  C   UNL     1      -1.302   1.379   0.861  0.00  0.00    +0.002 C 
ATOM     26  C   UNL     1      -0.528   0.952  -0.388  0.00  0.00    +0.022 C 
ATOM     27  C   UNL     1      -1.042   1.732  -1.599  0.00  0.00    +0.076 C 
ENDBRANCH  17  27
ENDBRANCH   1  18
BRANCH  15  28
ATOM     28  C   UNL     1       5.676  -2.166  -5.380  0.00  0.00    +0.160 C 
BRANCH  28  29
ATOM     29  C   UNL     1       6.730  -1.740  -4.391  0.00  0.00    -0.027 A 
ATOM     30  C   UNL     1       8.051  -2.092  -4.594  0.00  0.00    +0.008 A 
ATOM     31  C   UNL     1       9.019  -1.697  -3.691  0.00  0.00    +0.038 A 
ATOM     32  C   UNL     1       8.664  -0.957  -2.575  0.00  0.00    +0.123 A 
ATOM     33  C   UNL     1       7.339  -0.610  -2.370  0.00  0.00    +0.038 A 
ATOM     34  C   UNL     1       6.374  -1.001  -3.277  0.00  0.00    +0.008 A 
ATOM     35  F   UNL     1       9.609  -0.575  -1.689  0.00  0.00    -0.205 F 
ENDBRANCH  28  29
ENDBRANCH  15  28
TORSDOF 4
