REMARK  Name = ZINC13206522
REMARK  10 active torsions:
REMARK  status: ('A' for Active; 'I' for Inactive)
REMARK    1  A    between atoms: C_1  and  C_2
REMARK    2  A    between atoms: C_2  and  C_4
REMARK    3  A    between atoms: C_2  and  S_17
REMARK    4  A    between atoms: N_6  and  C_7
REMARK    5  A    between atoms: C_9  and  N_14
REMARK    6  A    between atoms: S_17  and  C_18
REMARK    7  A    between atoms: C_21  and  C_27
REMARK    8  A    between atoms: N_22  and  C_23
REMARK    9  A    between atoms: C_23  and  C_24
REMARK   10  A    between atoms: C_24  and  C_25
REMARK                            x       y       z     vdW  Elec       q    Type
REMARK                         _______ _______ _______ _____ _____    ______ ____
ROOT
ATOM      1  S   UNL     1      -3.733   2.133   0.701  0.00  0.00    -0.074 S 
ENDROOT
BRANCH   1   2
ATOM      2  C   UNL     1      -5.103   1.040   0.883  0.00  0.00    +0.193 A 
ATOM      3  N   UNL     1      -5.105  -0.253   0.646  0.00  0.00    -0.122 NA
ATOM      4  N   UNL     1      -6.269  -0.743   0.882  0.00  0.00    -0.128 NA
ATOM      5  C   UNL     1      -7.082   0.206   1.284  0.00  0.00    +0.165 A 
ATOM      6  N   UNL     1      -6.358   1.377   1.302  0.00  0.00    -0.302 N 
BRANCH   5   7
ATOM      7  C   UNL     1      -8.505   0.048   1.654  0.00  0.00    +0.019 A 
ATOM      8  C   UNL     1      -9.004  -1.212   1.990  0.00  0.00    +0.014 A 
ATOM      9  C   UNL     1     -10.331  -1.354   2.339  0.00  0.00    +0.039 A 
ATOM     10  C   UNL     1     -11.170  -0.251   2.346  0.00  0.00    +0.123 A 
ATOM     11  C   UNL     1     -10.680   1.001   2.008  0.00  0.00    +0.039 A 
ATOM     12  C   UNL     1      -9.354   1.155   1.663  0.00  0.00    +0.014 A 
ATOM     13  F   UNL     1     -12.470  -0.396   2.683  0.00  0.00    -0.205 F 
ENDBRANCH   5   7
BRANCH   6  14
ATOM     14  C   UNL     1      -6.835   2.707   1.688  0.00  0.00    +0.137 C 
BRANCH  14  15
ATOM     15  C   UNL     1      -7.275   3.473   0.439  0.00  0.00    +0.147 C 
BRANCH  15  16
ATOM     16  C   UNL     1      -7.766   4.841   0.835  0.00  0.00    +0.358 C 
ATOM     17  O   UNL     1      -7.765   5.170   1.998  0.00  0.00    -0.246 OA
ATOM     18  O   UNL     1      -8.205   5.695  -0.103  0.00  0.00    -0.246 OA
ENDBRANCH  15  16
ENDBRANCH  14  15
ENDBRANCH   6  14
ENDBRANCH   1   2
BRANCH   1  20
ATOM     19  C   UNL     1      -2.870   0.411  -1.237  0.00  0.00    +0.029 C 
ATOM     20  C   UNL     1      -2.472   0.965   0.133  0.00  0.00    +0.137 C 
BRANCH  20  21
ATOM     21  C   UNL     1      -1.146   1.673   0.022  0.00  0.00    +0.230 C 
ATOM     22  O   UNL     1      -1.109   2.882  -0.060  0.00  0.00    -0.274 OA
ATOM     23  N   UNL     1      -0.001   0.961   0.015  0.00  0.00    -0.283 N 
ATOM     24  H   UNL     1      -0.033  -0.008  -0.003  0.00  0.00    +0.155 HD
BRANCH  23  25
ATOM     25  C   UNL     1       1.233   1.621   0.027  0.00  0.00    +0.054 A 
ATOM     26  C   UNL     1       1.331   2.904   0.549  0.00  0.00    +0.057 A 
ATOM     27  C   UNL     1       2.550   3.553   0.559  0.00  0.00    +0.128 A 
ATOM     28  C   UNL     1       3.674   2.926   0.051  0.00  0.00    +0.034 A 
ATOM     29  C   UNL     1       3.580   1.649  -0.470  0.00  0.00    +0.024 A 
ATOM     30  C   UNL     1       2.364   0.992  -0.478  0.00  0.00    +0.062 A 
ATOM     31 CL   UNL     1       2.249  -0.615  -1.126  0.00  0.00    -0.082 Cl
BRANCH  27  32
ATOM     32  N   UNL     1       2.655   4.920   1.116  0.00  0.00    +0.056 N 
ATOM     33  O   UNL     1       1.667   5.473   1.564  0.00  0.00    -0.126 OA
ATOM     34  O   UNL     1       3.730   5.493   1.125  0.00  0.00    -0.126 OA
ENDBRANCH  27  32
ENDBRANCH  23  25
ENDBRANCH  20  21
ENDBRANCH   1  20
TORSDOF 9
