REMARK  Name = ZINC19221105
REMARK  9 active torsions:
REMARK  status: ('A' for Active; 'I' for Inactive)
REMARK    1  A    between atoms: C_1  and  C_2
REMARK    2  A    between atoms: C_9  and  C_14
REMARK    3  A    between atoms: C_14  and  N_15
REMARK    4  A    between atoms: N_15  and  C_16
REMARK    5  A    between atoms: N_15  and  C_22
REMARK    6  A    between atoms: C_16  and  C_17
REMARK    7  A    between atoms: C_22  and  C_23
REMARK    8  A    between atoms: N_27  and  C_28
REMARK    9  A    between atoms: C_28  and  C_29
REMARK                            x       y       z     vdW  Elec       q    Type
REMARK                         _______ _______ _______ _____ _____    ______ ____
ROOT
ATOM      1  N   UNL     1      -1.331  -5.392   3.858  0.00  0.00    +0.390 N 
ATOM      2  H   UNL     1      -1.743  -5.928   3.109  0.00  0.00    -0.080 HD
ENDROOT
BRANCH   1   3
ATOM      3  C   UNL     1       0.053  -5.044   3.507  0.00  0.00    -0.036 C 
BRANCH   3  12
ATOM      4  C   UNL     1       2.606 -10.017  -1.430  0.00  0.00    +0.044 C 
ATOM      5  C   UNL     1       2.472  -9.521  -0.013  0.00  0.00    -0.050 A 
ATOM      6  C   UNL     1       3.063 -10.231   1.023  0.00  0.00    +0.005 A 
ATOM      7  C   UNL     1       2.954  -9.797   2.326  0.00  0.00    +0.026 A 
ATOM      8  C   UNL     1       2.243  -8.634   2.609  0.00  0.00    +0.049 A 
ATOM      9  C   UNL     1       1.645  -7.917   1.556  0.00  0.00    -0.001 A 
ATOM     10  C   UNL     1       1.774  -8.374   0.240  0.00  0.00    +0.013 A 
ATOM     11  C   UNL     1       0.900  -6.695   1.863  0.00  0.00    +0.017 A 
ATOM     12  C   UNL     1       0.813  -6.297   3.156  0.00  0.00    +0.001 A 
ATOM     13  C   UNL     1       1.431  -7.053   4.175  0.00  0.00    +0.251 A 
ATOM     14  O   UNL     1       1.341  -6.678   5.332  0.00  0.00    -0.268 OA
ATOM     15  N   UNL     1       2.118  -8.176   3.903  0.00  0.00    -0.322 N 
ATOM     16  H   UNL     1       2.530  -8.672   4.628  0.00  0.00    +0.169 HD
ENDBRANCH   3  12
ENDBRANCH   1   3
BRANCH   1  17
ATOM     17  C   UNL     1      -2.107  -4.163   4.067  0.00  0.00    -0.035 C 
BRANCH  17  18
ATOM     18  C   UNL     1      -2.218  -3.412   2.765  0.00  0.00    -0.027 A 
ATOM     19  C   UNL     1      -3.109  -3.578   1.757  0.00  0.00    +0.009 A 
ATOM     20  C   UNL     1      -3.021  -2.764   0.643  0.00  0.00    +0.008 A 
ATOM     21  C   UNL     1      -2.045  -1.824   0.592  0.00  0.00    +0.045 A 
ATOM     22  S   UNL     1      -1.214  -2.068   2.153  0.00  0.00    -0.103 S 
ENDBRANCH  17  18
ENDBRANCH   1  17
BRANCH   1  23
ATOM     23  C   UNL     1      -1.337  -6.190   5.092  0.00  0.00    +0.001 C 
BRANCH  23  24
ATOM     24  C   UNL     1      -2.741  -6.651   5.385  0.00  0.00    +0.135 A 
ATOM     25  N   UNL     1      -3.640  -6.015   6.096  0.00  0.00    -0.115 NA
ATOM     26  N   UNL     1      -4.712  -6.731   6.115  0.00  0.00    -0.023 NA
ATOM     27  N   UNL     1      -4.519  -7.806   5.434  0.00  0.00    -0.044 NA
ATOM     28  N   UNL     1      -3.317  -7.791   4.964  0.00  0.00    -0.227 N 
BRANCH  28  29
ATOM     29  C   UNL     1      -2.696  -8.824   4.130  0.00  0.00    +0.182 C 
BRANCH  29  30
ATOM     30  C   UNL     1      -2.022  -9.843   5.012  0.00  0.00    -0.026 A 
ATOM     31  C   UNL     1      -0.702  -9.668   5.385  0.00  0.00    +0.005 A 
ATOM     32  C   UNL     1      -0.083 -10.603   6.194  0.00  0.00    +0.000 A 
ATOM     33  C   UNL     1      -0.784 -11.711   6.631  0.00  0.00    +0.000 A 
ATOM     34  C   UNL     1      -2.104 -11.885   6.259  0.00  0.00    +0.000 A 
ATOM     35  C   UNL     1      -2.724 -10.948   5.453  0.00  0.00    +0.005 A 
ENDBRANCH  29  30
ENDBRANCH  28  29
ENDBRANCH  23  24
ENDBRANCH   1  23
TORSDOF 8
