REMARK  Name = ZINC61742259
REMARK  5 active torsions:
REMARK  status: ('A' for Active; 'I' for Inactive)
REMARK    1  A    between atoms: C_6  and  C_7
REMARK    2  A    between atoms: C_15  and  S_17
REMARK    3  A    between atoms: S_17  and  C_18
REMARK    4  A    between atoms: C_18  and  C_19
REMARK    5  A    between atoms: C_19  and  C_20
REMARK                            x       y       z     vdW  Elec       q    Type
REMARK                         _______ _______ _______ _____ _____    ______ ____
ROOT
ATOM      1  C   UNL     1      -1.270  -0.765   0.011  0.00  0.00    +0.004 A 
ATOM      2  C   UNL     1      -2.240  -0.477   0.911  0.00  0.00    +0.056 A 
ATOM      3  S   UNL     1      -3.528  -1.645   0.510  0.00  0.00    -0.078 S 
ATOM      4  C   UNL     1      -2.737  -2.477  -0.840  0.00  0.00    +0.093 A 
ATOM      5  C   UNL     1      -1.504  -1.834  -0.954  0.00  0.00    +0.080 A 
ATOM      6  C   UNL     1      -0.623  -2.339  -2.032  0.00  0.00    +0.283 A 
ATOM      7  O   UNL     1       0.480  -1.844  -2.210  0.00  0.00    -0.265 OA
ATOM      8  N   UNL     1      -1.045  -3.341  -2.808  0.00  0.00    -0.185 NA
ATOM      9  C   UNL     1      -2.224  -3.904  -2.652  0.00  0.00    +0.171 A 
ATOM     10  N   UNL     1      -3.082  -3.497  -1.674  0.00  0.00    -0.328 N 
ATOM     11  H   UNL     1      -3.946  -3.927  -1.579  0.00  0.00    +0.168 HD
ENDROOT
BRANCH   1  17
ATOM     12  C   UNL     1      -0.017   1.390   0.010  0.00  0.00    +0.011 A 
ATOM     13  C   UNL     1       1.170   2.094   0.002  0.00  0.00    +0.039 A 
ATOM     14  C   UNL     1       2.379   1.417  -0.013  0.00  0.00    +0.123 A 
ATOM     15  C   UNL     1       2.403   0.032  -0.021  0.00  0.00    +0.039 A 
ATOM     16  C   UNL     1       1.221  -0.680  -0.014  0.00  0.00    +0.011 A 
ATOM     17  C   UNL     1       0.002  -0.004   0.002  0.00  0.00    -0.016 A 
ATOM     18  F   UNL     1       3.538   2.111  -0.022  0.00  0.00    -0.205 F 
ENDBRANCH   1  17
BRANCH   9  19
ATOM     19  S   UNL     1      -2.700  -5.221  -3.721  0.00  0.00    -0.087 S 
BRANCH  19  20
ATOM     20  C   UNL     1      -1.276  -5.425  -4.827  0.00  0.00    +0.086 C 
BRANCH  20  21
ATOM     21  C   UNL     1      -1.558  -6.553  -5.821  0.00  0.00    +0.106 C 
BRANCH  21  22
ATOM     22  C   UNL     1      -0.375  -6.721  -6.739  0.00  0.00    +0.211 C 
ATOM     23  O   UNL     1       0.598  -6.009  -6.611  0.00  0.00    -0.276 OA
ATOM     24  N   UNL     1      -0.399  -7.663  -7.703  0.00  0.00    -0.329 N 
ATOM     25  H   UNL     1      -1.178  -8.233  -7.805  0.00  0.00    +0.145 HD
ATOM     26  H   UNL     1       0.362  -7.772  -8.294  0.00  0.00    +0.145 HD
ENDBRANCH  21  22
ENDBRANCH  20  21
ENDBRANCH  19  20
ENDBRANCH   9  19
TORSDOF 5
