REMARK  Name = ZINC13816990
REMARK  10 active torsions:
REMARK  status: ('A' for Active; 'I' for Inactive)
REMARK    1  A    between atoms: C_1  and  C_2
REMARK    2  A    between atoms: C_7  and  N_8
REMARK    3  A    between atoms: C_9  and  C_11
REMARK    4  A    between atoms: C_12  and  C_36
REMARK    5  A    between atoms: N_17  and  C_22
REMARK    6  A    between atoms: N_20  and  C_21
REMARK    7  A    between atoms: C_24  and  C_26
REMARK    8  A    between atoms: C_29  and  C_32
REMARK    9  A    between atoms: C_32  and  O_34
REMARK   10  A    between atoms: O_34  and  C_35
REMARK                            x       y       z     vdW  Elec       q    Type
REMARK                         _______ _______ _______ _____ _____    ______ ____
ROOT
ATOM      1  C   UNL     1      -0.138   0.002   4.794  0.00  0.00    +0.048 C 
ATOM      2  C   UNL     1      -0.137  -0.659   5.991  0.00  0.00    +0.049 C 
ATOM      3  N   UNL     1      -0.254  -0.042   7.154  0.00  0.00    -0.236 NA
ATOM      4  C   UNL     1      -0.384   1.266   7.313  0.00  0.00    +0.138 C 
ATOM      5  C   UNL     1      -0.408   2.128   6.204  0.00  0.00    +0.067 C 
ATOM      6  C   UNL     1      -0.544   3.467   6.381  0.00  0.00    +0.254 C 
ATOM      7  N   UNL     1      -0.656   3.969   7.654  0.00  0.00    -0.225 N 
ATOM      8  C   UNL     1      -0.634   3.147   8.719  0.00  0.00    +0.316 C 
ATOM      9  O   UNL     1      -0.736   3.616   9.835  0.00  0.00    -0.252 OA
ATOM     10  N   UNL     1      -0.500   1.815   8.574  0.00  0.00    -0.242 N 
ATOM     11  C   UNL     1      -0.479   0.948   9.755  0.00  0.00    +0.141 C 
ATOM     12  C   UNL     1      -0.803   5.412   7.855  0.00  0.00    +0.143 C 
ATOM     13  O   UNL     1      -0.567   4.297   5.316  0.00  0.00    -0.270 OA
ATOM     14  C   UNL     1      -0.274   1.515   4.827  0.00  0.00    +0.094 C 
ATOM     15  C   UNL     1       0.004  -2.159   5.984  0.00  0.00    +0.066 C 
ENDROOT
BRANCH  14  16
ATOM     16  C   UNL     1       0.934   2.113   4.154  0.00  0.00    -0.035 A 
ATOM     17  C   UNL     1       2.199   1.856   4.654  0.00  0.00    +0.005 A 
ATOM     18  C   UNL     1       3.309   2.401   4.043  0.00  0.00    +0.015 A 
ATOM     19  C   UNL     1       3.155   3.212   2.917  0.00  0.00    +0.059 A 
ATOM     20  C   UNL     1       1.876   3.468   2.418  0.00  0.00    +0.015 A 
ATOM     21  C   UNL     1       0.774   2.913   3.036  0.00  0.00    +0.005 A 
BRANCH  19  22
ATOM     22  C   UNL     1       4.339   3.799   2.257  0.00  0.00    +0.339 C 
ATOM     23  O   UNL     1       5.450   3.576   2.694  0.00  0.00    -0.245 OA
BRANCH  22  24
ATOM     24  O   UNL     1       4.187   4.582   1.172  0.00  0.00    -0.464 OA
ATOM     25  C   UNL     1       5.375   5.116   0.585  0.00  0.00    +0.280 C 
ENDBRANCH  22  24
ENDBRANCH  19  22
ENDBRANCH  14  16
BRANCH   1  27
ATOM     26  N   UNL     1      -0.162  -0.037   2.411  0.00  0.00    -0.281 N 
ATOM     27  C   UNL     1      -0.011  -0.691   3.579  0.00  0.00    +0.247 C 
ATOM     28  O   UNL     1       0.234  -1.885   3.582  0.00  0.00    -0.270 OA
ATOM     29  H   UNL     1      -0.327   0.919   2.408  0.00  0.00    +0.155 HD
BRANCH  26  36
ATOM     30  C   UNL     1      -1.793   0.830   0.246  0.00  0.00    +0.045 C 
ATOM     31  C   UNL     1      -0.860  -0.346   0.120  0.00  0.00    -0.029 A 
ATOM     32  C   UNL     1      -0.773  -1.035  -1.074  0.00  0.00    +0.005 A 
ATOM     33  C   UNL     1       0.083  -2.115  -1.190  0.00  0.00    +0.000 A 
ATOM     34  C   UNL     1       0.855  -2.509  -0.113  0.00  0.00    +0.002 A 
ATOM     35  C   UNL     1       0.773  -1.825   1.084  0.00  0.00    +0.023 A 
ATOM     36  C   UNL     1      -0.081  -0.736   1.203  0.00  0.00    +0.037 A 
ENDBRANCH  26  36
ENDBRANCH   1  27
TORSDOF 5
