REMARK  Name = ZINC46661245
REMARK  3 active torsions:
REMARK  status: ('A' for Active; 'I' for Inactive)
REMARK    1  A    between atoms: C_1  and  C_2
REMARK    2  A    between atoms: C_12  and  C_14
REMARK    3  A    between atoms: C_17  and  C_20
REMARK                            x       y       z     vdW  Elec       q    Type
REMARK                         _______ _______ _______ _____ _____    ______ ____
ROOT
ATOM      1  C   UNL     1      -0.018   1.503   0.010  0.00  0.00    +0.044 C 
ATOM      2  C   UNL     1       0.002  -0.004   0.002  0.00  0.00    -0.049 A 
ATOM      3  C   UNL     1       0.006  -0.698  -1.199  0.00  0.00    +0.005 A 
ATOM      4  C   UNL     1       0.024  -2.068  -1.235  0.00  0.00    +0.029 A 
ATOM      5  C   UNL     1       0.040  -2.822  -0.038  0.00  0.00    +0.080 A 
ATOM      6  C   UNL     1       0.036  -2.081   1.166  0.00  0.00    +0.041 A 
ATOM      7  C   UNL     1       0.023  -0.709   1.191  0.00  0.00    +0.020 A 
ATOM      8  S   UNL     1       0.059  -3.361   2.397  0.00  0.00    -0.052 S 
ATOM      9  C   UNL     1       0.073  -4.752   1.275  0.00  0.00    +0.166 A 
ATOM     10  N   UNL     1       0.059  -4.165   0.101  0.00  0.00    -0.225 NA
ATOM     11  N   UNL     1       0.093  -6.106   1.569  0.00  0.00    -0.262 N 
ATOM     12  C   UNL     1       0.101  -7.012   0.571  0.00  0.00    +0.262 C 
ATOM     13  O   UNL     1       0.090  -6.643  -0.584  0.00  0.00    -0.271 OA
ATOM     14  H   UNL     1       0.101  -6.402   2.493  0.00  0.00    +0.157 HD
ENDROOT
BRANCH  12  15
ATOM     15  C   UNL     1       0.122  -8.485   0.891  0.00  0.00    +0.295 C 
ATOM     16  C   UNL     1       1.472  -8.893   1.529  0.00  0.00    +0.116 C 
ATOM     17  C   UNL     1       1.721 -10.262   0.924  0.00  0.00    +0.091 C 
ATOM     18  N   UNL     1       0.934 -10.406  -0.089  0.00  0.00    -0.088 NA
ATOM     19  O   UNL     1       0.116  -9.275  -0.315  0.00  0.00    -0.380 OA
BRANCH  17  20
ATOM     20  C   UNL     1       2.697 -11.258   1.411  0.00  0.00    +0.002 A 
ATOM     21  C   UNL     1       3.488 -10.977   2.527  0.00  0.00    +0.010 A 
ATOM     22  C   UNL     1       4.398 -11.911   2.977  0.00  0.00    +0.003 A 
ATOM     23  C   UNL     1       4.529 -13.124   2.326  0.00  0.00    +0.038 A 
ATOM     24  C   UNL     1       3.748 -13.410   1.217  0.00  0.00    +0.124 A 
ATOM     25  C   UNL     1       2.828 -12.485   0.760  0.00  0.00    +0.048 A 
ATOM     26  F   UNL     1       3.883 -14.597   0.585  0.00  0.00    -0.205 F 
ENDBRANCH  17  20
ENDBRANCH  12  15
TORSDOF 2
