REMARK  Name = ZINC09124843
REMARK  6 active torsions:
REMARK  status: ('A' for Active; 'I' for Inactive)
REMARK    1  A    between atoms: C_1  and  C_2
REMARK    2  A    between atoms: C_8  and  N_10
REMARK    3  A    between atoms: C_14  and  C_16
REMARK    4  A    between atoms: C_16  and  N_17
REMARK    5  A    between atoms: C_20  and  C_24
REMARK    6  A    between atoms: C_20  and  C_30
REMARK                            x       y       z     vdW  Elec       q    Type
REMARK                         _______ _______ _______ _____ _____    ______ ____
ROOT
ATOM      1  N   UNL     1       2.287  -6.087   5.059  0.00  0.00    -0.215 N 
ATOM      2  C   UNL     1       2.929  -6.422   6.195  0.00  0.00    +0.256 C 
ATOM      3  O   UNL     1       4.006  -6.013   6.575  0.00  0.00    -0.272 OA
ATOM      4  C   UNL     1       2.026  -7.414   6.900  0.00  0.00    +0.164 C 
ATOM      5  N   UNL     1       0.874  -7.540   5.990  0.00  0.00    -0.278 N 
ATOM      6  C   UNL     1       1.118  -6.728   4.945  0.00  0.00    +0.310 C 
ATOM      7  O   UNL     1       0.362  -6.593   4.003  0.00  0.00    -0.252 OA
ATOM      8  H   UNL     1       0.092  -8.100   6.119  0.00  0.00    +0.152 HD
ENDROOT
BRANCH   4   9
ATOM      9  C   UNL     1       1.587  -6.880   8.239  0.00  0.00    -0.011 A 
ATOM     10  C   UNL     1       0.250  -6.906   8.589  0.00  0.00    +0.006 A 
ATOM     11  C   UNL     1      -0.151  -6.420   9.820  0.00  0.00    +0.000 A 
ATOM     12  C   UNL     1       0.783  -5.899  10.695  0.00  0.00    +0.000 A 
ATOM     13  C   UNL     1       2.119  -5.868  10.343  0.00  0.00    +0.000 A 
ATOM     14  C   UNL     1       2.521  -6.358   9.114  0.00  0.00    +0.006 A 
ENDBRANCH   4   9
BRANCH   4  15
ATOM     15  C   UNL     1       2.721  -8.741   7.062  0.00  0.00    -0.011 A 
ATOM     16  C   UNL     1       3.968  -8.800   7.656  0.00  0.00    +0.006 A 
ATOM     17  C   UNL     1       4.604 -10.017   7.809  0.00  0.00    +0.000 A 
ATOM     18  C   UNL     1       3.998 -11.175   7.359  0.00  0.00    +0.000 A 
ATOM     19  C   UNL     1       2.753 -11.116   6.760  0.00  0.00    +0.000 A 
ATOM     20  C   UNL     1       2.115  -9.899   6.611  0.00  0.00    +0.006 A 
ENDBRANCH   4  15
BRANCH   1  21
ATOM     21  C   UNL     1       2.806  -5.142   4.067  0.00  0.00    +0.214 C 
BRANCH  21  26
ATOM     22  N   UNL     1       2.625  -0.427   3.144  0.00  0.00    -0.296 N 
ATOM     23  C   UNL     1       2.268  -1.467   3.924  0.00  0.00    +0.306 C 
ATOM     24  O   UNL     1       1.565  -1.283   4.898  0.00  0.00    -0.252 OA
ATOM     25  N   UNL     1       2.691  -2.711   3.623  0.00  0.00    -0.239 N 
ATOM     26  C   UNL     1       2.334  -3.751   4.403  0.00  0.00    +0.238 C 
ATOM     27  O   UNL     1       1.632  -3.567   5.375  0.00  0.00    -0.274 OA
ATOM     28  H   UNL     1       3.187  -0.574   2.367  0.00  0.00    +0.151 HD
ATOM     29  H   UNL     1       3.252  -2.858   2.846  0.00  0.00    +0.159 HD
BRANCH  22  36
ATOM     30  C   UNL     1       1.196   1.149   1.179  0.00  0.00    +0.009 C 
ATOM     31  C   UNL     1       2.146   1.777   2.200  0.00  0.00    +0.006 C 
ATOM     32  C   UNL     1       1.666   3.190   2.541  0.00  0.00    +0.005 C 
ATOM     33  C   UNL     1       2.616   3.818   3.563  0.00  0.00    +0.000 C 
ATOM     34  C   UNL     1       2.636   2.966   4.833  0.00  0.00    +0.002 C 
ATOM     35  C   UNL     1       3.116   1.554   4.492  0.00  0.00    +0.022 C 
ATOM     36  C   UNL     1       2.166   0.925   3.471  0.00  0.00    +0.077 C 
ENDBRANCH  22  36
ENDBRANCH  21  26
ENDBRANCH   1  21
TORSDOF 5
