REMARK  Name = ZINC23368575
REMARK  7 active torsions:
REMARK  status: ('A' for Active; 'I' for Inactive)
REMARK    1  A    between atoms: C_1  and  C_2
REMARK    2  A    between atoms: N_9  and  C_10
REMARK    3  A    between atoms: C_10  and  C_11
REMARK    4  A    between atoms: C_16  and  C_17
REMARK    5  A    between atoms: C_23  and  C_25
REMARK    6  A    between atoms: C_25  and  C_26
REMARK    7  A    between atoms: C_26  and  C_27
REMARK                            x       y       z     vdW  Elec       q    Type
REMARK                         _______ _______ _______ _____ _____    ______ ____
ROOT
ATOM      1  C   UNL     1      -1.242   1.829   0.423  0.00  0.00    -0.053 A 
ATOM      2  C   UNL     1      -0.070   1.158   0.700  0.00  0.00    +0.002 A 
ATOM      3  C   UNL     1       1.091   1.865   0.959  0.00  0.00    +0.000 A 
ATOM      4  C   UNL     1       1.084   3.248   0.946  0.00  0.00    +0.001 A 
ATOM      5  C   UNL     1      -0.083   3.933   0.675  0.00  0.00    +0.012 A 
ATOM      6  C   UNL     1      -1.258   3.225   0.413  0.00  0.00    +0.019 A 
ENDROOT
BRANCH   6   7
ATOM      7  C   UNL     1      -2.511   3.952   0.122  0.00  0.00    +0.141 A 
ATOM      8  N   UNL     1      -2.538   5.310   0.226  0.00  0.00    -0.307 N 
ATOM      9  H   UNL     1      -1.632   5.856   0.528  0.00  0.00    +0.170 HD
ATOM     10  C   UNL     1      -3.678   5.981  -0.045  0.00  0.00    +0.252 A 
ATOM     11  O   UNL     1      -3.719   7.197   0.037  0.00  0.00    -0.268 OA
ATOM     12  C   UNL     1      -4.821   5.247  -0.419  0.00  0.00    +0.093 A 
ATOM     13  C   UNL     1      -4.735   3.888  -0.499  0.00  0.00    +0.049 A 
ATOM     14  N   UNL     1      -3.585   3.274  -0.228  0.00  0.00    -0.234 NA
BRANCH  13  15
ATOM     15  C   UNL     1      -5.943   3.080  -0.897  0.00  0.00    +0.060 C 
BRANCH  15  16
ATOM     16  C   UNL     1      -5.855   2.728  -2.383  0.00  0.00    +0.041 C 
BRANCH  16  17
ATOM     17  C   UNL     1      -7.118   2.025  -2.809  0.00  0.00    -0.047 A 
ATOM     18  C   UNL     1      -7.203   0.647  -2.730  0.00  0.00    +0.003 A 
ATOM     19  C   UNL     1      -8.363   0.003  -3.116  0.00  0.00    +0.000 A 
ATOM     20  C   UNL     1      -9.435   0.735  -3.590  0.00  0.00    +0.000 A 
ATOM     21  C   UNL     1      -9.349   2.112  -3.674  0.00  0.00    +0.000 A 
ATOM     22  C   UNL     1      -8.190   2.757  -3.283  0.00  0.00    +0.003 A 
ENDBRANCH  16  17
ENDBRANCH  15  16
ENDBRANCH  13  15
ENDBRANCH   6   7
BRANCH   1  23
ATOM     23  C   UNL     1      -2.505   1.058   0.135  0.00  0.00    -0.041 C 
BRANCH  23  31
ATOM     24  C   UNL     1      -3.988  -1.027   1.581  0.00  0.00    -0.004 C 
ATOM     25  C   UNL     1      -3.412  -1.186   0.172  0.00  0.00    +0.017 C 
ATOM     26  C   UNL     1      -3.092  -2.634  -0.073  0.00  0.00    +0.199 C 
ATOM     27  O   UNL     1      -3.887  -3.474   0.291  0.00  0.00    -0.278 OA
ATOM     28  N   UNL     1      -1.967  -3.034  -0.674  0.00  0.00    -0.318 N 
ATOM     29  C   UNL     1      -0.930  -2.106  -1.117  0.00  0.00    +0.085 C 
ATOM     30  C   UNL     1      -1.500  -0.689  -1.211  0.00  0.00    -0.058 C 
ATOM     31  N   UNL     1      -2.194  -0.375   0.049  0.00  0.00    +0.391 N 
ATOM     32  H   UNL     1      -1.841  -4.115  -0.831  0.00  0.00    +0.149 HD
ATOM     33  H   UNL     1      -1.526  -0.621   0.888  0.00  0.00    -0.080 HD
ENDBRANCH  23  31
ENDBRANCH   1  23
TORSDOF 6
