REMARK  Name = ZINC13033389
REMARK  14 active torsions:
REMARK  status: ('A' for Active; 'I' for Inactive)
REMARK    1  A    between atoms: C_1  and  C_2
REMARK    2  A    between atoms: C_2  and  C_3
REMARK    3  A    between atoms: C_3  and  C_4
REMARK    4  A    between atoms: C_3  and  C_5
REMARK    5  A    between atoms: C_3  and  N_6
REMARK    6  A    between atoms: C_7  and  C_11
REMARK    7  A    between atoms: C_11  and  N_66
REMARK    8  A    between atoms: C_12  and  C_13
REMARK    9  A    between atoms: C_12  and  N_66
REMARK   10  A    between atoms: C_16  and  C_19
REMARK   11  A    between atoms: C_20  and  C_21
REMARK   12  A    between atoms: C_20  and  N_66
REMARK   13  A    between atoms: C_25  and  O_33
REMARK   14  A    between atoms: O_33  and  C_34
REMARK                            x       y       z     vdW  Elec       q    Type
REMARK                         _______ _______ _______ _____ _____    ______ ____
ROOT
ATOM      1  N   UNL     1       1.378  -2.100  -0.877  0.00  0.00    +0.390 N 
ATOM      2  H   UNL     1       2.214  -1.830  -1.408  0.00  0.00    -0.080 HD
ENDROOT
BRANCH   1   3
ATOM      3  C   UNL     1       1.068  -3.518  -1.158  0.00  0.00    +0.001 C 
BRANCH   3   5
ATOM      4  N   UNL     1       3.226  -4.684  -1.858  0.00  0.00    -0.226 N 
ATOM      5  C   UNL     1       2.311  -4.341  -0.933  0.00  0.00    +0.136 A 
ATOM      6  N   UNL     1       2.706  -4.866   0.201  0.00  0.00    -0.115 NA
ATOM      7  N   UNL     1       3.810  -5.495  -0.016  0.00  0.00    -0.023 NA
ATOM      8  N   UNL     1       4.128  -5.384  -1.258  0.00  0.00    -0.043 NA
BRANCH   4   9
ATOM      9  C   UNL     1       3.203  -4.326  -3.278  0.00  0.00    +0.061 C 
ATOM     10  C   UNL     1       2.032  -5.033  -3.964  0.00  0.00    +0.036 C 
ATOM     11  C   UNL     1       3.039  -2.812  -3.421  0.00  0.00    +0.036 C 
BRANCH   9  13
ATOM     12  C   UNL     1       4.492  -4.387  -5.418  0.00  0.00    +0.006 C 
ATOM     13  C   UNL     1       4.515  -4.761  -3.934  0.00  0.00    +0.026 C 
ENDBRANCH   9  13
ENDBRANCH   4   9
ENDBRANCH   3   5
ENDBRANCH   1   3
BRANCH   1  14
ATOM     14  C   UNL     1       1.646  -1.917   0.565  0.00  0.00    -0.042 C 
BRANCH  14  15
ATOM     15  C   UNL     1       2.274  -0.564   0.774  0.00  0.00    -0.064 A 
ATOM     16  C   UNL     1       1.492   0.509   1.158  0.00  0.00    +0.002 A 
ATOM     17  C   UNL     1       2.068   1.751   1.350  0.00  0.00    +0.003 A 
ATOM     18  C   UNL     1       3.426   1.920   1.158  0.00  0.00    -0.050 A 
ATOM     19  C   UNL     1       4.208   0.848   0.772  0.00  0.00    +0.003 A 
ATOM     20  C   UNL     1       3.632  -0.394   0.581  0.00  0.00    +0.002 A 
ATOM     21  C   UNL     1       4.054   3.274   1.367  0.00  0.00    +0.044 C 
ENDBRANCH  14  15
ENDBRANCH   1  14
BRANCH   1  22
ATOM     22  C   UNL     1       0.248  -1.244  -1.293  0.00  0.00    -0.036 C 
BRANCH  22  23
ATOM     23  C   UNL     1       0.230  -1.162  -2.798  0.00  0.00    +0.001 A 
ATOM     24  C   UNL     1      -0.583  -1.981  -3.509  0.00  0.00    +0.017 A 
ATOM     25  C   UNL     1      -0.577  -1.877  -4.970  0.00  0.00    +0.002 A 
ATOM     26  C   UNL     1      -1.395  -2.695  -5.755  0.00  0.00    +0.055 A 
ATOM     27  C   UNL     1      -1.365  -2.571  -7.130  0.00  0.00    +0.121 A 
ATOM     28  C   UNL     1      -0.525  -1.637  -7.733  0.00  0.00    +0.047 A 
ATOM     29  C   UNL     1       0.285  -0.826  -6.970  0.00  0.00    +0.030 A 
ATOM     30  C   UNL     1       0.270  -0.935  -5.583  0.00  0.00    +0.049 A 
ATOM     31  N   UNL     1       1.074  -0.131  -4.801  0.00  0.00    -0.322 N 
ATOM     32  H   UNL     1       1.657   0.518  -5.225  0.00  0.00    +0.169 HD
ATOM     33  C   UNL     1       1.057  -0.230  -3.461  0.00  0.00    +0.251 A 
ATOM     34  O   UNL     1       1.776   0.501  -2.801  0.00  0.00    -0.268 OA
BRANCH  27  35
ATOM     35  O   UNL     1      -2.157  -3.364  -7.898  0.00  0.00    -0.495 OA
ATOM     36  C   UNL     1      -2.077  -3.184  -9.314  0.00  0.00    +0.277 C 
ENDBRANCH  27  35
ENDBRANCH  22  23
ENDBRANCH   1  22
TORSDOF 9
