REMARK  Name = ZINC61122552
REMARK  2 active torsions:
REMARK  status: ('A' for Active; 'I' for Inactive)
REMARK    1  A    between atoms: C_12  and  N_13
REMARK    2  A    between atoms: N_13  and  N_14
REMARK                            x       y       z     vdW  Elec       q    Type
REMARK                         _______ _______ _______ _____ _____    ______ ____
ROOT
ATOM      1  C   UNL     1       0.074   1.264  -0.335  0.00  0.00    +0.080 A 
ATOM      2  C   UNL     1       1.208   2.018  -0.234  0.00  0.00    +0.137 A 
ATOM      3  C   UNL     1       2.448   1.386  -0.056  0.00  0.00    +0.061 A 
ATOM      4  C   UNL     1       2.514  -0.027   0.017  0.00  0.00    +0.114 A 
ATOM      5  C   UNL     1       1.326  -0.771  -0.090  0.00  0.00    +0.184 A 
ATOM      6  C   UNL     1       0.134  -0.127  -0.262  0.00  0.00    +0.163 A 
ATOM      7  F   UNL     1      -1.004  -0.848  -0.363  0.00  0.00    -0.202 F 
ATOM      8  F   UNL     1       1.363  -2.120  -0.022  0.00  0.00    -0.200 F 
ATOM      9  N   UNL     1       3.694  -0.631   0.184  0.00  0.00    -0.248 NA
ATOM     10  C   UNL     1       4.820   0.045   0.289  0.00  0.00    +0.047 A 
ATOM     11  C   UNL     1       4.833   1.433   0.229  0.00  0.00    -0.003 A 
ATOM     12  C   UNL     1       3.646   2.128   0.056  0.00  0.00    +0.058 A 
ATOM     13  C   UNL     1       6.251   1.940   0.378  0.00  0.00    +0.039 C 
ATOM     14  C   UNL     1       7.043   0.756   0.970  0.00  0.00    +0.011 C 
ATOM     15  C   UNL     1       6.236  -0.464   0.479  0.00  0.00    +0.056 C 
ATOM     16  F   UNL     1       1.136   3.365  -0.307  0.00  0.00    -0.205 F 
ENDROOT
BRANCH  12  17
ATOM     17  N   UNL     1       3.634   3.514  -0.008  0.00  0.00    -0.282 N 
ATOM     18  H   UNL     1       2.891   4.010   0.371  0.00  0.00    +0.166 HD
BRANCH  17  19
ATOM     19  N   UNL     1       4.667   4.179  -0.603  0.00  0.00    -0.256 NA
ATOM     20  H   UNL     1       4.711   3.971  -1.589  0.00  0.00    +0.140 HD
ATOM     21  H   UNL     1       4.596   5.173  -0.446  0.00  0.00    +0.140 HD
ENDBRANCH  17  19
ENDBRANCH  12  17
TORSDOF 2
