REMARK  Name = ZINC05899300
REMARK  5 active torsions:
REMARK  status: ('A' for Active; 'I' for Inactive)
REMARK    1  A    between atoms: C_4  and  C_7
REMARK    2  A    between atoms: N_8  and  N_9
REMARK    3  A    between atoms: N_11  and  C_24
REMARK    4  A    between atoms: C_15  and  C_16
REMARK    5  A    between atoms: C_21  and  O_22
REMARK                            x       y       z     vdW  Elec       q    Type
REMARK                         _______ _______ _______ _____ _____    ______ ____
ROOT
ATOM      1  N   UNL     1      -1.087   2.562  -0.263  0.00  0.00    -0.126 NA
ATOM      2  C   UNL     1      -0.044   1.755  -0.272  0.00  0.00    +0.190 C 
ATOM      3  N   UNL     1       1.262   2.046  -0.600  0.00  0.00    -0.238 N 
ATOM      4  C   UNL     1       2.192   1.108  -0.560  0.00  0.00    +0.260 C 
ATOM      5  O   UNL     1       3.351   1.349  -0.846  0.00  0.00    -0.269 OA
ATOM      6  C   UNL     1       1.763  -0.243  -0.154  0.00  0.00    +0.078 C 
ATOM      7  C   UNL     1       2.497  -1.380  -0.030  0.00  0.00    +0.032 C 
ATOM      8  S   UNL     1       0.018   0.016   0.129  0.00  0.00    -0.047 S 
ENDROOT
BRANCH   7   9
ATOM      9  C   UNL     1       3.959  -1.327  -0.155  0.00  0.00    +0.018 A 
ATOM     10  C   UNL     1       4.679  -0.284   0.439  0.00  0.00    +0.011 A 
ATOM     11  C   UNL     1       6.051  -0.244   0.322  0.00  0.00    +0.001 A 
ATOM     12  C   UNL     1       6.721  -1.226  -0.390  0.00  0.00    +0.004 A 
ATOM     13  C   UNL     1       6.022  -2.259  -0.986  0.00  0.00    +0.046 A 
ATOM     14  C   UNL     1       4.643  -2.319  -0.876  0.00  0.00    +0.124 A 
BRANCH  14  15
ATOM     15  O   UNL     1       3.956  -3.333  -1.461  0.00  0.00    -0.506 OA
ATOM     16  H   UNL     1       3.676  -3.147  -2.367  0.00  0.00    +0.292 HD
ENDBRANCH  14  15
ENDBRANCH   7   9
BRANCH   3  17
ATOM     17  C   UNL     1       1.623   3.410  -0.995  0.00  0.00    +0.107 C 
ATOM     18  C   UNL     1       0.771   3.864  -2.203  0.00  0.00    +0.031 C 
ATOM     19  C   UNL     1       0.547   5.359  -1.876  0.00  0.00    +0.029 C 
ATOM     20  C   UNL     1       0.692   5.449  -0.374  0.00  0.00    -0.029 C 
ATOM     21  C   UNL     1       1.278   4.386   0.106  0.00  0.00    -0.009 C 
ENDBRANCH   3  17
BRANCH   1  23
ATOM     22  C   UNL     1      -3.282   2.910   0.078  0.00  0.00    +0.143 C 
ATOM     23  N   UNL     1      -2.249   2.111   0.069  0.00  0.00    -0.155 NA
BRANCH  22  27
ATOM     24  C   UNL     1      -7.103   1.425   1.168  0.00  0.00    +0.000 A 
ATOM     25  C   UNL     1      -6.955   2.758   0.823  0.00  0.00    +0.001 A 
ATOM     26  C   UNL     1      -5.716   3.248   0.468  0.00  0.00    +0.009 A 
ATOM     27  C   UNL     1      -4.607   2.395   0.457  0.00  0.00    -0.005 A 
ATOM     28  C   UNL     1      -4.766   1.049   0.801  0.00  0.00    +0.009 A 
ATOM     29  C   UNL     1      -6.011   0.575   1.159  0.00  0.00    +0.001 A 
ENDBRANCH  22  27
ENDBRANCH   1  23
TORSDOF 5
