REMARK  Name = ZINC35497846
REMARK  8 active torsions:
REMARK  status: ('A' for Active; 'I' for Inactive)
REMARK    1  A    between atoms: C_2  and  C_3
REMARK    2  A    between atoms: C_3  and  N_4
REMARK    3  A    between atoms: C_13  and  S_14
REMARK    4  A    between atoms: S_14  and  C_15
REMARK    5  A    between atoms: C_15  and  C_16
REMARK    6  A    between atoms: C_19  and  C_21
REMARK    7  A    between atoms: N_23  and  C_24
REMARK    8  A    between atoms: C_24  and  C_25
REMARK                            x       y       z     vdW  Elec       q    Type
REMARK                         _______ _______ _______ _____ _____    ______ ____
ROOT
ATOM      1  N   UNL     1       1.367  -1.676   1.111  0.00  0.00    -0.283 N 
ATOM      2  C   UNL     1       1.860  -1.261   2.293  0.00  0.00    +0.263 A 
ATOM      3  O   UNL     1       2.262  -0.118   2.428  0.00  0.00    -0.267 OA
ATOM      4  C   UNL     1       1.907  -2.180   3.389  0.00  0.00    +0.076 A 
ATOM      5  C   UNL     1       2.399  -1.948   4.748  0.00  0.00    -0.023 A 
ATOM      6  C   UNL     1       2.335  -2.985   5.607  0.00  0.00    -0.004 A 
ATOM      7  S   UNL     1       1.627  -4.314   4.673  0.00  0.00    -0.073 S 
ATOM      8  C   UNL     1       1.419  -3.471   3.125  0.00  0.00    +0.117 A 
ATOM      9  N   UNL     1       0.944  -3.818   1.935  0.00  0.00    -0.216 NA
ATOM     10  C   UNL     1       0.908  -2.950   0.944  0.00  0.00    +0.173 A 
ATOM     11  C   UNL     1       2.772  -3.004   7.041  0.00  0.00    +0.043 C 
ATOM     12  C   UNL     1       3.652  -1.772   7.295  0.00  0.00    +0.005 C 
ATOM     13  C   UNL     1       2.949  -0.539   6.720  0.00  0.00    +0.005 C 
ATOM     14  C   UNL     1       2.962  -0.600   5.192  0.00  0.00    +0.037 C 
ENDROOT
BRANCH   1  15
ATOM     15  C   UNL     1       1.317  -0.740  -0.015  0.00  0.00    +0.154 C 
BRANCH  15  17
ATOM     16  C   UNL     1      -0.016   1.306   0.009  0.00  0.00    +0.005 C 
ATOM     17  C   UNL     1       0.002  -0.004   0.002  0.00  0.00    -0.013 C 
ENDBRANCH  15  17
ENDBRANCH   1  15
BRANCH  10  18
ATOM     18  S   UNL     1       0.266  -3.443  -0.621  0.00  0.00    -0.080 S 
BRANCH  18  19
ATOM     19  C   UNL     1      -0.211  -5.176  -0.373  0.00  0.00    +0.151 C 
BRANCH  19  20
ATOM     20  C   UNL     1      -0.784  -5.727  -1.653  0.00  0.00    +0.116 A 
ATOM     21  C   UNL     1      -0.081  -6.341  -2.630  0.00  0.00    +0.046 A 
ATOM     22  C   UNL     1      -0.994  -6.697  -3.635  0.00  0.00    +0.055 A 
ATOM     23  C   UNL     1      -2.223  -6.277  -3.215  0.00  0.00    +0.189 A 
ATOM     24  O   UNL     1      -2.076  -5.695  -2.007  0.00  0.00    -0.454 OA
BRANCH  23  25
ATOM     25  C   UNL     1      -3.484  -6.435  -3.947  0.00  0.00    +0.280 C 
ATOM     26  O   UNL     1      -3.493  -6.984  -5.034  0.00  0.00    -0.267 OA
ATOM     27  N   UNL     1      -4.634  -5.973  -3.417  0.00  0.00    -0.302 N 
ATOM     28  H   UNL     1      -4.627  -5.536  -2.551  0.00  0.00    +0.150 HD
BRANCH  27  29
ATOM     29  C   UNL     1      -5.894  -6.131  -4.148  0.00  0.00    +0.179 C 
BRANCH  29  30
ATOM     30  C   UNL     1      -7.019  -5.534  -3.344  0.00  0.00    +0.122 A 
ATOM     31  C   UNL     1      -7.449  -4.261  -3.415  0.00  0.00    +0.046 A 
ATOM     32  C   UNL     1      -8.515  -4.137  -2.494  0.00  0.00    +0.041 A 
ATOM     33  C   UNL     1      -8.673  -5.340  -1.916  0.00  0.00    +0.195 A 
ATOM     34  O   UNL     1      -7.769  -6.185  -2.438  0.00  0.00    -0.466 OA
ENDBRANCH  29  30
ENDBRANCH  27  29
ENDBRANCH  23  25
ENDBRANCH  19  20
ENDBRANCH  18  19
ENDBRANCH  10  18
TORSDOF 8
