REMARK  Name = ZINC67293273
REMARK  3 active torsions:
REMARK  status: ('A' for Active; 'I' for Inactive)
REMARK    1  A    between atoms: C_5  and  N_7
REMARK    2  A    between atoms: C_9  and  C_19
REMARK    3  A    between atoms: C_14  and  O_18
REMARK                            x       y       z     vdW  Elec       q    Type
REMARK                         _______ _______ _______ _____ _____    ______ ____
ROOT
ATOM      1  N   UNL     1       1.274  -1.982  -0.063  0.00  0.00    -0.323 N 
ATOM      2  C   UNL     1       0.182  -2.688   0.134  0.00  0.00    +0.212 A 
ATOM      3  C   UNL     1       0.247  -4.140   0.393  0.00  0.00    +0.098 A 
ATOM      4  C   UNL     1      -0.802  -4.710   1.100  0.00  0.00    +0.030 A 
ATOM      5  C   UNL     1      -1.876  -3.873   1.496  0.00  0.00    +0.018 A 
ATOM      6  C   UNL     1      -2.858  -4.348   2.379  0.00  0.00    +0.015 A 
ATOM      7  C   UNL     1      -3.863  -3.521   2.786  0.00  0.00    +0.046 A 
ATOM      8  C   UNL     1      -3.928  -2.207   2.326  0.00  0.00    +0.120 A 
ATOM      9  C   UNL     1      -2.978  -1.725   1.438  0.00  0.00    +0.092 A 
ATOM     10  C   UNL     1      -1.955  -2.554   1.008  0.00  0.00    +0.141 A 
ATOM     11  O   UNL     1      -1.045  -2.106   0.113  0.00  0.00    -0.438 OA
ATOM     12  H   UNL     1       2.144  -2.400   0.027  0.00  0.00    +0.169 HD
ENDROOT
BRANCH   3  13
ATOM     13  C   UNL     1       1.380  -4.951  -0.080  0.00  0.00    +0.254 C 
ATOM     14  O   UNL     1       1.459  -6.125   0.229  0.00  0.00    -0.270 OA
ATOM     15  N   UNL     1       2.330  -4.393  -0.857  0.00  0.00    -0.266 N 
ATOM     16  C   UNL     1       3.426  -5.149  -1.268  0.00  0.00    +0.125 A 
ATOM     17  C   UNL     1       3.352  -6.537  -1.248  0.00  0.00    +0.044 A 
ATOM     18  C   UNL     1       4.447  -7.275  -1.659  0.00  0.00    +0.005 A 
ATOM     19  C   UNL     1       5.583  -6.597  -2.078  0.00  0.00    +0.020 A 
ATOM     20  C   UNL     1       5.588  -5.216  -2.072  0.00  0.00    +0.113 A 
ATOM     21  N   UNL     1       4.526  -4.538  -1.679  0.00  0.00    -0.240 NA
ATOM     22  H   UNL     1       2.251  -3.465  -1.129  0.00  0.00    +0.157 HD
ENDBRANCH   3  13
BRANCH   1  27
ATOM     23  C   UNL     1       0.254   1.086  -1.762  0.00  0.00    +0.002 A 
ATOM     24  C   UNL     1       0.996   2.024  -1.066  0.00  0.00    +0.003 A 
ATOM     25  C   UNL     1       1.830   1.630  -0.035  0.00  0.00    +0.040 A 
ATOM     26  C   UNL     1       1.929   0.295   0.306  0.00  0.00    +0.147 A 
ATOM     27  C   UNL     1       1.182  -0.658  -0.394  0.00  0.00    +0.077 A 
ATOM     28  C   UNL     1       0.342  -0.251  -1.433  0.00  0.00    +0.028 A 
ATOM     29  F   UNL     1       2.744  -0.088   1.312  0.00  0.00    -0.203 F 
ENDBRANCH   1  27
BRANCH   8  30
ATOM     30  O   UNL     1      -4.928  -1.393   2.750  0.00  0.00    -0.507 OA
ATOM     31  H   UNL     1      -4.717  -0.895   3.551  0.00  0.00    +0.292 HD
ENDBRANCH   8  30
TORSDOF 3
