REMARK  Name = ZINC39912604
REMARK  14 active torsions:
REMARK  status: ('A' for Active; 'I' for Inactive)
REMARK    1  A    between atoms: C_1  and  C_2
REMARK    2  A    between atoms: C_2  and  C_3
REMARK    3  A    between atoms: C_3  and  O_4
REMARK    4  A    between atoms: O_4  and  C_5
REMARK    5  A    between atoms: C_8  and  C_11
REMARK    6  A    between atoms: C_14  and  C_32
REMARK    7  A    between atoms: N_21  and  C_22
REMARK    8  A    between atoms: C_22  and  C_23
REMARK    9  A    between atoms: C_23  and  C_24
REMARK   10  A    between atoms: C_27  and  O_30
REMARK   11  A    between atoms: O_30  and  C_31
REMARK   12  A    between atoms: C_34  and  C_40
REMARK   13  A    between atoms: C_36  and  C_39
REMARK   14  A    between atoms: C_37  and  O_38
REMARK                            x       y       z     vdW  Elec       q    Type
REMARK                         _______ _______ _______ _____ _____    ______ ____
ROOT
ATOM      1  C   UNL     1       3.211  -4.432  -5.612  0.00  0.00    +0.141 C 
ATOM      2  C   UNL     1       2.195  -5.042  -6.537  0.00  0.00    +0.035 A 
ATOM      3  C   UNL     1       1.096  -4.840  -7.380  0.00  0.00    +0.102 A 
ATOM      4  N   UNL     1       0.754  -6.016  -7.870  0.00  0.00    -0.173 NA
ATOM      5  N   UNL     1       1.528  -6.939  -7.421  0.00  0.00    -0.272 N 
ATOM      6  H   UNL     1       1.462  -7.880  -7.647  0.00  0.00    +0.189 HD
ATOM      7  C   UNL     1       2.456  -6.398  -6.578  0.00  0.00    +0.126 A 
ATOM      8  C   UNL     1       3.605  -6.677  -5.709  0.00  0.00    +0.265 C 
ATOM      9  O   UNL     1       4.086  -7.780  -5.527  0.00  0.00    -0.268 OA
ATOM     10  N   UNL     1       4.053  -5.541  -5.143  0.00  0.00    -0.285 N 
ENDROOT
BRANCH   3  11
ATOM     11  C   UNL     1       0.437  -3.542  -7.669  0.00  0.00    +0.044 A 
ATOM     12  C   UNL     1       0.983  -2.357  -7.183  0.00  0.00    +0.017 A 
ATOM     13  C   UNL     1       0.366  -1.153  -7.454  0.00  0.00    -0.049 A 
ATOM     14  C   UNL     1      -0.794  -1.118  -8.207  0.00  0.00    +0.010 A 
ATOM     15  C   UNL     1      -1.345  -2.288  -8.693  0.00  0.00    -0.008 A 
ATOM     16  C   UNL     1      -0.732  -3.504  -8.433  0.00  0.00    +0.129 A 
ATOM     17  C   UNL     1      -2.610  -2.242  -9.511  0.00  0.00    +0.047 C 
ATOM     18  C   UNL     1       0.959   0.129  -6.928  0.00  0.00    +0.044 C 
BRANCH  16  19
ATOM     19  O   UNL     1      -1.269  -4.655  -8.916  0.00  0.00    -0.506 OA
ATOM     20  H   UNL     1      -1.908  -5.071  -8.321  0.00  0.00    +0.292 HD
ENDBRANCH  16  19
ENDBRANCH   3  11
BRANCH   1  24
ATOM     21  C   UNL     1       1.254  -2.569  -2.301  0.00  0.00    +0.121 A 
ATOM     22  C   UNL     1       1.933  -1.796  -3.231  0.00  0.00    +0.046 A 
ATOM     23  C   UNL     1       2.565  -2.401  -4.300  0.00  0.00    +0.009 A 
ATOM     24  C   UNL     1       2.521  -3.775  -4.444  0.00  0.00    -0.022 A 
ATOM     25  C   UNL     1       1.844  -4.548  -3.518  0.00  0.00    +0.009 A 
ATOM     26  C   UNL     1       1.216  -3.948  -2.444  0.00  0.00    +0.046 A 
BRANCH  21  27
ATOM     27  O   UNL     1       0.631  -1.976  -1.248  0.00  0.00    -0.492 OA
BRANCH  27  28
ATOM     28  C   UNL     1       0.712  -0.552  -1.165  0.00  0.00    +0.229 C 
BRANCH  28  30
ATOM     29  C   UNL     1       0.044   1.454   0.166  0.00  0.00    +0.007 C 
ATOM     30  C   UNL     1      -0.042  -0.071   0.077  0.00  0.00    +0.038 C 
ENDBRANCH  28  30
ENDBRANCH  27  28
ENDBRANCH  21  27
ENDBRANCH   1  24
BRANCH  10  31
ATOM     31  C   UNL     1       5.184  -5.428  -4.218  0.00  0.00    +0.114 C 
BRANCH  31  32
ATOM     32  C   UNL     1       4.686  -5.594  -2.781  0.00  0.00    +0.054 C 
BRANCH  32  33
ATOM     33  C   UNL     1       5.849  -5.478  -1.830  0.00  0.00    -0.046 A 
ATOM     34  C   UNL     1       6.564  -6.607  -1.473  0.00  0.00    +0.007 A 
ATOM     35  C   UNL     1       7.630  -6.503  -0.601  0.00  0.00    +0.046 A 
ATOM     36  C   UNL     1       7.984  -5.266  -0.083  0.00  0.00    +0.120 A 
ATOM     37  C   UNL     1       7.265  -4.135  -0.443  0.00  0.00    +0.046 A 
ATOM     38  C   UNL     1       6.203  -4.243  -1.319  0.00  0.00    +0.007 A 
BRANCH  36  39
ATOM     39  O   UNL     1       9.032  -5.162   0.775  0.00  0.00    -0.495 OA
ATOM     40  C   UNL     1       9.339  -3.856   1.269  0.00  0.00    +0.277 C 
ENDBRANCH  36  39
ENDBRANCH  32  33
ENDBRANCH  31  32
ENDBRANCH  10  31
TORSDOF 10
