REMARK  Name = ZINC40981189
REMARK  14 active torsions:
REMARK  status: ('A' for Active; 'I' for Inactive)
REMARK    1  A    between atoms: C_1  and  C_2
REMARK    2  A    between atoms: C_2  and  C_3
REMARK    3  A    between atoms: C_3  and  S_4
REMARK    4  A    between atoms: S_4  and  C_5
REMARK    5  A    between atoms: C_10  and  C_22
REMARK    6  A    between atoms: C_16  and  C_20
REMARK    7  A    between atoms: C_16  and  C_21
REMARK    8  A    between atoms: C_25  and  O_31
REMARK    9  A    between atoms: C_26  and  O_28
REMARK   10  A    between atoms: O_28  and  C_29
REMARK   11  A    between atoms: C_29  and  C_30
REMARK   12  A    between atoms: O_31  and  C_32
REMARK   13  A    between atoms: C_32  and  C_33
REMARK   14  A    between atoms: C_36  and  C_39
REMARK                            x       y       z     vdW  Elec       q    Type
REMARK                         _______ _______ _______ _____ _____    ______ ____
ROOT
ATOM      1  C   UNL     1       1.589  -2.718  -2.758  0.00  0.00    +0.210 A 
ATOM      2  N   UNL     1       2.084  -1.835  -3.638  0.00  0.00    -0.187 NA
ATOM      3  C   UNL     1       2.645  -2.475  -4.628  0.00  0.00    +0.219 A 
ATOM      4  N   UNL     1       2.523  -3.804  -4.394  0.00  0.00    -0.220 N 
ATOM      5  N   UNL     1       1.843  -3.937  -3.184  0.00  0.00    -0.141 NA
ATOM      6  C   UNL     1       3.048  -4.828  -5.290  0.00  0.00    +0.176 C 
ATOM      7  C   UNL     1       3.413  -4.212  -6.622  0.00  0.00    +0.041 C 
ATOM      8  C   UNL     1       3.507  -2.876  -6.794  0.00  0.00    +0.020 C 
ATOM      9  N   UNL     1       3.276  -1.995  -5.764  0.00  0.00    -0.287 N 
ATOM     10  C   UNL     1       3.867  -2.289  -8.138  0.00  0.00    +0.058 C 
ATOM     11  C   UNL     1       4.781  -3.255  -8.894  0.00  0.00    -0.023 C 
ATOM     12  C   UNL     1       4.047  -4.591  -9.051  0.00  0.00    +0.086 C 
ATOM     13  C   UNL     1       3.655  -5.095  -7.690  0.00  0.00    +0.164 C 
ATOM     14  O   UNL     1       3.544  -6.291  -7.509  0.00  0.00    -0.292 OA
ATOM     15  C   UNL     1       5.110  -2.682 -10.274  0.00  0.00    +0.011 C 
ATOM     16  C   UNL     1       6.074  -3.467  -8.102  0.00  0.00    +0.011 C 
ATOM     17  H   UNL     1       3.547  -1.066  -5.830  0.00  0.00    +0.155 HD
ENDROOT
BRANCH   6  18
ATOM     18  C   UNL     1       4.276  -5.449  -4.676  0.00  0.00    -0.015 A 
ATOM     19  C   UNL     1       5.372  -4.661  -4.379  0.00  0.00    +0.010 A 
ATOM     20  C   UNL     1       6.501  -5.226  -3.815  0.00  0.00    +0.050 A 
ATOM     21  C   UNL     1       6.535  -6.585  -3.546  0.00  0.00    +0.162 A 
ATOM     22  C   UNL     1       5.431  -7.378  -3.844  0.00  0.00    +0.162 A 
ATOM     23  C   UNL     1       4.301  -6.804  -4.404  0.00  0.00    +0.055 A 
BRANCH  22  24
ATOM     24  O   UNL     1       5.460  -8.712  -3.582  0.00  0.00    -0.489 OA
BRANCH  24  25
ATOM     25  C   UNL     1       4.290  -9.463  -3.914  0.00  0.00    +0.226 C 
ATOM     26  C   UNL     1       4.508 -10.933  -3.549  0.00  0.00    +0.048 C 
ENDBRANCH  24  25
ENDBRANCH  22  24
BRANCH  21  27
ATOM     27  O   UNL     1       7.645  -7.142  -2.992  0.00  0.00    -0.484 OA
BRANCH  27  28
ATOM     28  C   UNL     1       8.740  -6.267  -2.713  0.00  0.00    +0.264 C 
BRANCH  28  29
ATOM     29  C   UNL     1       9.871  -7.057  -2.107  0.00  0.00    -0.010 A 
ATOM     30  C   UNL     1       9.945  -7.218  -0.736  0.00  0.00    +0.007 A 
ATOM     31  C   UNL     1      10.983  -7.942  -0.180  0.00  0.00    +0.004 A 
ATOM     32  C   UNL     1      11.947  -8.505  -0.995  0.00  0.00    -0.050 A 
ATOM     33  C   UNL     1      11.873  -8.345  -2.366  0.00  0.00    +0.004 A 
ATOM     34  C   UNL     1      10.833  -7.624  -2.922  0.00  0.00    +0.007 A 
ATOM     35  C   UNL     1      13.079  -9.293  -0.388  0.00  0.00    +0.044 C 
ENDBRANCH  28  29
ENDBRANCH  27  28
ENDBRANCH  21  27
ENDBRANCH   6  18
BRANCH   1  36
ATOM     36  S   UNL     1       0.743  -2.311  -1.267  0.00  0.00    -0.084 S 
BRANCH  36  37
ATOM     37  C   UNL     1       0.718  -0.497  -1.257  0.00  0.00    +0.077 C 
BRANCH  37  39
ATOM     38  C   UNL     1      -0.019   1.526   0.010  0.00  0.00    +0.004 C 
ATOM     39  C   UNL     1       0.002  -0.004   0.002  0.00  0.00    +0.008 C 
ENDBRANCH  37  39
ENDBRANCH  36  37
ENDBRANCH   1  36
TORSDOF 9
