REMARK  Name = ZINC06471991
REMARK  15 active torsions:
REMARK  status: ('A' for Active; 'I' for Inactive)
REMARK    1  A    between atoms: C_1  and  C_2
REMARK    2  A    between atoms: C_2  and  C_3
REMARK    3  A    between atoms: C_3  and  C_4
REMARK    4  A    between atoms: C_4  and  C_5
REMARK    5  A    between atoms: C_5  and  C_6
REMARK    6  A    between atoms: C_6  and  O_7
REMARK    7  A    between atoms: O_7  and  C_8
REMARK    8  A    between atoms: C_11  and  N_14
REMARK    9  A    between atoms: C_18  and  N_22
REMARK   10  A    between atoms: N_22  and  C_23
REMARK   11  A    between atoms: C_23  and  C_24
REMARK   12  A    between atoms: C_24  and  C_25
REMARK   13  A    between atoms: C_28  and  S_31
REMARK   14  A    between atoms: S_31  and  N_34
REMARK   15  A    between atoms: C_35  and  C_37
REMARK                            x       y       z     vdW  Elec       q    Type
REMARK                         _______ _______ _______ _____ _____    ______ ____
ROOT
ATOM      1  N   UNL     1       2.020  -9.736  -4.626  0.00  0.00    -0.209 N 
ATOM      2  C   UNL     1       1.562 -10.542  -3.660  0.00  0.00    +0.228 C 
ATOM      3  O   UNL     1       0.846 -10.202  -2.743  0.00  0.00    -0.275 OA
ATOM      4  C   UNL     1       2.079 -11.945  -3.895  0.00  0.00    +0.128 C 
ATOM      5  C   UNL     1       2.924 -11.808  -5.178  0.00  0.00    +0.171 C 
ATOM      6  C   UNL     1       2.791 -10.344  -5.536  0.00  0.00    +0.247 C 
ATOM      7  O   UNL     1       3.304  -9.806  -6.494  0.00  0.00    -0.273 OA
ENDROOT
BRANCH   1  11
ATOM      8  C   UNL     1       1.105  -5.669  -4.796  0.00  0.00    +0.121 A 
ATOM      9  C   UNL     1       0.100  -6.613  -4.951  0.00  0.00    +0.047 A 
ATOM     10  C   UNL     1       0.403  -7.959  -4.895  0.00  0.00    +0.027 A 
ATOM     11  C   UNL     1       1.712  -8.368  -4.684  0.00  0.00    +0.044 A 
ATOM     12  C   UNL     1       2.717  -7.423  -4.529  0.00  0.00    +0.027 A 
ATOM     13  C   UNL     1       2.415  -6.078  -4.590  0.00  0.00    +0.047 A 
BRANCH   8  14
ATOM     14  O   UNL     1       0.807  -4.344  -4.851  0.00  0.00    -0.492 OA
BRANCH  14  15
ATOM     15  C   UNL     1      -0.562  -3.995  -5.066  0.00  0.00    +0.229 C 
BRANCH  15  16
ATOM     16  C   UNL     1      -0.701  -2.472  -5.098  0.00  0.00    +0.041 C 
BRANCH  16  17
ATOM     17  C   UNL     1      -2.167  -2.099  -5.328  0.00  0.00    +0.003 C 
BRANCH  17  18
ATOM     18  C   UNL     1      -2.306  -0.576  -5.361  0.00  0.00    -0.000 C 
BRANCH  18  20
ATOM     19  C   UNL     1      -3.912   1.321  -5.623  0.00  0.00    +0.004 C 
ATOM     20  C   UNL     1      -3.772  -0.202  -5.591  0.00  0.00    -0.003 C 
ENDBRANCH  18  20
ENDBRANCH  17  18
ENDBRANCH  16  17
ENDBRANCH  15  16
ENDBRANCH  14  15
ENDBRANCH   8  14
ENDBRANCH   1  11
BRANCH   5  21
ATOM     21  N   UNL     1       2.380 -12.650  -6.246  0.00  0.00    -0.289 N 
ATOM     22  C   UNL     1       1.154 -12.396  -6.747  0.00  0.00    +0.213 C 
ATOM     23  O   UNL     1       0.462 -11.535  -6.247  0.00  0.00    -0.276 OA
ATOM     24  C   UNL     1       0.645 -13.181  -7.928  0.00  0.00    +0.109 C 
BRANCH  21  25
ATOM     25  C   UNL     1       3.167 -13.769  -6.770  0.00  0.00    +0.113 C 
BRANCH  25  26
ATOM     26  C   UNL     1       2.755 -15.060  -6.059  0.00  0.00    +0.054 C 
BRANCH  26  27
ATOM     27  C   UNL     1       3.565 -16.211  -6.598  0.00  0.00    -0.046 A 
ATOM     28  C   UNL     1       3.106 -16.930  -7.686  0.00  0.00    +0.005 A 
ATOM     29  C   UNL     1       3.849 -17.986  -8.180  0.00  0.00    +0.029 A 
ATOM     30  C   UNL     1       5.051 -18.322  -7.587  0.00  0.00    +0.105 A 
ATOM     31  C   UNL     1       5.511 -17.602  -6.500  0.00  0.00    +0.029 A 
ATOM     32  C   UNL     1       4.770 -16.544  -6.008  0.00  0.00    +0.005 A 
BRANCH  30  33
ATOM     33  S   UNL     1       5.998 -19.668  -8.216  0.00  0.00    +0.056 S 
ATOM     34  O   UNL     1       6.817 -20.123  -7.148  0.00  0.00    -0.153 OA
ATOM     35  O   UNL     1       5.087 -20.522  -8.895  0.00  0.00    -0.153 OA
BRANCH  33  36
ATOM     36  N   UNL     1       7.018 -19.054  -9.367  0.00  0.00    -0.204 NA
ATOM     37  H   UNL     1       7.005 -18.106  -9.570  0.00  0.00    +0.144 HD
ATOM     38  H   UNL     1       7.629 -19.642  -9.837  0.00  0.00    +0.144 HD
ENDBRANCH  33  36
ENDBRANCH  30  33
ENDBRANCH  26  27
ENDBRANCH  25  26
ENDBRANCH  21  25
ENDBRANCH   5  21
TORSDOF 13
