REMARK  Name = ZINC23053461
REMARK  7 active torsions:
REMARK  status: ('A' for Active; 'I' for Inactive)
REMARK    1  A    between atoms: C_3  and  C_6
REMARK    2  A    between atoms: C_6  and  C_7
REMARK    3  A    between atoms: C_7  and  C_8
REMARK    4  A    between atoms: N_10  and  C_11
REMARK    5  A    between atoms: C_14  and  N_17
REMARK    6  A    between atoms: N_17  and  S_18
REMARK    7  A    between atoms: S_18  and  C_21
REMARK                            x       y       z     vdW  Elec       q    Type
REMARK                         _______ _______ _______ _____ _____    ______ ____
ROOT
ATOM      1  C   UNL     1       3.902   3.799  -0.404  0.00  0.00    +0.033 A 
ATOM      2  C   UNL     1       2.792   4.124  -1.172  0.00  0.00    +0.025 A 
ATOM      3  C   UNL     1       1.612   3.425  -1.010  0.00  0.00    +0.026 A 
ATOM      4  C   UNL     1       1.537   2.397  -0.079  0.00  0.00    +0.048 A 
ATOM      5  C   UNL     1       2.646   2.076   0.693  0.00  0.00    +0.026 A 
ATOM      6  C   UNL     1       3.827   2.772   0.527  0.00  0.00    +0.025 A 
ENDROOT
BRANCH   1   9
ATOM      7  C   UNL     1       5.069   5.817  -0.891  0.00  0.00    +0.218 C 
ATOM      8  O   UNL     1       4.009   6.403  -0.945  0.00  0.00    -0.275 OA
ATOM      9  N   UNL     1       5.100   4.509  -0.569  0.00  0.00    -0.285 N 
ATOM     10  H   UNL     1       6.065   3.998  -0.435  0.00  0.00    +0.155 HD
BRANCH   7  11
ATOM     11  C   UNL     1       6.352   6.552  -1.183  0.00  0.00    +0.104 C 
BRANCH  11  12
ATOM     12  C   UNL     1       6.039   8.011  -1.518  0.00  0.00    +0.083 C 
BRANCH  12  15
ATOM     13  C   UNL     1       9.078   9.629  -2.833  0.00  0.00    +0.041 A 
ATOM     14  C   UNL     1       7.902   8.867  -3.018  0.00  0.00    +0.044 A 
ATOM     15  C   UNL     1       7.322   8.746  -1.810  0.00  0.00    +0.105 A 
ATOM     16  O   UNL     1       8.078   9.395  -0.909  0.00  0.00    -0.468 OA
ATOM     17  C   UNL     1       9.147   9.928  -1.523  0.00  0.00    +0.195 A 
ENDBRANCH  12  15
ENDBRANCH  11  12
ENDBRANCH   7  11
ENDBRANCH   1   9
BRANCH   4  18
ATOM     18  N   UNL     1       0.342   1.689   0.086  0.00  0.00    -0.216 N 
ATOM     19  H   UNL     1      -0.614   2.230   0.149  0.00  0.00    +0.174 HD
BRANCH  18  20
ATOM     20  S   UNL     1       0.365   0.036   0.185  0.00  0.00    +0.072 S 
ATOM     21  O   UNL     1       1.330  -0.298   1.174  0.00  0.00    -0.150 OA
ATOM     22  O   UNL     1      -0.989  -0.386   0.269  0.00  0.00    -0.150 OA
BRANCH  20  23
ATOM     23  C   UNL     1       0.987  -0.570  -1.348  0.00  0.00    +0.112 A 
ATOM     24  C   UNL     1       0.128  -0.748  -2.417  0.00  0.00    +0.032 A 
ATOM     25  C   UNL     1       0.610  -1.218  -3.626  0.00  0.00    +0.051 A 
ATOM     26  C   UNL     1       1.955  -1.520  -3.758  0.00  0.00    +0.162 A 
ATOM     27  C   UNL     1       2.816  -1.345  -2.684  0.00  0.00    +0.164 A 
ATOM     28  C   UNL     1       2.331  -0.870  -1.477  0.00  0.00    +0.078 A 
ATOM     29  O   UNL     1       4.140  -1.644  -2.825  0.00  0.00    -0.488 OA
ATOM     30  C   UNL     1       4.454  -3.028  -2.987  0.00  0.00    +0.232 C 
ATOM     31  C   UNL     1       4.319  -3.445  -4.444  0.00  0.00    +0.082 C 
ATOM     32  C   UNL     1       2.886  -3.346  -4.944  0.00  0.00    +0.232 C 
ATOM     33  O   UNL     1       2.442  -1.988  -4.944  0.00  0.00    -0.488 OA
ENDBRANCH  20  23
ENDBRANCH  18  20
ENDBRANCH   4  18
TORSDOF 7
