REMARK  Name = ZINC20823578
REMARK  6 active torsions:
REMARK  status: ('A' for Active; 'I' for Inactive)
REMARK    1  A    between atoms: C_1  and  C_2
REMARK    2  A    between atoms: C_2  and  C_30
REMARK    3  A    between atoms: C_4  and  N_10
REMARK    4  A    between atoms: C_6  and  C_8
REMARK    5  A    between atoms: C_6  and  C_9
REMARK    6  A    between atoms: N_10  and  C_11
REMARK                            x       y       z     vdW  Elec       q    Type
REMARK                         _______ _______ _______ _____ _____    ______ ____
ROOT
ATOM      1  C   UNL     1       3.777  -0.326  -3.131  0.00  0.00    +0.081 C 
ATOM      2  C   UNL     1       4.327  -0.884  -4.264  0.00  0.00    +0.059 C 
ATOM      3  C   UNL     1       5.649  -0.451  -4.761  0.00  0.00    +0.000 A 
ATOM      4  C   UNL     1       6.389   0.530  -4.112  0.00  0.00    +0.009 A 
ATOM      5  C   UNL     1       7.620   0.900  -4.615  0.00  0.00    +0.001 A 
ATOM      6  C   UNL     1       8.121   0.302  -5.763  0.00  0.00    +0.001 A 
ATOM      7  C   UNL     1       7.401  -0.672  -6.420  0.00  0.00    +0.014 A 
ATOM      8  C   UNL     1       6.155  -1.062  -5.927  0.00  0.00    +0.046 A 
ATOM      9  C   UNL     1       5.356  -2.096  -6.597  0.00  0.00    +0.259 C 
ATOM     10  O   UNL     1       5.788  -2.626  -7.603  0.00  0.00    -0.269 OA
ATOM     11  N   UNL     1       4.158  -2.466  -6.117  0.00  0.00    -0.186 N 
ATOM     12  C   UNL     1       3.619  -1.931  -5.010  0.00  0.00    +0.260 C 
ATOM     13  O   UNL     1       2.530  -2.314  -4.624  0.00  0.00    -0.269 OA
ATOM     14  C   UNL     1       3.443  -3.455  -6.797  0.00  0.00    +0.135 A 
ATOM     15  C   UNL     1       2.636  -3.105  -7.873  0.00  0.00    +0.044 A 
ATOM     16  C   UNL     1       1.934  -4.095  -8.537  0.00  0.00    +0.005 A 
ATOM     17  C   UNL     1       2.063  -5.406  -8.100  0.00  0.00    +0.020 A 
ATOM     18  C   UNL     1       2.883  -5.682  -7.024  0.00  0.00    +0.113 A 
ATOM     19  N   UNL     1       3.545  -4.718  -6.413  0.00  0.00    -0.239 NA
ENDROOT
BRANCH   1  20
ATOM     20  N   UNL     1       2.629  -0.835  -2.611  0.00  0.00    -0.346 N 
ATOM     21  H   UNL     1       2.157  -1.541  -3.078  0.00  0.00    +0.146 HD
BRANCH  20  25
ATOM     22  C   UNL     1      -0.028   1.484   0.028  0.00  0.00    -0.010 C 
ATOM     23  C   UNL     1       0.027  -0.048   0.036  0.00  0.00    -0.072 C 
ATOM     24  C   UNL     1       0.595  -0.551  -1.287  0.00  0.00    +0.009 C 
ATOM     25  C   UNL     1       2.104  -0.314  -1.343  0.00  0.00    +0.067 C 
ATOM     26  C   UNL     1       2.748  -1.073  -0.182  0.00  0.00    +0.009 C 
ATOM     27  C   UNL     1       2.196  -0.574   1.150  0.00  0.00    -0.072 C 
ATOM     28  N   UNL     1       0.745  -0.544   1.196  0.00  0.00    +0.386 N 
ATOM     29  C   UNL     1       2.792   0.799   1.476  0.00  0.00    -0.010 C 
ATOM     30  C   UNL     1       2.682  -1.551   2.246  0.00  0.00    -0.010 C 
ATOM     31  C   UNL     1      -1.432  -0.552   0.134  0.00  0.00    -0.010 C 
ATOM     32  H   UNL     1       0.461   0.009   2.011  0.00  0.00    -0.084 HD
ATOM     33  H   UNL     1       0.412  -1.493   1.397  0.00  0.00    -0.084 HD
ENDBRANCH  20  25
ENDBRANCH   1  20
TORSDOF 2
