REMARK  Name = ZINC63172594
REMARK  6 active torsions:
REMARK  status: ('A' for Active; 'I' for Inactive)
REMARK    1  A    between atoms: C_7  and  C_10
REMARK    2  A    between atoms: C_10  and  C_11
REMARK    3  A    between atoms: C_11  and  N_12
REMARK    4  A    between atoms: C_13  and  C_15
REMARK    5  A    between atoms: C_20  and  C_29
REMARK    6  A    between atoms: C_22  and  C_25
REMARK                            x       y       z     vdW  Elec       q    Type
REMARK                         _______ _______ _______ _____ _____    ______ ____
ROOT
ATOM      1  C   UNL     1      -1.752  -6.557  -2.622  0.00  0.00    +0.185 C 
ATOM      2  C   UNL     1      -1.135  -7.725  -1.887  0.00  0.00    +0.045 C 
ATOM      3  C   UNL     1      -1.026  -8.733  -2.779  0.00  0.00    +0.116 C 
ATOM      4  N   UNL     1      -0.532  -9.982  -2.590  0.00  0.00    -0.339 N 
ATOM      5  C   UNL     1      -0.496 -10.857  -3.578  0.00  0.00    +0.085 C 
ATOM      6  C   UNL     1      -0.999 -10.474  -4.899  0.00  0.00    +0.058 C 
ATOM      7  C   UNL     1      -1.488  -9.232  -5.076  0.00  0.00    +0.133 C 
ATOM      8  N   UNL     1      -1.508  -8.347  -4.021  0.00  0.00    -0.215 N 
ATOM      9  N   UNL     1      -1.960  -7.051  -3.994  0.00  0.00    -0.218 NA
ATOM     10  H   UNL     1      -1.465  -6.481  -4.662  0.00  0.00    +0.146 HD
ATOM     11  H   UNL     1      -0.199 -10.235  -1.715  0.00  0.00    +0.167 HD
ENDROOT
BRANCH   5  12
ATOM     12  C   UNL     1       0.044 -12.207  -3.353  0.00  0.00    +0.151 A 
ATOM     13  C   UNL     1       0.141 -13.196  -4.286  0.00  0.00    +0.051 A 
ATOM     14  C   UNL     1       0.711 -14.307  -3.640  0.00  0.00    +0.042 A 
ATOM     15  C   UNL     1       0.932 -13.950  -2.358  0.00  0.00    +0.196 A 
ATOM     16  O   UNL     1       0.534 -12.680  -2.190  0.00  0.00    -0.461 OA
ENDBRANCH   5  12
BRANCH   1  18
ATOM     17  N   UNL     1      -0.458  -4.798  -1.460  0.00  0.00    -0.313 N 
ATOM     18  C   UNL     1      -0.811  -5.380  -2.623  0.00  0.00    +0.236 C 
ATOM     19  O   UNL     1      -0.371  -4.957  -3.671  0.00  0.00    -0.274 OA
ATOM     20  H   UNL     1      -0.810  -5.136  -0.622  0.00  0.00    +0.149 HD
BRANCH  17  21
ATOM     21  C   UNL     1       0.457  -3.653  -1.462  0.00  0.00    +0.108 C 
BRANCH  21  22
ATOM     22  C   UNL     1       0.691  -3.186  -0.024  0.00  0.00    +0.052 C 
BRANCH  22  29
ATOM     23  C   UNL     1      -0.016   1.348   0.009  0.00  0.00    +0.001 A 
ATOM     24  C   UNL     1       1.166   2.101   0.002  0.00  0.00    +0.002 A 
ATOM     25  C   UNL     1       2.391   1.535  -0.013  0.00  0.00    +0.026 A 
ATOM     26  C   UNL     1       2.529   0.120  -0.022  0.00  0.00    +0.043 A 
ATOM     27  N   UNL     1       3.587  -0.654  -0.037  0.00  0.00    -0.380 N 
ATOM     28  C   UNL     1       3.143  -2.053  -0.041  0.00  0.00    +0.144 C 
ATOM     29  C   UNL     1       1.631  -2.008  -0.025  0.00  0.00    -0.040 C 
ATOM     30  C   UNL     1       1.295  -0.698  -0.014  0.00  0.00    -0.001 A 
ATOM     31  C   UNL     1       0.002  -0.004   0.002  0.00  0.00    +0.010 A 
ATOM     32  H   UNL     1       4.509  -0.353  -0.045  0.00  0.00    +0.160 HD
ENDBRANCH  22  29
ENDBRANCH  21  22
ENDBRANCH  17  21
ENDBRANCH   1  18
BRANCH   7  33
ATOM     33  C   UNL     1      -2.010  -8.810  -6.425  0.00  0.00    +0.432 C 
ATOM     34  F   UNL     1      -1.884  -9.873  -7.326  0.00  0.00    -0.165 F 
ATOM     35  F   UNL     1      -3.358  -8.453  -6.312  0.00  0.00    -0.165 F 
ATOM     36  F   UNL     1      -1.275  -7.715  -6.889  0.00  0.00    -0.165 F 
ENDBRANCH   7  33
TORSDOF 6
