REMARK  Name = ZINC19296833
REMARK  9 active torsions:
REMARK  status: ('A' for Active; 'I' for Inactive)
REMARK    1  A    between atoms: C_1  and  C_2
REMARK    2  A    between atoms: C_4  and  C_28
REMARK    3  A    between atoms: C_6  and  N_8
REMARK    4  A    between atoms: C_9  and  C_21
REMARK    5  A    between atoms: C_12  and  S_13
REMARK    6  A    between atoms: S_13  and  C_14
REMARK    7  A    between atoms: C_14  and  C_16
REMARK    8  A    between atoms: C_14  and  C_17
REMARK    9  A    between atoms: N_19  and  C_20
REMARK                            x       y       z     vdW  Elec       q    Type
REMARK                         _______ _______ _______ _____ _____    ______ ____
ROOT
ATOM      1  N   UNL     1       3.726   1.631   0.162  0.00  0.00    -0.270 N 
ATOM      2  C   UNL     1       2.478   1.049   0.135  0.00  0.00    +0.169 A 
ATOM      3  N   UNL     1       2.654  -0.227  -0.119  0.00  0.00    -0.128 NA
ATOM      4  N   UNL     1       3.907  -0.481  -0.247  0.00  0.00    -0.122 NA
ATOM      5  C   UNL     1       4.611   0.616  -0.082  0.00  0.00    +0.197 A 
ENDROOT
BRANCH   1  11
ATOM      6  C   UNL     1       3.572   6.319  -1.319  0.00  0.00    +0.044 C 
ATOM      7  C   UNL     1       3.964   5.273  -0.307  0.00  0.00    -0.048 A 
ATOM      8  C   UNL     1       4.621   5.644   0.851  0.00  0.00    +0.006 A 
ATOM      9  C   UNL     1       4.982   4.687   1.782  0.00  0.00    -0.048 A 
ATOM     10  C   UNL     1       4.686   3.357   1.556  0.00  0.00    +0.029 A 
ATOM     11  C   UNL     1       4.027   2.981   0.394  0.00  0.00    +0.051 A 
ATOM     12  C   UNL     1       3.672   3.943  -0.541  0.00  0.00    +0.029 A 
ATOM     13  C   UNL     1       5.697   5.096   3.043  0.00  0.00    +0.044 C 
ENDBRANCH   1  11
BRANCH   2  14
ATOM     14  C   UNL     1       1.184   1.732   0.346  0.00  0.00    +0.020 A 
ATOM     15  C   UNL     1       1.146   2.985   0.963  0.00  0.00    +0.012 A 
ATOM     16  C   UNL     1      -0.065   3.615   1.162  0.00  0.00    +0.016 A 
ATOM     17  C   UNL     1      -1.239   3.013   0.744  0.00  0.00    +0.018 A 
ATOM     18  C   UNL     1      -1.208   1.772   0.131  0.00  0.00    +0.016 A 
ATOM     19  C   UNL     1      -0.004   1.129  -0.069  0.00  0.00    +0.012 A 
ATOM     20 BR   UNL     1      -2.894   3.887   1.015  0.00  0.00    -0.050 Br
ENDBRANCH   2  14
BRANCH   5  21
ATOM     21  S   UNL     1       6.365   0.756  -0.166  0.00  0.00    -0.073 S 
BRANCH  21  22
ATOM     22  C   UNL     1       6.801  -0.964  -0.522  0.00  0.00    +0.137 C 
ATOM     23  C   UNL     1       6.252  -1.355  -1.895  0.00  0.00    +0.029 C 
BRANCH  22  24
ATOM     24  C   UNL     1       8.300  -1.114  -0.518  0.00  0.00    +0.226 C 
ATOM     25  O   UNL     1       9.007  -0.139  -0.661  0.00  0.00    -0.275 OA
ATOM     26  N   UNL     1       8.856  -2.331  -0.356  0.00  0.00    -0.317 N 
ATOM     27  C   UNL     1      10.313  -2.477  -0.353  0.00  0.00    +0.128 C 
ATOM     28  H   UNL     1       8.214  -3.215  -0.226  0.00  0.00    +0.148 HD
ENDBRANCH  22  24
ENDBRANCH  21  22
ENDBRANCH   5  21
TORSDOF 5
