REMARK  Name = ZINC47407930
REMARK  4 active torsions:
REMARK  status: ('A' for Active; 'I' for Inactive)
REMARK    1  A    between atoms: C_3  and  C_6
REMARK    2  A    between atoms: N_8  and  C_9
REMARK    3  A    between atoms: C_12  and  S_15
REMARK    4  A    between atoms: S_15  and  C_16
REMARK                            x       y       z     vdW  Elec       q    Type
REMARK                         _______ _______ _______ _____ _____    ______ ____
ROOT
ATOM      1  C   UNL     1       5.604  -0.544   0.035  0.00  0.00    +0.034 A 
ATOM      2  C   UNL     1       6.276   0.667   0.136  0.00  0.00    +0.024 A 
ATOM      3  C   UNL     1       7.654   0.688   0.212  0.00  0.00    +0.017 A 
ATOM      4  C   UNL     1       8.369  -0.503   0.187  0.00  0.00    +0.015 A 
ATOM      5  C   UNL     1       7.697  -1.715   0.086  0.00  0.00    +0.017 A 
ATOM      6  C   UNL     1       6.318  -1.735   0.016  0.00  0.00    +0.024 A 
ENDROOT
BRANCH   1   9
ATOM      7  C   UNL     1       3.514  -1.561   0.545  0.00  0.00    +0.284 C 
ATOM      8  O   UNL     1       4.105  -2.486   1.070  0.00  0.00    -0.266 OA
ATOM      9  N   UNL     1       4.206  -0.565  -0.042  0.00  0.00    -0.279 N 
ATOM     10  H   UNL     1       3.736   0.138  -0.517  0.00  0.00    +0.155 HD
BRANCH   7  13
ATOM     11  C   UNL     1      -0.089  -2.039   0.884  0.00  0.00    +0.042 A 
ATOM     12  C   UNL     1       1.228  -2.469   1.109  0.00  0.00    +0.054 A 
ATOM     13  C   UNL     1       2.048  -1.530   0.552  0.00  0.00    +0.189 A 
ATOM     14  O   UNL     1       1.273  -0.567   0.011  0.00  0.00    -0.458 OA
ATOM     15  C   UNL     1      -0.017  -0.871   0.209  0.00  0.00    +0.196 A 
ENDBRANCH   7  13
ENDBRANCH   1   9
BRANCH   4  16
ATOM     16  S   UNL     1      10.128  -0.477   0.283  0.00  0.00    -0.061 S 
BRANCH  16  17
ATOM     17  C   UNL     1      10.465  -0.710   1.997  0.00  0.00    +0.163 A 
ATOM     18  N   UNL     1       9.633  -0.789   3.027  0.00  0.00    -0.135 NA
ATOM     19  N   UNL     1      10.049  -0.961   4.206  0.00  0.00    -0.149 NA
ATOM     20  C   UNL     1      11.332  -1.071   4.488  0.00  0.00    +0.182 A 
ATOM     21  S   UNL     1      12.028  -0.914   2.846  0.00  0.00    -0.047 S 
ENDBRANCH  16  17
ENDBRANCH   4  16
TORSDOF 4
