REMARK  Name = ZINC02301925
REMARK  5 active torsions:
REMARK  status: ('A' for Active; 'I' for Inactive)
REMARK    1  A    between atoms: C_1  and  C_2
REMARK    2  A    between atoms: C_5  and  C_29
REMARK    3  A    between atoms: C_8  and  C_10
REMARK    4  A    between atoms: C_11  and  C_23
REMARK    5  A    between atoms: C_33  and  N_35
REMARK                            x       y       z     vdW  Elec       q    Type
REMARK                         _______ _______ _______ _____ _____    ______ ____
ROOT
ATOM      1  C   UNL     1       3.661   3.122   0.066  0.00  0.00    +0.070 A 
ATOM      2  C   UNL     1       3.313   2.290  -0.996  0.00  0.00    +0.005 A 
ATOM      3  C   UNL     1       1.954   1.729  -1.026  0.00  0.00    +0.008 A 
ATOM      4  C   UNL     1       1.555   0.888  -2.070  0.00  0.00    +0.025 A 
ATOM      5  C   UNL     1       0.278   0.373  -2.081  0.00  0.00    +0.019 A 
ATOM      6  C   UNL     1      -0.611   0.680  -1.058  0.00  0.00    +0.017 A 
ATOM      7  C   UNL     1      -0.234   1.512  -0.027  0.00  0.00    +0.027 A 
ATOM      8  C   UNL     1       1.052   2.045   0.005  0.00  0.00    +0.050 A 
ATOM      9  N   UNL     1       1.435   2.874   1.040  0.00  0.00    -0.322 N 
ATOM     10  H   UNL     1       0.797   3.078   1.742  0.00  0.00    +0.169 HD
ATOM     11  C   UNL     1       2.667   3.405   1.103  0.00  0.00    +0.259 A 
ATOM     12  O   UNL     1       2.962   4.131   2.035  0.00  0.00    -0.267 OA
ATOM     13 BR   UNL     1      -0.266  -0.764  -3.490  0.00  0.00    -0.050 Br
ENDROOT
BRANCH   1  20
ATOM     14  C   UNL     1       6.459   7.773   0.255  0.00  0.00    +0.111 C 
ATOM     15  C   UNL     1       7.270   6.503   0.290  0.00  0.00    +0.229 C 
ATOM     16  O   UNL     1       8.480   6.558   0.358  0.00  0.00    -0.274 OA
ATOM     17  N   UNL     1       6.652   5.307   0.247  0.00  0.00    -0.211 N 
ATOM     18  C   UNL     1       7.288   3.980   0.273  0.00  0.00    +0.152 C 
ATOM     19  C   UNL     1       6.139   2.999   0.207  0.00  0.00    +0.027 C 
ATOM     20  C   UNL     1       5.012   3.711   0.145  0.00  0.00    +0.056 C 
ATOM     21  N   UNL     1       5.272   5.074   0.169  0.00  0.00    -0.261 N 
ATOM     22  H   UNL     1       4.594   5.768   0.137  0.00  0.00    +0.170 HD
BRANCH  18  23
ATOM     23  C   UNL     1       8.060   3.793   1.555  0.00  0.00    -0.019 A 
ATOM     24  C   UNL     1       7.539   4.257   2.748  0.00  0.00    +0.006 A 
ATOM     25  C   UNL     1       8.245   4.082   3.924  0.00  0.00    +0.003 A 
ATOM     26  C   UNL     1       9.475   3.451   3.905  0.00  0.00    +0.033 A 
ATOM     27  C   UNL     1       9.997   2.991   2.711  0.00  0.00    +0.127 A 
ATOM     28  C   UNL     1       9.289   3.162   1.535  0.00  0.00    +0.038 A 
BRANCH  27  29
ATOM     29  N   UNL     1      11.314   2.315   2.690  0.00  0.00    +0.056 N 
ATOM     30  O   UNL     1      11.774   1.910   1.638  0.00  0.00    -0.126 OA
ATOM     31  O   UNL     1      11.937   2.164   3.726  0.00  0.00    -0.126 OA
ENDBRANCH  27  29
ENDBRANCH  18  23
ENDBRANCH   1  20
BRANCH   2  32
ATOM     32  C   UNL     1       4.285   1.978  -2.065  0.00  0.00    -0.016 A 
ATOM     33  C   UNL     1       4.712   2.981  -2.939  0.00  0.00    +0.008 A 
ATOM     34  C   UNL     1       5.625   2.684  -3.930  0.00  0.00    +0.001 A 
ATOM     35  C   UNL     1       6.107   1.395  -4.067  0.00  0.00    +0.000 A 
ATOM     36  C   UNL     1       5.684   0.395  -3.208  0.00  0.00    +0.001 A 
ATOM     37  C   UNL     1       4.777   0.679  -2.209  0.00  0.00    +0.008 A 
ENDBRANCH   2  32
TORSDOF 4
