REMARK  Name = ZINC12488510
REMARK  16 active torsions:
REMARK  status: ('A' for Active; 'I' for Inactive)
REMARK    1  A    between atoms: C_1  and  C_2
REMARK    2  A    between atoms: C_2  and  C_3
REMARK    3  A    between atoms: C_3  and  C_4
REMARK    4  A    between atoms: C_3  and  C_5
REMARK    5  A    between atoms: C_3  and  N_6
REMARK    6  A    between atoms: C_7  and  C_9
REMARK    7  A    between atoms: C_9  and  C_11
REMARK    8  A    between atoms: C_9  and  N_19
REMARK    9  A    between atoms: C_15  and  O_17
REMARK   10  A    between atoms: O_17  and  C_18
REMARK   11  A    between atoms: N_19  and  C_20
REMARK   12  A    between atoms: C_24  and  C_27
REMARK   13  A    between atoms: C_25  and  C_26
REMARK   14  A    between atoms: C_28  and  C_30
REMARK   15  A    between atoms: C_30  and  N_31
REMARK   16  A    between atoms: C_32  and  C_34
REMARK                            x       y       z     vdW  Elec       q    Type
REMARK                         _______ _______ _______ _____ _____    ______ ____
ROOT
ATOM      1  N   UNL     1       4.276   2.288   0.646  0.00  0.00    -0.254 N 
ATOM      2  C   UNL     1       4.277   3.042   1.764  0.00  0.00    +0.238 C 
ATOM      3  O   UNL     1       3.782   4.149   1.748  0.00  0.00    -0.274 OA
ENDROOT
BRANCH   1   4
ATOM      4  C   UNL     1       4.847   1.011   0.664  0.00  0.00    +0.041 A 
ATOM      5  C   UNL     1       4.119  -0.071   1.143  0.00  0.00    +0.024 A 
ATOM      6  C   UNL     1       4.686  -1.330   1.160  0.00  0.00    +0.002 A 
ATOM      7  C   UNL     1       5.977  -1.515   0.700  0.00  0.00    +0.004 A 
ATOM      8  C   UNL     1       6.705  -0.440   0.223  0.00  0.00    -0.046 A 
ATOM      9  C   UNL     1       6.144   0.822   0.204  0.00  0.00    -0.026 A 
ATOM     10  C   UNL     1       6.938   1.992  -0.316  0.00  0.00    +0.046 C 
ATOM     11  C   UNL     1       8.112  -0.646  -0.276  0.00  0.00    +0.044 C 
ENDBRANCH   1   4
BRANCH   1  12
ATOM     12  C   UNL     1       3.679   2.806  -0.587  0.00  0.00    +0.197 C 
BRANCH  12  13
ATOM     13  C   UNL     1       2.210   3.061  -0.364  0.00  0.00    -0.014 A 
ATOM     14  C   UNL     1       1.447   2.142   0.332  0.00  0.00    +0.006 A 
ATOM     15  C   UNL     1       0.101   2.375   0.543  0.00  0.00    +0.004 A 
ATOM     16  C   UNL     1      -0.488   3.522   0.047  0.00  0.00    +0.045 A 
ATOM     17  C   UNL     1       0.273   4.443  -0.657  0.00  0.00    +0.120 A 
ATOM     18  C   UNL     1       1.626   4.209  -0.862  0.00  0.00    +0.051 A 
BRANCH  17  19
ATOM     19  O   UNL     1      -0.304   5.572  -1.145  0.00  0.00    -0.495 OA
ATOM     20  C   UNL     1      -1.700   5.747  -0.896  0.00  0.00    +0.277 C 
ENDBRANCH  17  19
ENDBRANCH  12  13
BRANCH  12  22
ATOM     21  N   UNL     1       4.051   2.211  -2.959  0.00  0.00    -0.308 N 
ATOM     22  C   UNL     1       3.852   1.796  -1.692  0.00  0.00    +0.239 C 
ATOM     23  O   UNL     1       3.812   0.610  -1.441  0.00  0.00    -0.273 OA
ATOM     24  H   UNL     1       4.083   3.160  -3.159  0.00  0.00    +0.149 HD
BRANCH  21  25
ATOM     25  C   UNL     1       4.219   1.229  -4.033  0.00  0.00    +0.029 C 
ATOM     26  C   UNL     1       5.437   0.352  -3.736  0.00  0.00    +0.031 C 
ATOM     27  C   UNL     1       2.969   0.353  -4.123  0.00  0.00    +0.031 C 
BRANCH  25  29
ATOM     28  C   UNL     1       4.604   0.933  -6.484  0.00  0.00    +0.006 C 
ATOM     29  C   UNL     1       4.428   1.958  -5.362  0.00  0.00    +0.022 C 
ENDBRANCH  25  29
ENDBRANCH  21  25
ENDBRANCH  12  22
ENDBRANCH   1  12
BRANCH   2  30
ATOM     30  C   UNL     1       4.892   2.509   3.032  0.00  0.00    +0.201 C 
BRANCH  30  31
ATOM     31  N   UNL     1       4.766   3.510   4.094  0.00  0.00    -0.302 N 
ATOM     32  C   UNL     1       5.248   3.251   5.325  0.00  0.00    +0.251 C 
ATOM     33  O   UNL     1       5.789   2.185   5.555  0.00  0.00    -0.270 OA
ATOM     34  H   UNL     1       4.335   4.360   3.911  0.00  0.00    +0.150 HD
BRANCH  32  35
ATOM     35  C   UNL     1       5.122   4.253   6.388  0.00  0.00    +0.074 A 
ATOM     36  C   UNL     1       5.541   4.184   7.707  0.00  0.00    +0.021 A 
ATOM     37  C   UNL     1       5.297   5.279   8.498  0.00  0.00    +0.008 A 
ATOM     38  C   UNL     1       4.661   6.355   7.964  0.00  0.00    +0.046 A 
ATOM     39  S   UNL     1       4.383   5.875   6.322  0.00  0.00    -0.092 S 
ENDBRANCH  32  35
ENDBRANCH  30  31
ENDBRANCH   2  30
TORSDOF 10
