REMARK  Name = ZINC39527724
REMARK  8 active torsions:
REMARK  status: ('A' for Active; 'I' for Inactive)
REMARK    1  A    between atoms: C_1  and  C_2
REMARK    2  A    between atoms: C_2  and  C_3
REMARK    3  A    between atoms: C_2  and  S_4
REMARK    4  A    between atoms: S_4  and  N_7
REMARK    5  A    between atoms: C_8  and  C_22
REMARK    6  A    between atoms: C_17  and  O_20
REMARK    7  A    between atoms: O_20  and  C_21
REMARK    8  A    between atoms: C_27  and  O_28
REMARK                            x       y       z     vdW  Elec       q    Type
REMARK                         _______ _______ _______ _____ _____    ______ ____
ROOT
ATOM      1  N   UNL     1      -2.783  -0.382   0.297  0.00  0.00    -0.167 NA
ATOM      2  C   UNL     1      -3.174  -1.204   1.450  0.00  0.00    +0.113 C 
ATOM      3  C   UNL     1      -4.675  -1.495   1.361  0.00  0.00    +0.025 C 
ATOM      4  C   UNL     1      -5.441  -0.175   1.244  0.00  0.00    +0.004 C 
ATOM      5  C   UNL     1      -5.014   0.553  -0.034  0.00  0.00    +0.024 C 
ATOM      6  C   UNL     1      -3.513   0.867   0.041  0.00  0.00    +0.046 C 
ATOM      7  C   UNL     1      -3.247   1.854   1.178  0.00  0.00    +0.024 C 
ATOM      8  C   UNL     1      -1.748   2.153   1.254  0.00  0.00    +0.004 C 
ATOM      9  C   UNL     1      -1.281   2.759  -0.071  0.00  0.00    +0.032 C 
ATOM     10  C   UNL     1      -1.546   1.768  -1.207  0.00  0.00    +0.120 C 
ATOM     11  C   UNL     1      -3.045   1.469  -1.284  0.00  0.00    +0.055 C 
ENDROOT
BRANCH   2  12
ATOM     12  C   UNL     1      -2.404  -2.500   1.431  0.00  0.00    +0.013 A 
ATOM     13  C   UNL     1      -2.405  -3.288   0.296  0.00  0.00    +0.009 A 
ATOM     14  C   UNL     1      -1.699  -4.476   0.278  0.00  0.00    +0.001 A 
ATOM     15  C   UNL     1      -0.990  -4.879   1.394  0.00  0.00    +0.004 A 
ATOM     16  C   UNL     1      -0.985  -4.095   2.531  0.00  0.00    +0.046 A 
ATOM     17  C   UNL     1      -1.688  -2.899   2.550  0.00  0.00    +0.122 A 
BRANCH  17  18
ATOM     18  O   UNL     1      -1.681  -2.123   3.666  0.00  0.00    -0.506 OA
ATOM     19  H   UNL     1      -2.391  -2.325   4.290  0.00  0.00    +0.292 HD
ENDBRANCH  17  18
ENDBRANCH   2  12
BRANCH   1  20
ATOM     20  S   UNL     1      -1.538  -0.849  -0.691  0.00  0.00    +0.035 S 
ATOM     21  O   UNL     1      -1.567   0.073  -1.772  0.00  0.00    -0.158 OA
ATOM     22  O   UNL     1      -1.754  -2.236  -0.915  0.00  0.00    -0.158 OA
BRANCH  20  24
ATOM     23  C   UNL     1      -0.428  -0.326   1.754  0.00  0.00    +0.033 C 
ATOM     24  C   UNL     1      -0.039  -0.603   0.300  0.00  0.00    +0.142 C 
ATOM     25  C   UNL     1       0.828  -1.862   0.235  0.00  0.00    +0.033 C 
ENDBRANCH  20  24
ENDBRANCH   1  20
BRANCH  10  26
ATOM     26  O   UNL     1      -1.110   2.334  -2.445  0.00  0.00    -0.380 OA
ATOM     27  C   UNL     1       0.251   2.043  -2.769  0.00  0.00    +0.194 C 
ENDBRANCH  10  26
TORSDOF 5
