REMARK  Name = ZINC52095064
REMARK  3 active torsions:
REMARK  status: ('A' for Active; 'I' for Inactive)
REMARK    1  A    between atoms: C_1  and  C_2
REMARK    2  A    between atoms: C_5  and  C_7
REMARK    3  A    between atoms: C_7  and  C_9
REMARK                            x       y       z     vdW  Elec       q    Type
REMARK                         _______ _______ _______ _____ _____    ______ ____
ROOT
ATOM      1  C   UNL     1       1.789  -4.325   1.256  0.00  0.00    -0.009 A 
ATOM      2  C   UNL     1       1.118  -4.840   2.348  0.00  0.00    +0.034 A 
ATOM      3  C   UNL     1       1.804  -5.082   3.528  0.00  0.00    +0.067 A 
ATOM      4  C   UNL     1       3.171  -4.806   3.608  0.00  0.00    +0.068 A 
ATOM      5  C   UNL     1       3.836  -4.290   2.507  0.00  0.00    +0.043 A 
ATOM      6  C   UNL     1       3.145  -4.056   1.333  0.00  0.00    +0.025 A 
ATOM      7 BR   UNL     1       4.054  -3.360  -0.172  0.00  0.00    -0.050 Br
ATOM      8  N   UNL     1       3.576  -5.147   4.896  0.00  0.00    -0.306 N 
ATOM      9  H   UNL     1       4.476  -5.065   5.249  0.00  0.00    +0.170 HD
ATOM     10  C   UNL     1       2.505  -5.610   5.569  0.00  0.00    +0.325 A 
ATOM     11  O   UNL     1       2.516  -5.993   6.724  0.00  0.00    -0.247 OA
ATOM     12  N   UNL     1       1.422  -5.583   4.771  0.00  0.00    -0.306 N 
ATOM     13  H   UNL     1       0.527  -5.865   5.019  0.00  0.00    +0.170 HD
ENDROOT
BRANCH   1  14
ATOM     14  C   UNL     1       1.043  -4.062  -0.027  0.00  0.00    +0.148 C 
ATOM     15 CL   UNL     1      -0.697  -3.763   0.340  0.00  0.00    -0.111 Cl
BRANCH  14  20
ATOM     16  C   UNL     1       0.992  -9.033  -2.743  0.00  0.00    +0.051 C 
ATOM     17  C   UNL     1       1.143  -7.625  -2.228  0.00  0.00    -0.013 A 
ATOM     18  C   UNL     1       1.769  -6.569  -2.802  0.00  0.00    +0.011 A 
ATOM     19  C   UNL     1       1.781  -5.355  -2.139  0.00  0.00    +0.013 A 
ATOM     20  C   UNL     1       1.167  -5.258  -0.935  0.00  0.00    +0.012 A 
ATOM     21  S   UNL     1       0.537  -6.913  -0.707  0.00  0.00    -0.097 S 
ENDBRANCH  14  20
ENDBRANCH   1  14
TORSDOF 2
