REMARK  Name = ZINC29793020
REMARK  8 active torsions:
REMARK  status: ('A' for Active; 'I' for Inactive)
REMARK    1  A    between atoms: C_1  and  C_2
REMARK    2  A    between atoms: C_5  and  C_8
REMARK    3  A    between atoms: C_8  and  C_9
REMARK    4  A    between atoms: C_15  and  C_17
REMARK    5  A    between atoms: C_17  and  C_19
REMARK    6  A    between atoms: C_17  and  N_30
REMARK    7  A    between atoms: C_19  and  C_20
REMARK    8  A    between atoms: C_31  and  C_33
REMARK                            x       y       z     vdW  Elec       q    Type
REMARK                         _______ _______ _______ _____ _____    ______ ____
ROOT
ATOM      1  C   UNL     1      10.113  -1.728   1.288  0.00  0.00    +0.015 A 
ATOM      2  C   UNL     1       9.796  -0.413   1.369  0.00  0.00    +0.124 A 
ATOM      3  N   UNL     1       8.522  -0.073   1.383  0.00  0.00    -0.233 NA
ATOM      4  C   UNL     1       7.571  -0.985   1.321  0.00  0.00    +0.165 A 
ATOM      5  S   UNL     1       8.484  -2.460   1.241  0.00  0.00    -0.057 S 
ATOM      6  N   UNL     1       6.192  -0.810   1.324  0.00  0.00    -0.263 N 
ATOM      7  C   UNL     1       5.670   0.430   1.398  0.00  0.00    +0.239 C 
ATOM      8  O   UNL     1       6.404   1.394   1.462  0.00  0.00    -0.273 OA
ATOM      9  H   UNL     1       5.527  -1.684   1.265  0.00  0.00    +0.157 HD
ENDROOT
BRANCH   1  10
ATOM     10  C   UNL     1      11.466  -2.391   1.255  0.00  0.00    +0.079 C 
BRANCH  10  15
ATOM     11  C   UNL     1      13.161  -3.580   6.650  0.00  0.00    +0.044 C 
ATOM     12  C   UNL     1      12.720  -3.271   5.243  0.00  0.00    -0.050 A 
ATOM     13  C   UNL     1      11.990  -4.201   4.527  0.00  0.00    +0.003 A 
ATOM     14  C   UNL     1      11.584  -3.916   3.236  0.00  0.00    +0.004 A 
ATOM     15  C   UNL     1      11.908  -2.701   2.662  0.00  0.00    -0.042 A 
ATOM     16  C   UNL     1      12.643  -1.773   3.376  0.00  0.00    +0.004 A 
ATOM     17  C   UNL     1      13.045  -2.056   4.668  0.00  0.00    +0.003 A 
ENDBRANCH  10  15
ENDBRANCH   1  10
BRANCH   7  18
ATOM     18  C   UNL     1       4.175   0.620   1.402  0.00  0.00    +0.163 C 
BRANCH  18  19
ATOM     19  N   UNL     1       3.851   1.937   1.955  0.00  0.00    -0.304 N 
ATOM     20  C   UNL     1       4.319   3.052   1.360  0.00  0.00    +0.211 C 
ATOM     21  O   UNL     1       5.009   2.965   0.366  0.00  0.00    -0.276 OA
ATOM     22  C   UNL     1       3.986   4.407   1.930  0.00  0.00    +0.109 C 
ATOM     23  H   UNL     1       3.226   2.016   2.857  0.00  0.00    +0.149 HD
ENDBRANCH  18  19
BRANCH  18  24
ATOM     24  C   UNL     1       3.646   0.524  -0.031  0.00  0.00    +0.069 C 
BRANCH  24  25
ATOM     25  C   UNL     1       2.140   0.591  -0.015  0.00  0.00    -0.020 A 
ATOM     26  C   UNL     1       1.295  -0.452  -0.013  0.00  0.00    +0.087 A 
ATOM     27  N   UNL     1       0.002  -0.004   0.002  0.00  0.00    -0.360 N 
ATOM     28  H   UNL     1      -0.829  -0.724   0.006  0.00  0.00    +0.165 HD
ATOM     29  C   UNL     1      -0.017   1.373   0.010  0.00  0.00    +0.047 A 
ATOM     30  C   UNL     1       1.322   1.806  -0.001  0.00  0.00    +0.003 A 
ATOM     31  C   UNL     1       1.612   3.171   0.004  0.00  0.00    +0.010 A 
ATOM     32  C   UNL     1       0.593   4.082   0.019  0.00  0.00    +0.001 A 
ATOM     33  C   UNL     1      -0.729   3.659   0.029  0.00  0.00    +0.002 A 
ATOM     34  C   UNL     1      -1.038   2.317   0.029  0.00  0.00    +0.026 A 
ENDBRANCH  24  25
ENDBRANCH  18  24
ENDBRANCH   7  18
TORSDOF 6
