REMARK  Name = ZINC35800723
REMARK  12 active torsions:
REMARK  status: ('A' for Active; 'I' for Inactive)
REMARK    1  A    between atoms: C_1  and  C_2
REMARK    2  A    between atoms: C_4  and  C_11
REMARK    3  A    between atoms: C_5  and  C_10
REMARK    4  A    between atoms: N_6  and  C_7
REMARK    5  A    between atoms: C_7  and  C_8
REMARK    6  A    between atoms: C_11  and  C_13
REMARK    7  A    between atoms: C_13  and  O_14
REMARK    8  A    between atoms: O_14  and  C_15
REMARK    9  A    between atoms: C_15  and  C_17
REMARK   10  A    between atoms: C_22  and  N_23
REMARK   11  A    between atoms: C_24  and  C_26
REMARK   12  A    between atoms: C_29  and  N_33
REMARK                            x       y       z     vdW  Elec       q    Type
REMARK                         _______ _______ _______ _____ _____    ______ ____
ROOT
ATOM      1  C   UNL     1       0.068  -5.978  -5.534  0.00  0.00    +0.080 A 
ATOM      2  C   UNL     1       0.192  -7.147  -4.778  0.00  0.00    +0.017 A 
ATOM      3  C   UNL     1       0.209  -8.373  -5.405  0.00  0.00    +0.001 A 
ATOM      4  C   UNL     1       0.105  -8.455  -6.785  0.00  0.00    +0.002 A 
ATOM      5  C   UNL     1      -0.017  -7.310  -7.546  0.00  0.00    +0.024 A 
ATOM      6  C   UNL     1      -0.043  -6.065  -6.931  0.00  0.00    +0.048 A 
ENDROOT
BRANCH   6   7
ATOM      7  N   UNL     1      -0.173  -4.910  -7.695  0.00  0.00    -0.281 N 
ATOM      8  C   UNL     1      -0.932  -4.920  -8.809  0.00  0.00    +0.250 C 
ATOM      9  O   UNL     1      -1.580  -5.908  -9.093  0.00  0.00    -0.270 OA
ATOM     10  H   UNL     1       0.284  -4.097  -7.427  0.00  0.00    +0.155 HD
BRANCH   8  11
ATOM     11  C   UNL     1      -0.977  -3.730  -9.683  0.00  0.00    +0.055 A 
ATOM     12  C   UNL     1      -0.229  -2.595  -9.363  0.00  0.00    +0.017 A 
ATOM     13  C   UNL     1      -0.275  -1.488 -10.183  0.00  0.00    +0.033 A 
ATOM     14  C   UNL     1      -1.059  -1.499 -11.324  0.00  0.00    +0.128 A 
ATOM     15  C   UNL     1      -1.803  -2.619 -11.648  0.00  0.00    +0.053 A 
ATOM     16  C   UNL     1      -1.762  -3.737 -10.838  0.00  0.00    +0.055 A 
ATOM     17 CL   UNL     1      -2.691  -5.145 -11.251  0.00  0.00    -0.083 Cl
BRANCH  14  18
ATOM     18  N   UNL     1      -1.103  -0.307 -12.200  0.00  0.00    +0.056 N 
ATOM     19  O   UNL     1      -0.454   0.674 -11.918  0.00  0.00    -0.126 OA
ATOM     20  O   UNL     1      -1.787  -0.313 -13.196  0.00  0.00    -0.126 OA
ENDBRANCH  14  18
ENDBRANCH   8  11
ENDBRANCH   6   7
BRANCH   1  21
ATOM     21  C   UNL     1       0.048  -4.663  -4.869  0.00  0.00    +0.341 C 
ATOM     22  O   UNL     1       0.026  -3.646  -5.534  0.00  0.00    -0.245 OA
BRANCH  21  23
ATOM     23  O   UNL     1       0.054  -4.588  -3.524  0.00  0.00    -0.453 OA
BRANCH  23  24
ATOM     24  C   UNL     1       0.034  -3.281  -2.947  0.00  0.00    +0.311 C 
BRANCH  24  25
ATOM     25  C   UNL     1       0.044  -3.395  -1.444  0.00  0.00    +0.202 C 
ATOM     26  O   UNL     1       0.067  -4.489  -0.919  0.00  0.00    -0.288 OA
BRANCH  25  30
ATOM     27  C   UNL     1      -0.034   1.482   0.028  0.00  0.00    +0.063 C 
ATOM     28  C   UNL     1      -0.008  -0.025   0.015  0.00  0.00    +0.017 A 
ATOM     29  C   UNL     1      -0.001  -0.794  -1.086  0.00  0.00    +0.034 A 
ATOM     30  C   UNL     1       0.027  -2.186  -0.618  0.00  0.00    +0.042 A 
ATOM     31  C   UNL     1       0.034  -2.121   0.763  0.00  0.00    +0.027 A 
ATOM     32  N   UNL     1       0.018  -0.824   1.121  0.00  0.00    -0.344 N 
ATOM     33  C   UNL     1       0.061  -3.297   1.704  0.00  0.00    +0.064 C 
BRANCH  32  34
ATOM     34  C   UNL     1       0.024  -0.339   2.503  0.00  0.00    +0.148 C 
BRANCH  34  35
ATOM     35  C   UNL     1      -1.395  -0.199   2.992  0.00  0.00    -0.013 C 
ATOM     36  C   UNL     1      -1.772  -0.808   4.089  0.00  0.00    +0.005 C 
ENDBRANCH  34  35
ENDBRANCH  32  34
ENDBRANCH  25  30
ENDBRANCH  24  25
ENDBRANCH  23  24
ENDBRANCH  21  23
ENDBRANCH   1  21
TORSDOF 10
