REMARK  Name = ZINC67486764
REMARK  8 active torsions:
REMARK  status: ('A' for Active; 'I' for Inactive)
REMARK    1  A    between atoms: C_1  and  C_2
REMARK    2  A    between atoms: C_2  and  C_4
REMARK    3  A    between atoms: C_2  and  N_10
REMARK    4  A    between atoms: N_6  and  C_7
REMARK    5  A    between atoms: C_7  and  C_8
REMARK    6  A    between atoms: C_7  and  C_9
REMARK    7  A    between atoms: C_18  and  N_19
REMARK    8  A    between atoms: N_22  and  C_23
REMARK                            x       y       z     vdW  Elec       q    Type
REMARK                         _______ _______ _______ _____ _____    ______ ____
ROOT
ATOM      1  N   UNL     1       1.041  -0.074   1.441  0.00  0.00    +0.390 N 
ATOM      2  C   UNL     1       0.868  -1.534   1.412  0.00  0.00    -0.073 C 
ATOM      3  C   UNL     1       1.844  -2.162   2.407  0.00  0.00    +0.019 C 
ATOM      4  C   UNL     1       1.713  -1.483   3.747  0.00  0.00    -0.027 A 
ATOM      5  C   UNL     1       1.083  -0.265   3.877  0.00  0.00    -0.059 A 
ATOM      6  C   UNL     1       0.986   0.330   5.127  0.00  0.00    +0.002 A 
ATOM      7  C   UNL     1       1.513  -0.292   6.242  0.00  0.00    +0.002 A 
ATOM      8  C   UNL     1       2.143  -1.514   6.117  0.00  0.00    +0.023 A 
ATOM      9  C   UNL     1       2.244  -2.112   4.869  0.00  0.00    +0.038 A 
ATOM     10  C   UNL     1       0.484   0.448   2.693  0.00  0.00    -0.042 C 
ATOM     11  H   UNL     1       2.023   0.152   1.389  0.00  0.00    -0.080 HD
ENDROOT
BRANCH   9  12
ATOM     12  N   UNL     1       2.883  -3.351   4.738  0.00  0.00    -0.269 N 
ATOM     13  C   UNL     1       3.004  -4.162   5.807  0.00  0.00    +0.308 C 
ATOM     14  O   UNL     1       2.469  -3.868   6.858  0.00  0.00    -0.252 OA
ATOM     15  N   UNL     1       3.719  -5.301   5.711  0.00  0.00    -0.269 N 
ATOM     16  H   UNL     1       3.237  -3.625   3.878  0.00  0.00    +0.156 HD
ATOM     17  H   UNL     1       4.206  -5.500   4.896  0.00  0.00    +0.156 HD
BRANCH  15  18
ATOM     18  C   UNL     1       3.760  -6.196   6.788  0.00  0.00    +0.035 A 
ATOM     19  C   UNL     1       2.650  -6.346   7.609  0.00  0.00    +0.026 A 
ATOM     20  C   UNL     1       2.691  -7.229   8.670  0.00  0.00    +0.040 A 
ATOM     21  C   UNL     1       3.839  -7.963   8.916  0.00  0.00    +0.124 A 
ATOM     22  C   UNL     1       4.947  -7.815   8.099  0.00  0.00    +0.040 A 
ATOM     23  C   UNL     1       4.907  -6.937   7.033  0.00  0.00    +0.026 A 
ATOM     24  F   UNL     1       3.878  -8.826   9.955  0.00  0.00    -0.205 F 
ENDBRANCH  15  18
ENDBRANCH   9  12
BRANCH   1  26
ATOM     25  C   UNL     1       0.509   2.048   0.341  0.00  0.00    -0.004 C 
ATOM     26  C   UNL     1       0.337   0.528   0.301  0.00  0.00    +0.017 C 
BRANCH  26  27
ATOM     27  C   UNL     1       0.911  -0.009  -0.984  0.00  0.00    +0.199 C 
ATOM     28  O   UNL     1       1.817  -0.815  -0.954  0.00  0.00    -0.278 OA
ATOM     29  N   UNL     1       0.417   0.405  -2.168  0.00  0.00    -0.314 N 
ATOM     30  H   UNL     1      -0.308   1.049  -2.192  0.00  0.00    +0.149 HD
BRANCH  29  31
ATOM     31  C   UNL     1       0.975  -0.118  -3.418  0.00  0.00    +0.067 C 
ATOM     32  C   UNL     1       0.295  -1.444  -3.765  0.00  0.00    +0.027 C 
ATOM     33  C   UNL     1       0.734   0.889  -4.544  0.00  0.00    +0.027 C 
ENDBRANCH  29  31
ENDBRANCH  26  27
ENDBRANCH   1  26
TORSDOF 5
