REMARK  Name = ZINC12293655
REMARK  6 active torsions:
REMARK  status: ('A' for Active; 'I' for Inactive)
REMARK    1  A    between atoms: C_6  and  C_7
REMARK    2  A    between atoms: C_7  and  C_9
REMARK    3  A    between atoms: C_7  and  O_27
REMARK    4  A    between atoms: C_9  and  N_51
REMARK    5  A    between atoms: C_16  and  O_26
REMARK    6  A    between atoms: C_20  and  O_25
REMARK                            x       y       z     vdW  Elec       q    Type
REMARK                         _______ _______ _______ _____ _____    ______ ____
ROOT
ATOM      1  C   UNL     1      -0.199   1.267   2.411  0.00  0.00    -0.075 C 
ATOM      2  C   UNL     1      -1.063   1.608   3.627  0.00  0.00    +0.029 C 
ATOM      3  C   UNL     1      -1.071   3.124   3.833  0.00  0.00    +0.110 C 
ATOM      4  C   UNL     1      -1.583   3.808   2.564  0.00  0.00    +0.029 C 
ATOM      5  C   UNL     1      -0.703   3.401   1.380  0.00  0.00    -0.075 C 
ATOM      6  C   UNL     1      -1.990   3.475   5.009  0.00  0.00    +0.084 C 
ATOM      7  C   UNL     1      -1.520   2.690   6.237  0.00  0.00    +0.152 C 
ATOM      8  C   UNL     1      -0.028   2.838   6.394  0.00  0.00    +0.026 A 
ATOM      9  C   UNL     1       0.545   2.534   7.618  0.00  0.00    +0.055 A 
ATOM     10  C   UNL     1       1.914   2.652   7.797  0.00  0.00    +0.117 A 
ATOM     11  C   UNL     1       2.714   3.078   6.746  0.00  0.00    +0.049 A 
ATOM     12  C   UNL     1       2.143   3.383   5.528  0.00  0.00    +0.049 A 
ATOM     13  C   UNL     1       0.769   3.265   5.347  0.00  0.00    +0.127 A 
ATOM     14  O   UNL     1       0.247   3.579   4.131  0.00  0.00    -0.485 OA
ATOM     15  N   UNL     1      -0.766   1.933   1.218  0.00  0.00    +0.382 N 
ATOM     16  H   UNL     1      -1.747   1.651   1.114  0.00  0.00    -0.082 HD
ENDROOT
BRANCH  10  17
ATOM     17  O   UNL     1       2.472   2.351   9.000  0.00  0.00    -0.507 OA
ATOM     18  H   UNL     1       2.527   3.103   9.606  0.00  0.00    +0.292 HD
ENDBRANCH  10  17
BRANCH   7  19
ATOM     19  O   UNL     1      -2.174   3.196   7.402  0.00  0.00    -0.387 OA
ATOM     20  H   UNL     1      -1.927   2.743   8.220  0.00  0.00    +0.210 HD
ENDBRANCH   7  19
BRANCH  15  21
ATOM     21  C   UNL     1      -0.019   1.526   0.010  0.00  0.00    -0.042 C 
BRANCH  21  22
ATOM     22  C   UNL     1       0.007  -0.002  -0.069  0.00  0.00    +0.128 C 
BRANCH  22  28
ATOM     23  C   UNL     1       2.037  -0.836  -1.270  0.00  0.00    +0.007 A 
ATOM     24  C   UNL     1       2.691  -1.228  -2.424  0.00  0.00    +0.022 A 
ATOM     25  C   UNL     1       2.024  -1.212  -3.636  0.00  0.00    +0.059 A 
ATOM     26  C   UNL     1       0.702  -0.803  -3.692  0.00  0.00    +0.060 A 
ATOM     27  C   UNL     1       0.048  -0.416  -2.537  0.00  0.00    +0.027 A 
ATOM     28  C   UNL     1       0.718  -0.428  -1.327  0.00  0.00    -0.019 A 
ATOM     29 CL   UNL     1      -0.137  -0.783  -5.213  0.00  0.00    -0.082 Cl
ATOM     30 CL   UNL     1       2.844  -1.704  -5.085  0.00  0.00    -0.082 Cl
ENDBRANCH  22  28
BRANCH  22  31
ATOM     31  O   UNL     1      -1.332  -0.500  -0.086  0.00  0.00    -0.389 OA
ATOM     32  H   UNL     1      -1.860  -0.185  -0.833  0.00  0.00    +0.210 HD
ENDBRANCH  22  31
ENDBRANCH  21  22
ENDBRANCH  15  21
TORSDOF 6
