REMARK  Name = ZINC36340073
REMARK  16 active torsions:
REMARK  status: ('A' for Active; 'I' for Inactive)
REMARK    1  A    between atoms: C_1  and  C_2
REMARK    2  A    between atoms: C_2  and  C_3
REMARK    3  A    between atoms: C_3  and  C_4
REMARK    4  A    between atoms: C_4  and  O_5
REMARK    5  A    between atoms: O_5  and  C_6
REMARK    6  A    between atoms: C_6  and  C_7
REMARK    7  A    between atoms: C_7  and  C_9
REMARK    8  A    between atoms: C_7  and  O_39
REMARK    9  A    between atoms: C_9  and  N_10
REMARK   10  A    between atoms: C_17  and  C_31
REMARK   11  A    between atoms: C_18  and  C_28
REMARK   12  A    between atoms: C_20  and  C_22
REMARK   13  A    between atoms: C_28  and  O_29
REMARK   14  A    between atoms: O_29  and  C_30
REMARK   15  A    between atoms: C_31  and  C_32
REMARK   16  A    between atoms: C_35  and  C_38
REMARK                            x       y       z     vdW  Elec       q    Type
REMARK                         _______ _______ _______ _____ _____    ______ ____
ROOT
ATOM      1  N   UNL     1       3.571  -5.244  -5.505  0.00  0.00    -0.297 NA
ATOM      2  C   UNL     1       4.210  -5.101  -6.819  0.00  0.00    +0.103 C 
ATOM      3  C   UNL     1       4.435  -6.489  -7.429  0.00  0.00    +0.122 C 
ATOM      4  N   UNL     1       5.179  -7.309  -6.461  0.00  0.00    -0.312 N 
ATOM      5  C   UNL     1       4.674  -7.389  -5.082  0.00  0.00    +0.122 C 
ATOM      6  C   UNL     1       4.440  -5.966  -4.566  0.00  0.00    +0.103 C 
ATOM      7  C   UNL     1       6.327  -7.988  -6.839  0.00  0.00    +0.129 A 
ATOM      8  C   UNL     1       6.276  -9.351  -7.142  0.00  0.00    +0.020 A 
ATOM      9  C   UNL     1       7.445  -9.987  -7.514  0.00  0.00    +0.076 A 
ATOM     10  N   UNL     1       8.571  -9.293  -7.572  0.00  0.00    -0.229 NA
ATOM     11  C   UNL     1       8.590  -8.000  -7.278  0.00  0.00    +0.162 A 
ATOM     12  N   UNL     1       7.489  -7.351  -6.923  0.00  0.00    -0.212 NA
ENDROOT
BRANCH  11  13
ATOM     13  C   UNL     1       9.873  -7.260  -7.355  0.00  0.00    +0.019 A 
ATOM     14  C   UNL     1       9.916  -5.902  -7.045  0.00  0.00    +0.011 A 
ATOM     15  C   UNL     1      11.113  -5.218  -7.118  0.00  0.00    +0.001 A 
ATOM     16  C   UNL     1      12.268  -5.878  -7.498  0.00  0.00    +0.000 A 
ATOM     17  C   UNL     1      12.230  -7.226  -7.807  0.00  0.00    +0.001 A 
ATOM     18  C   UNL     1      11.040  -7.921  -7.732  0.00  0.00    +0.011 A 
ENDBRANCH  11  13
BRANCH   1  19
ATOM     19  C   UNL     1       3.183  -3.935  -4.963  0.00  0.00    +0.118 C 
BRANCH  19  20
ATOM     20  C   UNL     1       2.091  -3.322  -5.842  0.00  0.00    +0.154 C 
BRANCH  20  21
ATOM     21  O   UNL     1       0.912  -4.127  -5.767  0.00  0.00    -0.388 OA
ATOM     22  H   UNL     1       0.548  -4.209  -4.875  0.00  0.00    +0.210 HD
ENDBRANCH  20  21
BRANCH  20  23
ATOM     23  C   UNL     1       1.775  -1.908  -5.351  0.00  0.00    +0.192 C 
BRANCH  23  24
ATOM     24  O   UNL     1       0.841  -1.293  -6.240  0.00  0.00    -0.377 OA
BRANCH  24  25
ATOM     25  C   UNL     1       0.476   0.038  -5.871  0.00  0.00    +0.160 C 
BRANCH  25  26
ATOM     26  C   UNL     1      -0.522   0.595  -6.888  0.00  0.00    +0.028 C 
BRANCH  26  28
ATOM     27  C   UNL     1      -1.911   2.577  -7.509  0.00  0.00    +0.004 C 
ATOM     28  C   UNL     1      -0.912   2.020  -6.492  0.00  0.00    -0.001 C 
ENDBRANCH  26  28
ENDBRANCH  25  26
ENDBRANCH  24  25
ENDBRANCH  23  24
ENDBRANCH  20  23
ENDBRANCH  19  20
ENDBRANCH   1  19
BRANCH   9  29
ATOM     29  C   UNL     1       7.438 -11.457  -7.850  0.00  0.00    +0.215 C 
BRANCH  29  30
ATOM     30  O   UNL     1       7.187 -11.625  -9.246  0.00  0.00    -0.377 OA
ATOM     31  C   UNL     1       7.160 -12.989  -9.672  0.00  0.00    +0.194 C 
ENDBRANCH  29  30
ENDBRANCH   9  29
BRANCH   8  32
ATOM     32  C   UNL     1       4.976 -10.110  -7.065  0.00  0.00    +0.075 C 
BRANCH  32  33
ATOM     33  C   UNL     1       4.372 -10.212  -8.442  0.00  0.00    -0.043 A 
ATOM     34  C   UNL     1       3.625  -9.165  -8.948  0.00  0.00    +0.004 A 
ATOM     35  C   UNL     1       3.071  -9.259 -10.211  0.00  0.00    +0.003 A 
ATOM     36  C   UNL     1       3.264 -10.399 -10.968  0.00  0.00    -0.050 A 
ATOM     37  C   UNL     1       4.011 -11.446 -10.462  0.00  0.00    +0.003 A 
ATOM     38  C   UNL     1       4.569 -11.351  -9.201  0.00  0.00    +0.004 A 
ATOM     39  C   UNL     1       2.659 -10.502 -12.344  0.00  0.00    +0.044 C 
ENDBRANCH  32  33
ENDBRANCH   8  32
TORSDOF 13
