REMARK  Name = ZINC03308574
REMARK  12 active torsions:
REMARK  status: ('A' for Active; 'I' for Inactive)
REMARK    1  A    between atoms: C_1  and  C_2
REMARK    2  A    between atoms: C_4  and  C_15
REMARK    3  A    between atoms: C_5  and  C_14
REMARK    4  A    between atoms: N_6  and  C_7
REMARK    5  A    between atoms: C_7  and  C_8
REMARK    6  A    between atoms: C_15  and  C_17
REMARK    7  A    between atoms: C_17  and  O_18
REMARK    8  A    between atoms: O_18  and  C_19
REMARK    9  A    between atoms: C_19  and  C_21
REMARK   10  A    between atoms: C_23  and  O_29
REMARK   11  A    between atoms: C_24  and  O_28
REMARK   12  A    between atoms: O_29  and  C_30
REMARK                            x       y       z     vdW  Elec       q    Type
REMARK                         _______ _______ _______ _____ _____    ______ ____
ROOT
ATOM      1  C   UNL     1      -0.742   1.585  -1.213  0.00  0.00    +0.202 C 
ATOM      2  O   UNL     1      -1.736   2.269  -1.088  0.00  0.00    -0.288 OA
ENDROOT
BRANCH   1   6
ATOM      3  C   UNL     1       2.048  -0.337  -5.019  0.00  0.00    +0.063 C 
ATOM      4  C   UNL     1       0.996   0.388  -4.220  0.00  0.00    +0.017 A 
ATOM      5  C   UNL     1       0.930   0.434  -2.879  0.00  0.00    +0.034 A 
ATOM      6  C   UNL     1      -0.249   1.245  -2.550  0.00  0.00    +0.042 A 
ATOM      7  C   UNL     1      -0.802   1.617  -3.760  0.00  0.00    +0.027 A 
ATOM      8  N   UNL     1      -0.043   1.102  -4.744  0.00  0.00    -0.345 N 
ATOM      9  C   UNL     1      -2.039   2.458  -3.947  0.00  0.00    +0.064 C 
BRANCH   8  10
ATOM     10  C   UNL     1      -0.299   1.276  -6.176  0.00  0.00    +0.153 C 
BRANCH  10  11
ATOM     11  C   UNL     1      -1.206   0.149  -6.673  0.00  0.00    +0.138 C 
ATOM     12  C   UNL     1      -1.387   0.259  -8.203  0.00  0.00    +0.035 C 
ATOM     13  C   UNL     1      -2.884  -0.111  -8.384  0.00  0.00    +0.031 C 
ATOM     14  C   UNL     1      -3.494   0.483  -7.090  0.00  0.00    +0.160 C 
ATOM     15  O   UNL     1      -2.501   0.267  -6.074  0.00  0.00    -0.375 OA
ENDBRANCH  10  11
ENDBRANCH   8  10
ENDBRANCH   1   6
BRANCH   1  16
ATOM     16  C   UNL     1      -0.013   1.086   0.008  0.00  0.00    +0.311 C 
BRANCH  16  17
ATOM     17  O   UNL     1      -0.692   1.554   1.203  0.00  0.00    -0.453 OA
BRANCH  17  18
ATOM     18  C   UNL     1      -0.164   1.193   2.388  0.00  0.00    +0.340 C 
ATOM     19  O   UNL     1       0.837   0.505   2.423  0.00  0.00    -0.245 OA
BRANCH  18  20
ATOM     20  C   UNL     1      -0.801   1.632   3.644  0.00  0.00    +0.064 A 
ATOM     21  C   UNL     1      -0.254   1.258   4.875  0.00  0.00    +0.064 A 
ATOM     22  C   UNL     1      -0.854   1.671   6.048  0.00  0.00    +0.163 A 
ATOM     23  C   UNL     1      -2.002   2.461   6.003  0.00  0.00    +0.173 A 
ATOM     24  C   UNL     1      -2.546   2.833   4.781  0.00  0.00    +0.064 A 
ATOM     25  C   UNL     1      -1.949   2.427   3.606  0.00  0.00    +0.034 A 
ATOM     26 BR   UNL     1      -4.104   3.904   4.727  0.00  0.00    -0.046 Br
BRANCH  23  27
ATOM     27  O   UNL     1      -2.590   2.868   7.158  0.00  0.00    -0.503 OA
ATOM     28  H   UNL     1      -2.260   3.713   7.491  0.00  0.00    +0.292 HD
ENDBRANCH  23  27
BRANCH  22  29
ATOM     29  O   UNL     1      -0.324   1.309   7.247  0.00  0.00    -0.491 OA
ATOM     30  C   UNL     1       0.853   0.500   7.218  0.00  0.00    +0.277 C 
ENDBRANCH  22  29
ENDBRANCH  18  20
ENDBRANCH  17  18
ENDBRANCH  16  17
ENDBRANCH   1  16
TORSDOF 9
