REMARK  Name = ZINC22782480
REMARK  9 active torsions:
REMARK  status: ('A' for Active; 'I' for Inactive)
REMARK    1  A    between atoms: C_1  and  C_2
REMARK    2  A    between atoms: C_6  and  N_9
REMARK    3  A    between atoms: C_7  and  C_8
REMARK    4  A    between atoms: C_10  and  C_12
REMARK    5  A    between atoms: C_12  and  N_13
REMARK    6  A    between atoms: N_16  and  C_19
REMARK    7  A    between atoms: C_19  and  C_20
REMARK    8  A    between atoms: N_22  and  C_23
REMARK    9  A    between atoms: N_22  and  C_26
REMARK                            x       y       z     vdW  Elec       q    Type
REMARK                         _______ _______ _______ _____ _____    ______ ____
ROOT
ATOM      1  N   UNL     1      -1.175   6.371  -0.554  0.00  0.00    +0.387 N 
ATOM      2  C   UNL     1      -1.912   5.830  -1.705  0.00  0.00    -0.063 C 
ATOM      3  C   UNL     1      -3.370   6.292  -1.635  0.00  0.00    +0.066 C 
ATOM      4  N   UNL     1      -3.416   7.761  -1.626  0.00  0.00    -0.298 NA
ATOM      5  C   UNL     1      -2.678   8.301  -0.476  0.00  0.00    +0.066 C 
ATOM      6  C   UNL     1      -1.221   7.840  -0.546  0.00  0.00    -0.063 C 
ATOM      7  H   UNL     1      -1.663   6.010   0.363  0.00  0.00    -0.081 HD
ENDROOT
BRANCH   1   8
ATOM      8  C   UNL     1       0.213   5.888  -0.545  0.00  0.00    +0.019 C 
BRANCH   8  10
ATOM      9  N   UNL     1       1.396   3.735  -0.258  0.00  0.00    -0.287 N 
ATOM     10  C   UNL     1       0.225   4.400  -0.307  0.00  0.00    +0.201 C 
ATOM     11  O   UNL     1      -0.820   3.800  -0.160  0.00  0.00    -0.278 OA
ATOM     12  H   UNL     1       2.345   4.288  -0.307  0.00  0.00    +0.155 HD
BRANCH   9  18
ATOM     13  C   UNL     1       3.715  -0.389   1.081  0.00  0.00    +0.044 C 
ATOM     14  C   UNL     1       2.515   0.315   0.502  0.00  0.00    -0.046 A 
ATOM     15  C   UNL     1       1.421  -0.418   0.081  0.00  0.00    +0.004 A 
ATOM     16  C   UNL     1       0.318   0.224  -0.452  0.00  0.00    +0.002 A 
ATOM     17  C   UNL     1       0.307   1.601  -0.565  0.00  0.00    +0.023 A 
ATOM     18  C   UNL     1       1.404   2.340  -0.143  0.00  0.00    +0.036 A 
ATOM     19  C   UNL     1       2.510   1.692   0.391  0.00  0.00    -0.026 A 
ATOM     20  C   UNL     1       3.703   2.490   0.850  0.00  0.00    +0.046 C 
ENDBRANCH   9  18
ENDBRANCH   8  10
ENDBRANCH   1   8
BRANCH   4  21
ATOM     21  C   UNL     1      -4.803   8.244  -1.636  0.00  0.00    +0.181 C 
BRANCH  21  22
ATOM     22  C   UNL     1      -5.454   7.876  -2.945  0.00  0.00    +0.234 C 
ATOM     23  O   UNL     1      -4.840   7.231  -3.767  0.00  0.00    -0.274 OA
ATOM     24  N   UNL     1      -6.720   8.263  -3.200  0.00  0.00    -0.271 N 
BRANCH  24  25
ATOM     25  C   UNL     1      -7.297   7.983  -4.436  0.00  0.00    +0.010 C 
ATOM     26  C   UNL     1      -8.517   8.393  -4.649  0.00  0.00    -0.008 C 
ATOM     27  C   UNL     1      -9.269   8.157  -5.926  0.00  0.00    +0.029 C 
ATOM     28  C   UNL     1      -8.299   7.772  -7.046  0.00  0.00    +0.004 C 
ATOM     29  C   UNL     1      -7.384   6.653  -6.533  0.00  0.00    +0.006 C 
ATOM     30  C   UNL     1      -6.477   7.233  -5.444  0.00  0.00    +0.051 C 
ENDBRANCH  24  25
BRANCH  24  31
ATOM     31  C   UNL     1      -7.487   8.979  -2.178  0.00  0.00    +0.081 C 
ATOM     32  C   UNL     1      -8.181  10.277  -2.596  0.00  0.00    +0.025 C 
ATOM     33  C   UNL     1      -6.942  10.325  -1.699  0.00  0.00    +0.025 C 
ENDBRANCH  24  31
ENDBRANCH  21  22
ENDBRANCH   4  21
TORSDOF 7
