REMARK  Name = ZINC38777283
REMARK  12 active torsions:
REMARK  status: ('A' for Active; 'I' for Inactive)
REMARK    1  A    between atoms: C_1  and  C_2
REMARK    2  A    between atoms: C_2  and  C_3
REMARK    3  A    between atoms: C_2  and  C_4
REMARK    4  A    between atoms: C_2  and  C_5
REMARK    5  A    between atoms: C_7  and  C_15
REMARK    6  A    between atoms: C_9  and  C_11
REMARK    7  A    between atoms: C_11  and  C_12
REMARK    8  A    between atoms: C_11  and  C_13
REMARK    9  A    between atoms: C_11  and  C_14
REMARK   10  A    between atoms: C_19  and  C_21
REMARK   11  A    between atoms: C_21  and  S_22
REMARK   12  A    between atoms: S_22  and  C_23
REMARK                            x       y       z     vdW  Elec       q    Type
REMARK                         _______ _______ _______ _____ _____    ______ ____
ROOT
ATOM      1  C   UNL     1      -0.049  -2.597  -4.278  0.00  0.00    +0.309 C 
ATOM      2  N   UNL     1       0.505  -2.412  -5.632  0.00  0.00    -0.224 N 
ATOM      3  N   UNL     1       0.991  -3.673  -6.008  0.00  0.00    -0.149 NA
ATOM      4  C   UNL     1       0.792  -4.527  -5.073  0.00  0.00    +0.217 C 
ATOM      5  O   UNL     1       0.175  -3.986  -3.994  0.00  0.00    -0.451 OA
ATOM      6  H   UNL     1       0.528  -1.594  -6.152  0.00  0.00    +0.172 HD
ENDROOT
BRANCH   1   9
ATOM      7  C   UNL     1       0.707  -0.490  -1.238  0.00  0.00    -0.041 A 
ATOM      8  C   UNL     1       0.036  -1.284  -2.148  0.00  0.00    +0.013 A 
ATOM      9  C   UNL     1       0.683  -1.730  -3.286  0.00  0.00    +0.013 A 
ATOM     10  C   UNL     1       2.001  -1.381  -3.513  0.00  0.00    +0.013 A 
ATOM     11  C   UNL     1       2.672  -0.586  -2.603  0.00  0.00    -0.041 A 
ATOM     12  C   UNL     1       2.024  -0.137  -1.467  0.00  0.00    +0.008 A 
BRANCH   7  14
ATOM     13  C   UNL     1      -0.019   1.526   0.010  0.00  0.00    +0.015 C 
ATOM     14  C   UNL     1       0.002  -0.004   0.002  0.00  0.00    -0.013 C 
ATOM     15  C   UNL     1       0.742  -0.511   1.242  0.00  0.00    +0.015 C 
ATOM     16  C   UNL     1      -1.433  -0.534   0.013  0.00  0.00    +0.015 C 
ENDBRANCH   7  14
BRANCH  11  17
ATOM     17  C   UNL     1       4.110  -0.206  -2.850  0.00  0.00    -0.013 C 
ATOM     18  C   UNL     1       4.582  -0.826  -4.167  0.00  0.00    +0.015 C 
ATOM     19  C   UNL     1       4.228   1.317  -2.931  0.00  0.00    +0.015 C 
ATOM     20  C   UNL     1       4.979  -0.725  -1.702  0.00  0.00    +0.015 C 
ENDBRANCH  11  17
ENDBRANCH   1   9
BRANCH   4  21
ATOM     21  C   UNL     1       1.198  -5.976  -5.163  0.00  0.00    +0.174 C 
BRANCH  21  22
ATOM     22  S   UNL     1       1.987  -6.284  -6.768  0.00  0.00    -0.078 S 
BRANCH  22  23
ATOM     23  C   UNL     1       2.398  -7.996  -6.719  0.00  0.00    +0.168 A 
ATOM     24  N   UNL     1       2.155  -8.801  -5.713  0.00  0.00    -0.222 NA
ATOM     25  C   UNL     1       2.601 -10.050  -6.010  0.00  0.00    +0.090 A 
ATOM     26  C   UNL     1       2.598 -11.260  -5.313  0.00  0.00    +0.030 A 
ATOM     27  C   UNL     1       3.139 -12.385  -5.894  0.00  0.00    +0.002 A 
ATOM     28  C   UNL     1       3.688 -12.326  -7.166  0.00  0.00    +0.002 A 
ATOM     29  C   UNL     1       3.700 -11.137  -7.867  0.00  0.00    +0.028 A 
ATOM     30  C   UNL     1       3.159  -9.995  -7.298  0.00  0.00    +0.067 A 
ATOM     31  N   UNL     1       3.012  -8.685  -7.726  0.00  0.00    -0.333 N 
ATOM     32  H   UNL     1       3.295  -8.324  -8.581  0.00  0.00    +0.168 HD
ENDBRANCH  22  23
ENDBRANCH  21  22
ENDBRANCH   4  21
TORSDOF 6
