REMARK  Name = ZINC58492623
REMARK  5 active torsions:
REMARK  status: ('A' for Active; 'I' for Inactive)
REMARK    1  A    between atoms: C_1  and  C_2
REMARK    2  A    between atoms: C_2  and  N_3
REMARK    3  A    between atoms: C_12  and  S_13
REMARK    4  A    between atoms: S_13  and  C_14
REMARK    5  A    between atoms: C_24  and  C_28
REMARK                            x       y       z     vdW  Elec       q    Type
REMARK                         _______ _______ _______ _____ _____    ______ ____
ROOT
ATOM      1  N   UNL     1      -1.372  -0.511   0.012  0.00  0.00    -0.288 N 
ATOM      2  C   UNL     1      -1.982  -0.741   1.190  0.00  0.00    +0.263 A 
ATOM      3  O   UNL     1      -1.399  -0.529   2.239  0.00  0.00    -0.267 OA
ATOM      4  C   UNL     1      -3.325  -1.236   1.193  0.00  0.00    +0.076 A 
ATOM      5  C   UNL     1      -4.172  -1.555   2.344  0.00  0.00    -0.023 A 
ATOM      6  C   UNL     1      -5.413  -2.012   2.082  0.00  0.00    -0.004 A 
ATOM      7  S   UNL     1      -5.528  -2.045   0.314  0.00  0.00    -0.073 S 
ATOM      8  C   UNL     1      -3.903  -1.444  -0.071  0.00  0.00    +0.117 A 
ATOM      9  N   UNL     1      -3.246  -1.197  -1.198  0.00  0.00    -0.216 NA
ATOM     10  C   UNL     1      -2.012  -0.737  -1.172  0.00  0.00    +0.173 A 
ATOM     11  C   UNL     1      -6.463  -2.406   3.076  0.00  0.00    +0.046 C 
ATOM     12  C   UNL     1      -5.795  -2.569   4.448  0.00  0.00    -0.009 C 
ATOM     13  C   UNL     1      -4.906  -1.349   4.709  0.00  0.00    +0.008 C 
ATOM     14  C   UNL     1      -3.690  -1.385   3.782  0.00  0.00    +0.037 C 
ATOM     15  C   UNL     1      -6.869  -2.667   5.534  0.00  0.00    +0.008 C 
ENDROOT
BRANCH   1  17
ATOM     16  C   UNL     1      -0.019   1.526   0.010  0.00  0.00    +0.027 C 
ATOM     17  C   UNL     1       0.002  -0.004   0.002  0.00  0.00    +0.124 C 
ENDBRANCH   1  17
BRANCH  10  18
ATOM     18  S   UNL     1      -1.173  -0.414  -2.688  0.00  0.00    -0.075 S 
BRANCH  18  19
ATOM     19  C   UNL     1      -2.387  -0.850  -3.963  0.00  0.00    +0.140 C 
ATOM     20  C   UNL     1      -1.826  -0.508  -5.345  0.00  0.00    +0.024 C 
ATOM     21  C   UNL     1      -2.950  -0.279  -6.340  0.00  0.00    +0.003 C 
ATOM     22  C   UNL     1      -3.757  -1.527  -6.650  0.00  0.00    +0.019 C 
ATOM     23  C   UNL     1      -4.545  -1.986  -5.421  0.00  0.00    +0.104 C 
ATOM     24  N   UNL     1      -3.681  -2.854  -4.606  0.00  0.00    -0.314 N 
ATOM     25  C   UNL     1      -2.669  -2.337  -3.909  0.00  0.00    +0.226 C 
ATOM     26  O   UNL     1      -1.969  -3.061  -3.233  0.00  0.00    -0.275 OA
ATOM     27  H   UNL     1      -3.851  -3.809  -4.572  0.00  0.00    +0.149 HD
ENDBRANCH  18  19
ENDBRANCH  10  18
TORSDOF 3
