REMARK  Name = ZINC36737162
REMARK  3 active torsions:
REMARK  status: ('A' for Active; 'I' for Inactive)
REMARK    1  A    between atoms: C_3  and  C_9
REMARK    2  A    between atoms: N_11  and  C_12
REMARK    3  A    between atoms: C_17  and  N_18
REMARK                            x       y       z     vdW  Elec       q    Type
REMARK                         _______ _______ _______ _____ _____    ______ ____
ROOT
ATOM      1  C   UNL     1       3.568   2.302  -0.606  0.00  0.00    +0.250 C 
ATOM      2  O   UNL     1       4.548   1.836  -1.155  0.00  0.00    -0.270 OA
ATOM      3  N   UNL     1       3.638   3.511  -0.015  0.00  0.00    -0.280 N 
ATOM      4  H   UNL     1       2.838   3.919   0.352  0.00  0.00    +0.155 HD
ENDROOT
BRANCH   3   5
ATOM      5  C   UNL     1       4.867   4.181   0.069  0.00  0.00    +0.058 A 
ATOM      6  C   UNL     1       6.053   3.461   0.041  0.00  0.00    +0.074 A 
ATOM      7  C   UNL     1       7.268   4.122   0.123  0.00  0.00    +0.168 A 
ATOM      8  C   UNL     1       7.300   5.509   0.236  0.00  0.00    +0.168 A 
ATOM      9  C   UNL     1       6.117   6.229   0.265  0.00  0.00    +0.074 A 
ATOM     10  C   UNL     1       4.900   5.570   0.176  0.00  0.00    +0.050 A 
ATOM     11  O   UNL     1       8.604   5.912   0.300  0.00  0.00    -0.453 OA
ATOM     12  C   UNL     1       9.355   4.731   0.638  0.00  0.00    +0.466 C 
ATOM     13  O   UNL     1       8.552   3.655   0.118  0.00  0.00    -0.453 OA
BRANCH  10  14
ATOM     14  N   UNL     1       3.703   6.300   0.199  0.00  0.00    -0.356 N 
ATOM     15  H   UNL     1       2.852   5.838   0.140  0.00  0.00    +0.142 HD
ATOM     16  H   UNL     1       3.726   7.267   0.273  0.00  0.00    +0.142 HD
ENDBRANCH  10  14
ENDBRANCH   3   5
BRANCH   1  19
ATOM     17  C   UNL     1      -0.005   1.364   0.057  0.00  0.00    +0.039 A 
ATOM     18  C   UNL     1       1.174   2.077   0.043  0.00  0.00    +0.017 A 
ATOM     19  C   UNL     1       2.301   1.544  -0.587  0.00  0.00    +0.055 A 
ATOM     20  C   UNL     1       2.226   0.289  -1.200  0.00  0.00    +0.056 A 
ATOM     21  C   UNL     1       1.039  -0.414  -1.179  0.00  0.00    +0.059 A 
ATOM     22  C   UNL     1      -0.076   0.121  -0.552  0.00  0.00    +0.125 A 
ATOM     23  F   UNL     1      -1.235  -0.573  -0.535  0.00  0.00    -0.205 F 
ATOM     24 CL   UNL     1       3.621  -0.381  -1.985  0.00  0.00    -0.083 Cl
ENDBRANCH   1  19
TORSDOF 3
