REMARK  Name = ZINC20170657
REMARK  14 active torsions:
REMARK  status: ('A' for Active; 'I' for Inactive)
REMARK    1  A    between atoms: C_1  and  C_2
REMARK    2  A    between atoms: C_3  and  C_30
REMARK    3  A    between atoms: C_4  and  C_25
REMARK    4  A    between atoms: C_6  and  C_23
REMARK    5  A    between atoms: C_7  and  S_9
REMARK    6  A    between atoms: S_9  and  C_10
REMARK    7  A    between atoms: C_10  and  C_11
REMARK    8  A    between atoms: N_13  and  C_14
REMARK    9  A    between atoms: C_17  and  N_20
REMARK   10  A    between atoms: C_30  and  O_32
REMARK   11  A    between atoms: O_32  and  C_33
REMARK   12  A    between atoms: C_33  and  C_34
REMARK   13  A    between atoms: C_34  and  O_35
REMARK   14  A    between atoms: O_35  and  C_36
REMARK                            x       y       z     vdW  Elec       q    Type
REMARK                         _______ _______ _______ _____ _____    ______ ____
ROOT
ATOM      1  C   UNL     1      -0.357  -3.983  -2.515  0.00  0.00    +0.061 C 
ATOM      2  C   UNL     1       0.132  -3.357  -1.234  0.00  0.00    +0.016 C 
ATOM      3  C   UNL     1       1.180  -2.516  -1.266  0.00  0.00    +0.069 C 
ATOM      4  C   UNL     1       1.703  -1.858  -0.022  0.00  0.00    +0.136 C 
ATOM      5  C   UNL     1       1.188  -2.553   1.207  0.00  0.00    +0.072 C 
ATOM      6  C   UNL     1       0.128  -3.403   1.145  0.00  0.00    +0.080 C 
ATOM      7  N   UNL     1      -0.496  -3.655  -0.057  0.00  0.00    -0.312 N 
ATOM      8  H   UNL     1      -1.504  -4.097  -0.067  0.00  0.00    +0.152 HD
ENDROOT
BRANCH   4   9
ATOM      9  C   UNL     1       1.259  -0.418   0.001  0.00  0.00    +0.118 A 
ATOM     10  C   UNL     1       2.071   0.655   0.001  0.00  0.00    +0.045 A 
ATOM     11  C   UNL     1       1.239   1.798   0.026  0.00  0.00    +0.041 A 
ATOM     12  C   UNL     1      -0.031   1.355   0.039  0.00  0.00    +0.195 A 
ATOM     13  O   UNL     1      -0.013   0.013   0.024  0.00  0.00    -0.467 OA
ENDBRANCH   4   9
BRANCH   5  14
ATOM     14  C   UNL     1       1.825  -2.315   2.467  0.00  0.00    +0.098 C 
ATOM     15  N   UNL     1       2.330  -2.126   3.467  0.00  0.00    -0.191 NA
ENDBRANCH   5  14
BRANCH   3  16
ATOM     16  C   UNL     1       1.805  -2.243  -2.504  0.00  0.00    +0.338 C 
ATOM     17  O   UNL     1       1.394  -2.767  -3.522  0.00  0.00    -0.245 OA
BRANCH  16  18
ATOM     18  O   UNL     1       2.858  -1.400  -2.557  0.00  0.00    -0.459 OA
BRANCH  18  19
ATOM     19  C   UNL     1       3.441  -1.169  -3.841  0.00  0.00    +0.260 C 
BRANCH  19  20
ATOM     20  C   UNL     1       4.612  -0.195  -3.702  0.00  0.00    +0.200 C 
BRANCH  20  21
ATOM     21  O   UNL     1       5.644  -0.799  -2.921  0.00  0.00    -0.380 OA
ATOM     22  C   UNL     1       6.791   0.033  -2.730  0.00  0.00    +0.194 C 
ENDBRANCH  20  21
ENDBRANCH  19  20
ENDBRANCH  18  19
ENDBRANCH  16  18
ENDBRANCH   3  16
BRANCH   6  23
ATOM     23  S   UNL     1      -0.450  -4.188   2.612  0.00  0.00    -0.100 S 
BRANCH  23  24
ATOM     24  C   UNL     1      -1.818  -5.158   1.932  0.00  0.00    +0.171 C 
BRANCH  24  25
ATOM     25  C   UNL     1      -2.482  -5.935   3.039  0.00  0.00    +0.227 C 
ATOM     26  O   UNL     1      -2.071  -5.843   4.176  0.00  0.00    -0.275 OA
ATOM     27  N   UNL     1      -3.533  -6.733   2.765  0.00  0.00    -0.285 N 
ATOM     28  H   UNL     1      -3.954  -6.759   1.749  0.00  0.00    +0.155 HD
BRANCH  27  29
ATOM     29  C   UNL     1      -4.089  -7.529   3.773  0.00  0.00    +0.034 A 
ATOM     30  C   UNL     1      -4.598  -8.784   3.468  0.00  0.00    +0.025 A 
ATOM     31  C   UNL     1      -5.141  -9.569   4.466  0.00  0.00    +0.034 A 
ATOM     32  C   UNL     1      -5.188  -9.102   5.767  0.00  0.00    +0.126 A 
ATOM     33  C   UNL     1      -4.687  -7.850   6.073  0.00  0.00    +0.034 A 
ATOM     34  C   UNL     1      -4.137  -7.062   5.081  0.00  0.00    +0.025 A 
BRANCH  32  35
ATOM     35  N   UNL     1      -5.776  -9.943   6.833  0.00  0.00    +0.056 N 
ATOM     36  O   UNL     1      -5.819  -9.533   7.979  0.00  0.00    -0.126 OA
ATOM     37  O   UNL     1      -6.218 -11.046   6.565  0.00  0.00    -0.126 OA
ENDBRANCH  32  35
ENDBRANCH  27  29
ENDBRANCH  24  25
ENDBRANCH  23  24
ENDBRANCH   6  23
TORSDOF 12
