REMARK  Name = ZINC20024245
REMARK  3 active torsions:
REMARK  status: ('A' for Active; 'I' for Inactive)
REMARK    1  A    between atoms: C_1  and  C_2
REMARK    2  A    between atoms: C_9  and  C_18
REMARK    3  A    between atoms: C_10  and  N_12
REMARK                            x       y       z     vdW  Elec       q    Type
REMARK                         _______ _______ _______ _____ _____    ______ ____
ROOT
ATOM      1  C   UNL     1      -1.243  -1.487  -0.575  0.00  0.00    +0.044 C 
ATOM      2  C   UNL     1      -0.023  -0.603  -0.607  0.00  0.00    -0.050 A 
ATOM      3  C   UNL     1      -0.175   0.773  -0.761  0.00  0.00    +0.005 A 
ATOM      4  C   UNL     1       0.907   1.601  -0.794  0.00  0.00    +0.028 A 
ATOM      5  C   UNL     1       2.200   1.066  -0.672  0.00  0.00    +0.073 A 
ATOM      6  C   UNL     1       2.353  -0.335  -0.515  0.00  0.00    +0.001 A 
ATOM      7  C   UNL     1       1.214  -1.159  -0.485  0.00  0.00    +0.013 A 
ATOM      8  C   UNL     1       3.643  -0.877  -0.391  0.00  0.00    +0.021 A 
ATOM      9  C   UNL     1       4.727  -0.004  -0.429  0.00  0.00    +0.018 A 
ATOM     10  C   UNL     1       4.494   1.385  -0.589  0.00  0.00    +0.129 A 
ATOM     11  N   UNL     1       3.275   1.864  -0.702  0.00  0.00    -0.231 NA
ENDROOT
BRANCH   9  12
ATOM     12  C   UNL     1       6.096  -0.517  -0.304  0.00  0.00    +0.042 C 
ATOM     13  C   UNL     1       6.317  -1.734   0.255  0.00  0.00    +0.104 C 
ATOM     14  C   UNL     1       7.584  -2.480   0.301  0.00  0.00    +0.266 C 
ATOM     15  O   UNL     1       8.656  -2.129  -0.158  0.00  0.00    -0.268 OA
ATOM     16  N   UNL     1       7.320  -3.629   0.956  0.00  0.00    -0.261 N 
ATOM     17  C   UNL     1       6.026  -3.665   1.306  0.00  0.00    +0.150 C 
ATOM     18  S   UNL     1       5.286  -4.959   2.149  0.00  0.00    -0.016 SA
ATOM     19  N   UNL     1       5.386  -2.552   0.907  0.00  0.00    -0.333 N 
ATOM     20  H   UNL     1       8.123  -4.362   1.125  0.00  0.00    +0.157 HD
ATOM     21  H   UNL     1       4.314  -2.428   1.120  0.00  0.00    +0.168 HD
ENDBRANCH   9  12
BRANCH  10  22
ATOM     22  N   UNL     1       5.570   2.253  -0.626  0.00  0.00    -0.315 N 
ATOM     23  C   UNL     1       5.538   3.179   0.514  0.00  0.00    +0.106 C 
ATOM     24  C   UNL     1       6.814   4.024   0.521  0.00  0.00    +0.019 C 
ATOM     25  C   UNL     1       6.910   4.805  -0.792  0.00  0.00    +0.003 C 
ATOM     26  C   UNL     1       6.893   3.821  -1.965  0.00  0.00    +0.019 C 
ATOM     27  C   UNL     1       5.614   2.981  -1.900  0.00  0.00    +0.106 C 
ENDBRANCH  10  22
TORSDOF 2
