REMARK  Name = ZINC01505800
REMARK  3 active torsions:
REMARK  status: ('A' for Active; 'I' for Inactive)
REMARK    1  A    between atoms: C_1  and  C_2
REMARK    2  A    between atoms: N_12  and  N_13
REMARK    3  A    between atoms: C_14  and  C_16
REMARK                            x       y       z     vdW  Elec       q    Type
REMARK                         _______ _______ _______ _____ _____    ______ ____
ROOT
ATOM      1  N   UNL     1       2.766   7.730   0.013  0.00  0.00    -0.214 N 
ATOM      2  C   UNL     1       3.140   6.435   0.004  0.00  0.00    +0.270 C 
ATOM      3  O   UNL     1       4.321   6.143  -0.009  0.00  0.00    -0.268 OA
ATOM      4  H   UNL     1       1.825   7.963   0.024  0.00  0.00    +0.176 HD
ENDROOT
BRANCH   1  16
ATOM      5  C   UNL     1       3.170   9.102  -2.359  0.00  0.00    +0.088 C 
ATOM      6  C   UNL     1       3.973   9.442  -1.130  0.00  0.00    +0.128 A 
ATOM      7  N   UNL     1       4.855  10.392  -1.214  0.00  0.00    -0.232 NA
ATOM      8  C   UNL     1       5.614  10.753  -0.149  0.00  0.00    +0.078 A 
ATOM      9  C   UNL     1       6.562  11.774  -0.239  0.00  0.00    +0.028 A 
ATOM     10  C   UNL     1       7.311  12.108   0.867  0.00  0.00    +0.002 A 
ATOM     11  C   UNL     1       7.136  11.442   2.073  0.00  0.00    +0.001 A 
ATOM     12  C   UNL     1       6.207  10.431   2.186  0.00  0.00    +0.015 A 
ATOM     13  C   UNL     1       5.439  10.077   1.078  0.00  0.00    +0.066 A 
ATOM     14  C   UNL     1       4.429   9.010   1.141  0.00  0.00    +0.279 A 
ATOM     15  O   UNL     1       4.224   8.393   2.170  0.00  0.00    -0.265 OA
ATOM     16  N   UNL     1       3.738   8.740   0.009  0.00  0.00    -0.209 N 
ENDBRANCH   1  16
BRANCH   2  17
ATOM     17  C   UNL     1       2.122   5.377   0.008  0.00  0.00    +0.095 A 
ATOM     18  C   UNL     1       2.301   4.028   0.000  0.00  0.00    +0.068 A 
ATOM     19  C   UNL     1       1.184   3.173   0.007  0.00  0.00    +0.008 A 
ATOM     20  C   UNL     1       1.164   1.754   0.000  0.00  0.00    +0.010 A 
ATOM     21  C   UNL     1      -0.013   1.076   0.008  0.00  0.00    +0.001 A 
ATOM     22  C   UNL     1      -1.235   1.737   0.017  0.00  0.00    +0.001 A 
ATOM     23  C   UNL     1      -1.261   3.117   0.031  0.00  0.00    +0.016 A 
ATOM     24  C   UNL     1      -0.075   3.819   0.023  0.00  0.00    +0.021 A 
ATOM     25  S   UNL     1       0.346   5.544   0.027  0.00  0.00    -0.082 S 
ATOM     26 CL   UNL     1       3.905   3.364  -0.018  0.00  0.00    -0.082 Cl
ENDBRANCH   2  17
TORSDOF 2
