REMARK  Name = ZINC23328257
REMARK  13 active torsions:
REMARK  status: ('A' for Active; 'I' for Inactive)
REMARK    1  A    between atoms: C_1  and  C_2
REMARK    2  A    between atoms: C_5  and  C_33
REMARK    3  A    between atoms: C_6  and  O_8
REMARK    4  A    between atoms: O_8  and  C_9
REMARK    5  A    between atoms: C_9  and  C_10
REMARK    6  A    between atoms: C_13  and  S_16
REMARK    7  A    between atoms: N_14  and  N_15
REMARK    8  A    between atoms: S_16  and  C_17
REMARK    9  A    between atoms: C_17  and  C_19
REMARK   10  A    between atoms: C_17  and  C_20
REMARK   11  A    between atoms: N_22  and  C_23
REMARK   12  A    between atoms: C_33  and  C_34
REMARK   13  A    between atoms: C_33  and  C_35
REMARK                            x       y       z     vdW  Elec       q    Type
REMARK                         _______ _______ _______ _____ _____    ______ ____
ROOT
ATOM      1  C   UNL     1       8.223  -6.199  -0.515  0.00  0.00    +0.189 A 
ATOM      2  N   UNL     1       8.516  -5.014  -0.061  0.00  0.00    -0.128 NA
ATOM      3  N   UNL     1       7.454  -4.295   0.014  0.00  0.00    -0.121 NA
ATOM      4  C   UNL     1       6.416  -4.989  -0.392  0.00  0.00    +0.209 A 
ATOM      5  N   UNL     1       6.874  -6.228  -0.737  0.00  0.00    -0.225 N 
ENDROOT
BRANCH   5   6
ATOM      6  N   UNL     1       6.138  -7.278  -1.209  0.00  0.00    -0.295 N 
ATOM      7  H   UNL     1       5.051  -7.171  -1.343  0.00  0.00    +0.163 HD
ATOM      8  H   UNL     1       6.632  -8.229  -1.454  0.00  0.00    +0.163 HD
ENDBRANCH   5   6
BRANCH   1   9
ATOM      9  C   UNL     1       9.191  -7.331  -0.747  0.00  0.00    +0.306 C 
BRANCH   9  10
ATOM     10  O   UNL     1       9.293  -8.121   0.439  0.00  0.00    -0.484 OA
BRANCH  10  16
ATOM     11  C   UNL     1      12.463 -10.867  -2.058  0.00  0.00    +0.044 C 
ATOM     12  C   UNL     1      11.692 -10.560  -0.800  0.00  0.00    -0.047 A 
ATOM     13  C   UNL     1      11.838 -11.366   0.314  0.00  0.00    +0.004 A 
ATOM     14  C   UNL     1      11.132 -11.086   1.470  0.00  0.00    +0.008 A 
ATOM     15  C   UNL     1      10.284  -9.996   1.516  0.00  0.00    -0.003 A 
ATOM     16  C   UNL     1      10.132  -9.190   0.398  0.00  0.00    +0.125 A 
ATOM     17  C   UNL     1      10.841  -9.473  -0.761  0.00  0.00    +0.049 A 
BRANCH  15  18
ATOM     18  C   UNL     1       9.520  -9.689   2.778  0.00  0.00    +0.016 C 
ATOM     19  C   UNL     1       8.624 -10.876   3.134  0.00  0.00    +0.012 C 
ATOM     20  C   UNL     1      10.505  -9.432   3.920  0.00  0.00    +0.012 C 
ENDBRANCH  15  18
ENDBRANCH  10  16
ENDBRANCH   9  10
ENDBRANCH   1   9
BRANCH   4  21
ATOM     21  S   UNL     1       4.747  -4.430  -0.470  0.00  0.00    -0.072 S 
BRANCH  21  22
ATOM     22  C   UNL     1       4.953  -2.739   0.143  0.00  0.00    +0.137 C 
ATOM     23  C   UNL     1       5.412  -2.778   1.602  0.00  0.00    +0.029 C 
BRANCH  22  24
ATOM     24  C   UNL     1       3.639  -2.007   0.050  0.00  0.00    +0.230 C 
ATOM     25  O   UNL     1       2.597  -2.628   0.058  0.00  0.00    -0.274 OA
ATOM     26  N   UNL     1       3.621  -0.663  -0.044  0.00  0.00    -0.284 N 
ATOM     27  H   UNL     1       4.566  -0.105  -0.129  0.00  0.00    +0.155 HD
BRANCH  26  28
ATOM     28  C   UNL     1       2.400   0.024  -0.034  0.00  0.00    +0.037 A 
ATOM     29  C   UNL     1       2.308   1.268   0.577  0.00  0.00    +0.027 A 
ATOM     30  C   UNL     1       1.105   1.945   0.588  0.00  0.00    +0.051 A 
ATOM     31  C   UNL     1      -0.015   1.387  -0.010  0.00  0.00    +0.162 A 
ATOM     32  C   UNL     1       0.074   0.143  -0.624  0.00  0.00    +0.164 A 
ATOM     33  C   UNL     1       1.282  -0.537  -0.634  0.00  0.00    +0.072 A 
ATOM     34  O   UNL     1      -1.011  -0.418  -1.224  0.00  0.00    -0.485 OA
ATOM     35  C   UNL     1      -2.291   0.119  -0.871  0.00  0.00    +0.270 C 
ATOM     36  C   UNL     1      -2.198   1.651  -0.916  0.00  0.00    +0.270 C 
ATOM     37  O   UNL     1      -1.195   2.066   0.018  0.00  0.00    -0.485 OA
ENDBRANCH  26  28
ENDBRANCH  22  24
ENDBRANCH  21  22
ENDBRANCH   4  21
TORSDOF 9
