REMARK  Name = ZINC39529905
REMARK  5 active torsions:
REMARK  status: ('A' for Active; 'I' for Inactive)
REMARK    1  A    between atoms: C_4  and  O_28
REMARK    2  A    between atoms: C_5  and  C_7
REMARK    3  A    between atoms: C_10  and  N_20
REMARK    4  A    between atoms: C_11  and  C_13
REMARK    5  A    between atoms: C_18  and  O_19
REMARK                            x       y       z     vdW  Elec       q    Type
REMARK                         _______ _______ _______ _____ _____    ______ ____
ROOT
ATOM      1  C   UNL     1       1.244  -2.166  -0.023  0.00  0.00    -0.014 A 
ATOM      2  C   UNL     1       2.028  -2.844  -0.957  0.00  0.00    +0.010 A 
ATOM      3  C   UNL     1       2.056  -4.222  -0.969  0.00  0.00    +0.024 A 
ATOM      4  C   UNL     1       1.303  -4.944  -0.052  0.00  0.00    +0.038 A 
ATOM      5  C   UNL     1       0.514  -4.271   0.889  0.00  0.00    +0.007 A 
ATOM      6  C   UNL     1       0.491  -2.880   0.904  0.00  0.00    +0.019 A 
ENDROOT
BRANCH   4   7
ATOM      7  N   UNL     1       1.333  -6.338  -0.068  0.00  0.00    -0.326 N 
ATOM      8  C   UNL     1       0.382  -7.104  -0.888  0.00  0.00    +0.120 C 
ATOM      9  C   UNL     1       1.169  -8.109  -1.735  0.00  0.00    +0.101 C 
ATOM     10  N   UNL     1       2.026  -8.919  -0.859  0.00  0.00    -0.302 NA
ATOM     11  C   UNL     1       3.027  -8.087  -0.178  0.00  0.00    +0.139 C 
ATOM     12  C   UNL     1       2.321  -7.081   0.729  0.00  0.00    +0.135 C 
ATOM     13 BR   UNL     1       4.206  -9.233   0.901  0.00  0.00    -0.070 Br
ATOM     14  H   UNL     1       1.474  -9.438  -0.193  0.00  0.00    +0.123 HD
ENDBRANCH   4   7
BRANCH   1  19
ATOM     15  C   UNL     1      -0.017   1.376   0.010  0.00  0.00    +0.001 A 
ATOM     16  C   UNL     1       1.169   2.089   0.002  0.00  0.00    +0.004 A 
ATOM     17  C   UNL     1       2.382   1.426  -0.013  0.00  0.00    +0.046 A 
ATOM     18  C   UNL     1       2.415   0.041  -0.021  0.00  0.00    +0.125 A 
ATOM     19  C   UNL     1       1.219  -0.683  -0.014  0.00  0.00    +0.024 A 
ATOM     20  C   UNL     1       0.002  -0.004   0.002  0.00  0.00    +0.012 A 
BRANCH  18  21
ATOM     21  O   UNL     1       3.606  -0.613  -0.037  0.00  0.00    -0.506 OA
ATOM     22  H   UNL     1       3.960  -0.807   0.842  0.00  0.00    +0.292 HD
ENDBRANCH  18  21
ENDBRANCH   1  19
BRANCH   5  23
ATOM     23  C   UNL     1      -0.291  -5.038   1.870  0.00  0.00    +0.025 A 
ATOM     24  C   UNL     1      -1.682  -4.980   1.832  0.00  0.00    +0.012 A 
ATOM     25  C   UNL     1      -2.427  -5.696   2.747  0.00  0.00    +0.001 A 
ATOM     26  C   UNL     1      -1.796  -6.473   3.703  0.00  0.00    +0.004 A 
ATOM     27  C   UNL     1      -0.416  -6.537   3.750  0.00  0.00    +0.046 A 
ATOM     28  C   UNL     1       0.343  -5.829   2.833  0.00  0.00    +0.125 A 
BRANCH  28  29
ATOM     29  O   UNL     1       1.700  -5.897   2.874  0.00  0.00    -0.506 OA
ATOM     30  H   UNL     1       2.110  -5.228   3.439  0.00  0.00    +0.292 HD
ENDBRANCH  28  29
ENDBRANCH   5  23
TORSDOF 5
