REMARK  Name = ZINC07406389
REMARK  10 active torsions:
REMARK  status: ('A' for Active; 'I' for Inactive)
REMARK    1  A    between atoms: C_1  and  N_56
REMARK    2  A    between atoms: C_2  and  N_56
REMARK    3  A    between atoms: C_3  and  C_5
REMARK    4  A    between atoms: C_3  and  C_27
REMARK    5  A    between atoms: C_3  and  N_56
REMARK    6  A    between atoms: C_5  and  N_6
REMARK    7  A    between atoms: C_7  and  C_9
REMARK    8  A    between atoms: C_9  and  C_10
REMARK    9  A    between atoms: C_10  and  C_11
REMARK   10  A    between atoms: C_11  and  N_12
REMARK                            x       y       z     vdW  Elec       q    Type
REMARK                         _______ _______ _______ _____ _____    ______ ____
ROOT
ATOM      1  C   UNL     1      -1.489   4.281  -4.262  0.00  0.00    +0.029 C 
ENDROOT
BRANCH   1   2
ATOM      2  C   UNL     1      -1.122   3.703  -2.893  0.00  0.00    +0.097 C 
BRANCH   2   4
ATOM      3  N   UNL     1      -1.297   1.533  -1.720  0.00  0.00    -0.316 N 
ATOM      4  C   UNL     1      -1.524   2.252  -2.837  0.00  0.00    +0.213 C 
ATOM      5  O   UNL     1      -2.053   1.732  -3.796  0.00  0.00    -0.276 OA
ATOM      6  H   UNL     1      -0.874   1.949  -0.953  0.00  0.00    +0.149 HD
BRANCH   3   7
ATOM      7  C   UNL     1      -1.688   0.122  -1.665  0.00  0.00    +0.096 C 
BRANCH   7   8
ATOM      8  C   UNL     1      -1.416  -0.429  -0.264  0.00  0.00    +0.016 C 
BRANCH   8   9
ATOM      9  C   UNL     1      -1.722  -1.904  -0.235  0.00  0.00    +0.093 A 
ATOM     10  C   UNL     1      -2.744  -2.483   0.419  0.00  0.00    +0.043 A 
ATOM     11  C   UNL     1      -2.653  -3.873   0.175  0.00  0.00    +0.041 A 
ATOM     12  C   UNL     1      -1.580  -4.060  -0.614  0.00  0.00    +0.195 A 
ATOM     13  O   UNL     1      -1.023  -2.863  -0.865  0.00  0.00    -0.469 OA
ENDBRANCH   8   9
BRANCH   8  16
ATOM     14  C   UNL     1       0.277  -0.663   1.451  0.00  0.00    -0.096 C 
ATOM     15  C   UNL     1       0.880  -0.883  -0.883  0.00  0.00    -0.096 C 
ATOM     16  N   UNL     1       0.001  -0.186   0.079  0.00  0.00    +0.384 N 
ATOM     17  H   UNL     1       0.188   0.822   0.033  0.00  0.00    -0.082 HD
ENDBRANCH   8  16
ENDBRANCH   7   8
ENDBRANCH   3   7
ENDBRANCH   2   4
ENDBRANCH   1   2
BRANCH   1  18
ATOM     18  C   UNL     1      -1.080   5.755  -4.319  0.00  0.00    +0.117 C 
BRANCH  18  19
ATOM     19  N   UNL     1      -1.432   6.308  -5.629  0.00  0.00    -0.234 N 
ATOM     20  C   UNL     1      -0.525   6.248  -6.623  0.00  0.00    +0.254 C 
ATOM     21  O   UNL     1       0.561   5.740  -6.421  0.00  0.00    -0.270 OA
ATOM     22  C   UNL     1      -0.844   6.788  -7.953  0.00  0.00    +0.046 A 
ATOM     23  C   UNL     1       0.058   6.744  -9.006  0.00  0.00    +0.014 A 
ATOM     24  C   UNL     1      -0.287   7.273 -10.244  0.00  0.00    +0.001 A 
ATOM     25  C   UNL     1      -1.507   7.846 -10.462  0.00  0.00    +0.008 A 
ATOM     26  C   UNL     1      -2.450   7.912  -9.421  0.00  0.00    -0.016 A 
ATOM     27  C   UNL     1      -2.111   7.378  -8.160  0.00  0.00    +0.006 A 
ATOM     28  C   UNL     1      -3.037   7.430  -7.093  0.00  0.00    +0.046 A 
ATOM     29  C   UNL     1      -4.278   8.011  -7.306  0.00  0.00    +0.014 A 
ATOM     30  C   UNL     1      -4.600   8.533  -8.553  0.00  0.00    +0.001 A 
ATOM     31  C   UNL     1      -3.718   8.492  -9.595  0.00  0.00    +0.008 A 
ATOM     32  C   UNL     1      -2.648   6.864  -5.793  0.00  0.00    +0.254 C 
ATOM     33  O   UNL     1      -3.428   6.897  -4.861  0.00  0.00    -0.270 OA
ENDBRANCH  18  19
ENDBRANCH   1  18
TORSDOF 8
