REMARK  Name = ZINC57974874
REMARK  11 active torsions:
REMARK  status: ('A' for Active; 'I' for Inactive)
REMARK    1  A    between atoms: C_4  and  C_7
REMARK    2  A    between atoms: C_7  and  C_8
REMARK    3  A    between atoms: C_7  and  C_28
REMARK    4  A    between atoms: C_8  and  N_9
REMARK    5  A    between atoms: C_10  and  C_12
REMARK    6  A    between atoms: C_12  and  C_13
REMARK    7  A    between atoms: C_13  and  N_14
REMARK    8  A    between atoms: N_14  and  C_15
REMARK    9  A    between atoms: C_18  and  S_24
REMARK   10  A    between atoms: C_20  and  N_21
REMARK   11  A    between atoms: S_24  and  N_27
REMARK                            x       y       z     vdW  Elec       q    Type
REMARK                         _______ _______ _______ _____ _____    ______ ____
ROOT
ATOM      1  C   UNL     1       3.550  -0.070   4.909  0.00  0.00    +0.114 C 
ENDROOT
BRANCH   1   3
ATOM      2  N   UNL     1       3.702  -0.624   2.503  0.00  0.00    -0.314 N 
ATOM      3  C   UNL     1       3.634  -1.060   3.777  0.00  0.00    +0.215 C 
ATOM      4  O   UNL     1       3.639  -2.250   4.011  0.00  0.00    -0.276 OA
ATOM      5  H   UNL     1       3.698   0.328   2.316  0.00  0.00    +0.149 HD
BRANCH   2   6
ATOM      6  C   UNL     1       3.784  -1.587   1.403  0.00  0.00    +0.117 C 
BRANCH   6   7
ATOM      7  C   UNL     1       3.851  -0.836   0.071  0.00  0.00    +0.066 C 
BRANCH   7  11
ATOM      8  C   UNL     1       0.196   1.285  -0.553  0.00  0.00    +0.000 A 
ATOM      9  C   UNL     1       1.405   1.949  -0.646  0.00  0.00    +0.000 A 
ATOM     10  C   UNL     1       2.587   1.263  -0.443  0.00  0.00    +0.004 A 
ATOM     11  C   UNL     1       2.561  -0.087  -0.148  0.00  0.00    -0.038 A 
ATOM     12  C   UNL     1       1.352  -0.751  -0.055  0.00  0.00    +0.004 A 
ATOM     13  C   UNL     1       0.170  -0.065  -0.259  0.00  0.00    +0.000 A 
ENDBRANCH   7  11
BRANCH   7  14
ATOM     14  C   UNL     1       4.058  -1.820  -1.051  0.00  0.00    -0.038 A 
ATOM     15  C   UNL     1       3.217  -2.909  -1.179  0.00  0.00    +0.004 A 
ATOM     16  C   UNL     1       3.407  -3.812  -2.209  0.00  0.00    +0.000 A 
ATOM     17  C   UNL     1       4.438  -3.624  -3.111  0.00  0.00    +0.000 A 
ATOM     18  C   UNL     1       5.278  -2.534  -2.983  0.00  0.00    +0.000 A 
ATOM     19  C   UNL     1       5.085  -1.629  -1.956  0.00  0.00    +0.004 A 
ENDBRANCH   7  14
ENDBRANCH   6   7
ENDBRANCH   2   6
ENDBRANCH   1   3
BRANCH   1  20
ATOM     20  C   UNL     1       3.483  -0.821   6.240  0.00  0.00    +0.111 C 
BRANCH  20  21
ATOM     21  N   UNL     1       3.402   0.142   7.341  0.00  0.00    -0.342 N 
ATOM     22  H   UNL     1       3.397   1.094   7.154  0.00  0.00    +0.146 HD
BRANCH  21  23
ATOM     23  C   UNL     1       3.330  -0.310   8.661  0.00  0.00    +0.058 A 
ATOM     24  C   UNL     1       3.222  -1.670   8.926  0.00  0.00    +0.027 A 
ATOM     25  C   UNL     1       3.153  -2.113  10.232  0.00  0.00    +0.030 A 
ATOM     26  C   UNL     1       3.191  -1.206  11.275  0.00  0.00    +0.107 A 
ATOM     27  C   UNL     1       3.298   0.148  11.015  0.00  0.00    +0.063 A 
ATOM     28  C   UNL     1       3.373   0.598   9.711  0.00  0.00    +0.149 A 
BRANCH  28  29
ATOM     29  N   UNL     1       3.494   2.047   9.433  0.00  0.00    +0.058 N 
ATOM     30  O   UNL     1       4.192   2.432   8.524  0.00  0.00    -0.126 OA
ATOM     31  O   UNL     1       2.896   2.845  10.116  0.00  0.00    -0.126 OA
ENDBRANCH  28  29
BRANCH  26  32
ATOM     32  S   UNL     1       3.102  -1.776  12.940  0.00  0.00    +0.056 S 
ATOM     33  O   UNL     1       2.607  -0.693  13.715  0.00  0.00    -0.153 OA
ATOM     34  O   UNL     1       2.456  -3.042  12.902  0.00  0.00    -0.153 OA
BRANCH  32  35
ATOM     35  N   UNL     1       4.654  -2.052  13.447  0.00  0.00    -0.204 NA
ATOM     36  H   UNL     1       5.397  -1.891  12.844  0.00  0.00    +0.144 HD
ATOM     37  H   UNL     1       4.820  -2.374  14.346  0.00  0.00    +0.144 HD
ENDBRANCH  32  35
ENDBRANCH  26  32
ENDBRANCH  21  23
ENDBRANCH  20  21
ENDBRANCH   1  20
TORSDOF 11
