REMARK  Name = ZINC12316781
REMARK  10 active torsions:
REMARK  status: ('A' for Active; 'I' for Inactive)
REMARK    1  A    between atoms: C_1  and  C_2
REMARK    2  A    between atoms: C_5  and  C_30
REMARK    3  A    between atoms: C_6  and  C_8
REMARK    4  A    between atoms: C_11  and  C_16
REMARK    5  A    between atoms: N_18  and  C_19
REMARK    6  A    between atoms: N_18  and  C_20
REMARK    7  A    between atoms: C_20  and  C_21
REMARK    8  A    between atoms: C_23  and  C_27
REMARK    9  A    between atoms: C_27  and  O_28
REMARK   10  A    between atoms: O_28  and  C_29
REMARK                            x       y       z     vdW  Elec       q    Type
REMARK                         _______ _______ _______ _____ _____    ______ ____
ROOT
ATOM      1  C   UNL     1      -4.029   1.544  -4.084  0.00  0.00    +0.091 A 
ATOM      2  C   UNL     1      -2.949   1.561  -3.266  0.00  0.00    +0.122 A 
ATOM      3  N   UNL     1      -2.263   2.746  -3.501  0.00  0.00    -0.289 N 
ATOM      4  C   UNL     1      -1.126   3.388  -3.029  0.00  0.00    +0.117 A 
ATOM      5  C   UNL     1      -0.776   4.599  -3.531  0.00  0.00    +0.080 A 
ATOM      6  S   UNL     1      -2.076   4.897  -4.718  0.00  0.00    -0.057 S 
ATOM      7  C   UNL     1      -2.990   3.394  -4.463  0.00  0.00    +0.178 A 
ATOM      8  N   UNL     1      -4.025   2.684  -4.805  0.00  0.00    -0.221 NA
ENDROOT
BRANCH   1  14
ATOM      9  C   UNL     1      -5.143  -3.311  -4.424  0.00  0.00    +0.044 C 
ATOM     10  C   UNL     1      -5.580  -1.871  -4.334  0.00  0.00    -0.050 A 
ATOM     11  C   UNL     1      -6.927  -1.557  -4.332  0.00  0.00    +0.003 A 
ATOM     12  C   UNL     1      -7.335  -0.238  -4.249  0.00  0.00    +0.004 A 
ATOM     13  C   UNL     1      -6.399   0.773  -4.169  0.00  0.00    -0.041 A 
ATOM     14  C   UNL     1      -5.040   0.462  -4.170  0.00  0.00    +0.005 A 
ATOM     15  C   UNL     1      -4.635  -0.868  -4.259  0.00  0.00    +0.013 A 
ATOM     16  C   UNL     1      -6.845   2.209  -4.080  0.00  0.00    +0.044 C 
ENDBRANCH   1  14
BRANCH   4  17
ATOM     17  C   UNL     1      -0.302   2.757  -1.997  0.00  0.00    +0.264 C 
ATOM     18  O   UNL     1      -0.357   1.552  -1.827  0.00  0.00    -0.268 OA
ATOM     19  N   UNL     1       0.517   3.509  -1.235  0.00  0.00    -0.293 N 
ATOM     20  C   UNL     1       0.654   4.942  -1.502  0.00  0.00    +0.133 C 
BRANCH  19  21
ATOM     21  C   UNL     1       1.269   2.892  -0.140  0.00  0.00    +0.165 C 
BRANCH  21  22
ATOM     22  C   UNL     1       2.602   2.412  -0.654  0.00  0.00    +0.080 A 
ATOM     23  C   UNL     1       3.806   3.122  -0.599  0.00  0.00    +0.051 A 
ATOM     24  C   UNL     1       4.769   2.353  -1.159  0.00  0.00    +0.062 A 
ATOM     25  N   UNL     1       4.192   1.201  -1.562  0.00  0.00    -0.279 N 
ATOM     26  H   UNL     1       4.655   0.439  -2.015  0.00  0.00    +0.189 HD
ATOM     27  N   UNL     1       2.832   1.262  -1.234  0.00  0.00    -0.177 NA
BRANCH  24  28
ATOM     28  C   UNL     1       6.223   2.719  -1.310  0.00  0.00    +0.214 C 
BRANCH  28  29
ATOM     29  O   UNL     1       6.446   4.019  -0.761  0.00  0.00    -0.377 OA
ATOM     30  C   UNL     1       7.800   4.465  -0.855  0.00  0.00    +0.194 C 
ENDBRANCH  28  29
ENDBRANCH  24  28
ENDBRANCH  21  22
ENDBRANCH  19  21
ENDBRANCH   4  17
TORSDOF 6
