REMARK  Name = ZINC42735438
REMARK  7 active torsions:
REMARK  status: ('A' for Active; 'I' for Inactive)
REMARK    1  A    between atoms: C_1  and  C_2
REMARK    2  A    between atoms: C_7  and  C_8
REMARK    3  A    between atoms: C_9  and  C_18
REMARK    4  A    between atoms: C_11  and  C_13
REMARK    5  A    between atoms: C_13  and  C_15
REMARK    6  A    between atoms: C_13  and  N_16
REMARK    7  A    between atoms: N_16  and  C_17
REMARK                            x       y       z     vdW  Elec       q    Type
REMARK                         _______ _______ _______ _____ _____    ______ ____
ROOT
ATOM      1  C   UNL     1       0.188   0.155   2.405  0.00  0.00    +0.023 A 
ATOM      2  C   UNL     1       0.381  -0.270   3.692  0.00  0.00    -0.035 A 
ATOM      3  C   UNL     1       0.400   0.666   4.703  0.00  0.00    +0.013 A 
ATOM      4  C   UNL     1       0.228   1.976   4.394  0.00  0.00    -0.024 A 
ATOM      5  S   UNL     1       0.036   1.921   2.620  0.00  0.00    -0.095 S 
ATOM      6  C   UNL     1       0.568  -1.734   3.997  0.00  0.00    +0.045 C 
ENDROOT
BRANCH   1  13
ATOM      7  C   UNL     1      -1.977   0.588   0.535  0.00  0.00    +0.044 C 
ATOM      8  C   UNL     1      -0.913  -0.440   0.251  0.00  0.00    -0.042 A 
ATOM      9  C   UNL     1      -0.961  -1.182  -0.912  0.00  0.00    +0.005 A 
ATOM     10  C   UNL     1       0.015  -2.126  -1.175  0.00  0.00    +0.015 A 
ATOM     11  C   UNL     1       1.046  -2.335  -0.274  0.00  0.00    +0.018 A 
ATOM     12  C   UNL     1       1.105  -1.600   0.893  0.00  0.00    +0.024 A 
ATOM     13  C   UNL     1       0.127  -0.641   1.160  0.00  0.00    -0.007 A 
ATOM     14 BR   UNL     1       2.374  -3.629  -0.643  0.00  0.00    -0.050 Br
ENDBRANCH   1  13
BRANCH   4  15
ATOM     15  C   UNL     1       0.209   3.172   5.312  0.00  0.00    -0.038 C 
ATOM     16  C   UNL     1      -1.240   3.580   5.587  0.00  0.00    -0.008 C 
BRANCH  15  17
ATOM     17  N   UNL     1       0.920   4.289   4.676  0.00  0.00    +0.382 N 
ATOM     18  C   UNL     1       1.006   5.414   5.617  0.00  0.00    -0.100 C 
ATOM     19  H   UNL     1       1.850   3.993   4.419  0.00  0.00    -0.085 HD
ATOM     20  H   UNL     1       0.419   4.579   3.849  0.00  0.00    -0.085 HD
ENDBRANCH  15  17
ENDBRANCH   4  15
TORSDOF 3
