REMARK  Name = ZINC63079804
REMARK  5 active torsions:
REMARK  status: ('A' for Active; 'I' for Inactive)
REMARK    1  A    between atoms: C_1  and  S_2
REMARK    2  A    between atoms: S_2  and  C_3
REMARK    3  A    between atoms: C_5  and  C_12
REMARK    4  A    between atoms: N_14  and  C_15
REMARK    5  A    between atoms: C_18  and  C_21
REMARK                            x       y       z     vdW  Elec       q    Type
REMARK                         _______ _______ _______ _____ _____    ______ ____
ROOT
ATOM      1  C   UNL     1      -5.178   0.257   0.042  0.00  0.00    +0.269 C 
ATOM      2  O   UNL     1      -6.153  -0.474   0.041  0.00  0.00    -0.268 OA
ATOM      3  N   UNL     1      -5.340   1.595   0.046  0.00  0.00    -0.280 N 
ATOM      4  H   UNL     1      -4.567   2.177   0.115  0.00  0.00    +0.155 HD
ENDROOT
BRANCH   1   7
ATOM      5  C   UNL     1      -1.701  -0.453   0.038  0.00  0.00    +0.174 A 
ATOM      6  N   UNL     1      -2.703   0.389   0.041  0.00  0.00    -0.216 NA
ATOM      7  C   UNL     1      -3.875  -0.299   0.039  0.00  0.00    +0.152 A 
ATOM      8  C   UNL     1      -3.551  -1.661   0.035  0.00  0.00    +0.079 A 
ATOM      9  N   UNL     1      -2.177  -1.734   0.029  0.00  0.00    -0.294 N 
ATOM     10  C   UNL     1      -1.558  -2.954   0.019  0.00  0.00    +0.094 A 
ATOM     11  C   UNL     1      -2.282  -4.092   0.011  0.00  0.00    +0.018 A 
ATOM     12  C   UNL     1      -3.687  -4.043   0.014  0.00  0.00    +0.004 A 
ATOM     13  C   UNL     1      -4.318  -2.835   0.033  0.00  0.00    +0.028 A 
BRANCH   5  15
ATOM     14  C   UNL     1      -0.022   1.810   0.052  0.00  0.00    +0.093 C 
ATOM     15  S   UNL     1       0.002  -0.003   0.038  0.00  0.00    -0.091 S 
ENDBRANCH   5  15
ENDBRANCH   1   7
BRANCH   3  16
ATOM     16  C   UNL     1      -6.622   2.144  -0.049  0.00  0.00    +0.034 A 
ATOM     17  C   UNL     1      -7.697   1.505   0.558  0.00  0.00    +0.024 A 
ATOM     18  C   UNL     1      -8.963   2.045   0.465  0.00  0.00    +0.012 A 
ATOM     19  C   UNL     1      -9.163   3.233  -0.236  0.00  0.00    +0.002 A 
ATOM     20  C   UNL     1      -8.083   3.872  -0.843  0.00  0.00    +0.012 A 
ATOM     21  C   UNL     1      -6.819   3.332  -0.744  0.00  0.00    +0.024 A 
BRANCH  19  22
ATOM     22  C   UNL     1     -10.524   3.815  -0.338  0.00  0.00    +0.092 A 
ATOM     23  C   UNL     1     -10.870   5.000  -1.016  0.00  0.00    +0.049 A 
ATOM     24  C   UNL     1     -12.200   5.185  -0.874  0.00  0.00    +0.105 A 
ATOM     25  N   UNL     1     -12.687   4.164  -0.137  0.00  0.00    -0.284 N 
ATOM     26  H   UNL     1     -13.614   4.039   0.121  0.00  0.00    +0.188 HD
ATOM     27  N   UNL     1     -11.622   3.313   0.186  0.00  0.00    -0.174 NA
ENDBRANCH  19  22
ENDBRANCH   3  16
TORSDOF 4
