REMARK  Name = ZINC39982929
REMARK  7 active torsions:
REMARK  status: ('A' for Active; 'I' for Inactive)
REMARK    1  A    between atoms: C_1  and  C_2
REMARK    2  A    between atoms: C_3  and  O_26
REMARK    3  A    between atoms: C_6  and  C_9
REMARK    4  A    between atoms: C_7  and  O_8
REMARK    5  A    between atoms: C_10  and  C_19
REMARK    6  A    between atoms: C_11  and  C_15
REMARK    7  A    between atoms: C_23  and  C_25
REMARK                            x       y       z     vdW  Elec       q    Type
REMARK                         _______ _______ _______ _____ _____    ______ ____
ROOT
ATOM      1  C   UNL     1      -0.225  -2.657   2.606  0.00  0.00    +0.100 C 
ATOM      2  C   UNL     1      -0.063  -2.011   3.778  0.00  0.00    +0.018 C 
ATOM      3  C   UNL     1       0.081  -3.131   4.793  0.00  0.00    +0.262 C 
ATOM      4  N   UNL     1      -0.031  -4.347   3.970  0.00  0.00    -0.170 NA
ATOM      5  N   UNL     1      -0.201  -4.002   2.799  0.00  0.00    -0.153 NA
ENDROOT
BRANCH   1  11
ATOM      6  C   UNL     1      -2.913  -1.961  -1.553  0.00  0.00    +0.051 C 
ATOM      7  C   UNL     1      -1.701  -1.656  -0.711  0.00  0.00    +0.033 A 
ATOM      8  C   UNL     1      -0.752  -0.751  -1.163  0.00  0.00    +0.123 A 
ATOM      9  C   UNL     1       0.367  -0.467  -0.391  0.00  0.00    +0.046 A 
ATOM     10  C   UNL     1       0.540  -1.083   0.831  0.00  0.00    +0.017 A 
ATOM     11  C   UNL     1      -0.408  -1.993   1.293  0.00  0.00    +0.044 A 
ATOM     12  C   UNL     1      -1.538  -2.275   0.517  0.00  0.00    +0.132 A 
BRANCH  12  13
ATOM     13  O   UNL     1      -2.469  -3.157   0.964  0.00  0.00    -0.506 OA
ATOM     14  H   UNL     1      -2.308  -4.071   0.692  0.00  0.00    +0.292 HD
ENDBRANCH  12  13
BRANCH   8  15
ATOM     15  O   UNL     1      -0.917  -0.141  -2.366  0.00  0.00    -0.506 OA
ATOM     16  H   UNL     1      -1.404   0.693  -2.320  0.00  0.00    +0.292 HD
ENDBRANCH   8  15
ENDBRANCH   1  11
BRANCH   2  17
ATOM     17  C   UNL     1      -0.031  -0.525   4.023  0.00  0.00    +0.147 C 
ATOM     18  C   UNL     1       1.359  -0.132   4.593  0.00  0.00    +0.107 C 
ATOM     19  S   UNL     1       0.804   1.182   5.763  0.00  0.00    -0.108 S 
ATOM     20  C   UNL     1      -0.903   0.679   5.903  0.00  0.00    +0.066 C 
ATOM     21  N   UNL     1      -1.091  -0.172   4.950  0.00  0.00    -0.273 NA
ATOM     22  C   UNL     1      -1.911   1.147   6.920  0.00  0.00    +0.073 C 
ENDBRANCH   2  17
BRANCH   3  23
ATOM     23  C   UNL     1      -1.044  -3.070   5.828  0.00  0.00    +0.417 C 
ATOM     24  F   UNL     1      -2.279  -3.199   5.183  0.00  0.00    -0.168 F 
ATOM     25  F   UNL     1      -0.888  -4.111   6.749  0.00  0.00    -0.168 F 
ATOM     26  F   UNL     1      -0.995  -1.843   6.498  0.00  0.00    -0.168 F 
ENDBRANCH   3  23
TORSDOF 5
