REMARK  Name = ZINC38103304
REMARK  4 active torsions:
REMARK  status: ('A' for Active; 'I' for Inactive)
REMARK    1  A    between atoms: C_3  and  N_20
REMARK    2  A    between atoms: C_4  and  C_8
REMARK    3  A    between atoms: N_10  and  C_11
REMARK    4  A    between atoms: C_16  and  O_19
REMARK                            x       y       z     vdW  Elec       q    Type
REMARK                         _______ _______ _______ _____ _____    ______ ____
ROOT
ATOM      1  C   UNL     1       3.706  -0.662  -0.126  0.00  0.00    +0.247 C 
ATOM      2  O   UNL     1       4.744  -0.035  -0.044  0.00  0.00    -0.270 OA
ATOM      3  N   UNL     1       3.738  -2.001  -0.274  0.00  0.00    -0.308 N 
ATOM      4  H   UNL     1       2.909  -2.501  -0.340  0.00  0.00    +0.149 HD
ENDROOT
BRANCH   1   8
ATOM      5  C   UNL     1      -0.021   1.371   0.056  0.00  0.00    +0.040 A 
ATOM      6  C   UNL     1       0.901   1.528   1.075  0.00  0.00    +0.036 A 
ATOM      7  C   UNL     1       2.112   0.871   1.022  0.00  0.00    +0.138 A 
ATOM      8  C   UNL     1       2.409   0.045  -0.064  0.00  0.00    +0.070 A 
ATOM      9  C   UNL     1       1.476  -0.111  -1.090  0.00  0.00    +0.053 A 
ATOM     10  C   UNL     1       0.266   0.553  -1.025  0.00  0.00    +0.124 A 
ATOM     11  F   UNL     1      -0.639   0.403  -2.017  0.00  0.00    -0.205 F 
BRANCH   7  12
ATOM     12  N   UNL     1       3.097   1.042   2.114  0.00  0.00    +0.057 N 
ATOM     13  O   UNL     1       2.892   1.847   2.992  0.00  0.00    -0.126 OA
ATOM     14  O   UNL     1       4.107   0.377   2.127  0.00  0.00    -0.126 OA
ENDBRANCH   7  12
ENDBRANCH   1   8
BRANCH   3  15
ATOM     15  C   UNL     1       5.023  -2.701  -0.336  0.00  0.00    +0.076 C 
ATOM     16  C   UNL     1       5.548  -2.677  -1.773  0.00  0.00    +0.022 C 
ATOM     17  C   UNL     1       4.544  -3.372  -2.694  0.00  0.00    +0.004 C 
ATOM     18  C   UNL     1       4.357  -4.822  -2.244  0.00  0.00    +0.031 C 
ATOM     19  C   UNL     1       3.832  -4.846  -0.807  0.00  0.00    +0.116 C 
ATOM     20  C   UNL     1       4.836  -4.151   0.115  0.00  0.00    +0.053 C 
BRANCH  19  21
ATOM     21  O   UNL     1       3.658  -6.201  -0.386  0.00  0.00    -0.392 OA
ATOM     22  H   UNL     1       3.033  -6.703  -0.927  0.00  0.00    +0.210 HD
ENDBRANCH  19  21
ENDBRANCH   3  15
TORSDOF 4
