REMARK  Name = ZINC09125882
REMARK  9 active torsions:
REMARK  status: ('A' for Active; 'I' for Inactive)
REMARK    1  A    between atoms: C_1  and  C_2
REMARK    2  A    between atoms: C_2  and  C_4
REMARK    3  A    between atoms: C_2  and  N_58
REMARK    4  A    between atoms: C_7  and  S_16
REMARK    5  A    between atoms: N_8  and  C_9
REMARK    6  A    between atoms: S_16  and  C_17
REMARK    7  A    between atoms: C_17  and  C_18
REMARK    8  A    between atoms: N_23  and  C_24
REMARK    9  A    between atoms: C_24  and  C_25
REMARK                            x       y       z     vdW  Elec       q    Type
REMARK                         _______ _______ _______ _____ _____    ______ ____
ROOT
ATOM      1  C   UNL     1       2.076   0.607   0.178  0.00  0.00    +0.125 A 
ATOM      2  N   UNL     1       1.117   1.487   0.245  0.00  0.00    -0.135 NA
ATOM      3  N   UNL     1      -0.011   0.899   0.425  0.00  0.00    -0.122 NA
ATOM      4  C   UNL     1       0.166  -0.400   0.484  0.00  0.00    +0.197 A 
ATOM      5  N   UNL     1       1.505  -0.629   0.328  0.00  0.00    -0.275 N 
ENDROOT
BRANCH   5   6
ATOM      6  C   UNL     1       2.158  -1.871   0.322  0.00  0.00    +0.050 A 
ATOM      7  C   UNL     1       3.068  -2.183   1.322  0.00  0.00    +0.028 A 
ATOM      8  C   UNL     1       3.705  -3.408   1.317  0.00  0.00    +0.022 A 
ATOM      9  C   UNL     1       3.445  -4.320   0.309  0.00  0.00    +0.041 A 
ATOM     10  C   UNL     1       2.542  -4.009  -0.692  0.00  0.00    +0.022 A 
ATOM     11  C   UNL     1       1.899  -2.787  -0.688  0.00  0.00    +0.028 A 
ATOM     12 CL   UNL     1       4.253  -5.857   0.302  0.00  0.00    -0.084 Cl
ENDBRANCH   5   6
BRANCH   1  14
ATOM     13  C   UNL     1       3.781   1.306  -1.481  0.00  0.00    -0.005 C 
ATOM     14  C   UNL     1       3.541   0.895  -0.027  0.00  0.00    -0.002 C 
BRANCH  14  20
ATOM     15  C   UNL     1       5.386   2.276   0.713  0.00  0.00    -0.078 C 
ATOM     16  C   UNL     1       5.750   3.507   1.546  0.00  0.00    -0.019 C 
ATOM     17  C   UNL     1       5.418   3.239   3.016  0.00  0.00    -0.004 C 
ATOM     18  C   UNL     1       3.931   2.893   3.140  0.00  0.00    -0.019 C 
ATOM     19  C   UNL     1       3.620   1.680   2.261  0.00  0.00    -0.078 C 
ATOM     20  N   UNL     1       3.939   2.010   0.856  0.00  0.00    +0.386 N 
ATOM     21  H   UNL     1       3.418   2.852   0.586  0.00  0.00    -0.081 HD
ENDBRANCH  14  20
ENDBRANCH   1  14
BRANCH   4  22
ATOM     22  S   UNL     1      -1.085  -1.618   0.720  0.00  0.00    -0.076 S 
BRANCH  22  23
ATOM     23  C   UNL     1      -2.544  -0.552   0.839  0.00  0.00    +0.173 C 
BRANCH  23  24
ATOM     24  C   UNL     1      -3.771  -1.402   1.049  0.00  0.00    +0.231 C 
ATOM     25  O   UNL     1      -3.670  -2.608   1.112  0.00  0.00    -0.274 OA
ATOM     26  N   UNL     1      -4.981  -0.820   1.167  0.00  0.00    -0.239 N 
ATOM     27  C   UNL     1      -6.078  -1.579   1.354  0.00  0.00    +0.306 C 
ATOM     28  O   UNL     1      -5.977  -2.789   1.417  0.00  0.00    -0.252 OA
ATOM     29  N   UNL     1      -7.288  -0.998   1.472  0.00  0.00    -0.296 N 
ATOM     30  H   UNL     1      -5.062   0.145   1.116  0.00  0.00    +0.159 HD
ATOM     31  H   UNL     1      -7.369  -0.032   1.421  0.00  0.00    +0.151 HD
BRANCH  29  32
ATOM     32  C   UNL     1      -8.481  -1.823   1.676  0.00  0.00    +0.132 C 
BRANCH  32  33
ATOM     33  C   UNL     1      -9.695  -0.936   1.775  0.00  0.00    -0.016 C 
ATOM     34  C   UNL     1     -10.717  -1.132   0.979  0.00  0.00    +0.005 C 
ENDBRANCH  32  33
ENDBRANCH  29  32
ENDBRANCH  23  24
ENDBRANCH  22  23
ENDBRANCH   4  22
TORSDOF 8
