REMARK  Name = ZINC01326088
REMARK  11 active torsions:
REMARK  status: ('A' for Active; 'I' for Inactive)
REMARK    1  A    between atoms: C_1  and  C_2
REMARK    2  A    between atoms: C_2  and  C_3
REMARK    3  A    between atoms: C_3  and  C_5
REMARK    4  A    between atoms: C_3  and  N_19
REMARK    5  A    between atoms: N_9  and  C_10
REMARK    6  A    between atoms: C_10  and  C_11
REMARK    7  A    between atoms: C_14  and  O_17
REMARK    8  A    between atoms: O_17  and  C_18
REMARK    9  A    between atoms: N_19  and  C_20
REMARK   10  A    between atoms: N_19  and  C_37
REMARK   11  A    between atoms: C_20  and  C_21
REMARK                            x       y       z     vdW  Elec       q    Type
REMARK                         _______ _______ _______ _____ _____    ______ ____
ROOT
ATOM      1  N   UNL     1       2.865  -1.026  -2.406  0.00  0.00    +0.391 N 
ATOM      2  H   UNL     1       3.535  -1.595  -1.911  0.00  0.00    -0.080 HD
ENDROOT
BRANCH   1   3
ATOM      3  C   UNL     1       3.441   0.302  -2.655  0.00  0.00    -0.067 C 
ATOM      4  C   UNL     1       3.921   0.906  -1.334  0.00  0.00    -0.015 C 
ATOM      5  C   UNL     1       4.521   2.289  -1.594  0.00  0.00    -0.002 C 
ATOM      6  C   UNL     1       3.458   3.198  -2.214  0.00  0.00    -0.000 C 
ATOM      7  C   UNL     1       2.977   2.594  -3.535  0.00  0.00    -0.002 C 
ATOM      8  C   UNL     1       2.377   1.211  -3.275  0.00  0.00    -0.015 C 
ENDBRANCH   1   3
BRANCH   1   9
ATOM      9  C   UNL     1       1.647  -0.887  -1.597  0.00  0.00    +0.003 C 
BRANCH   9  10
ATOM     10  C   UNL     1       0.543  -0.310  -2.445  0.00  0.00    +0.138 A 
ATOM     11  N   UNL     1       0.434  -0.392  -3.749  0.00  0.00    -0.115 NA
ATOM     12  N   UNL     1      -0.642   0.225  -4.098  0.00  0.00    -0.023 NA
ATOM     13  N   UNL     1      -1.223   0.697  -3.050  0.00  0.00    -0.044 NA
ATOM     14  N   UNL     1      -0.525   0.384  -2.011  0.00  0.00    -0.226 N 
BRANCH  14  15
ATOM     15  C   UNL     1      -0.836   0.723  -0.620  0.00  0.00    +0.182 C 
BRANCH  15  16
ATOM     16  C   UNL     1      -0.361   2.123  -0.326  0.00  0.00    -0.026 A 
ATOM     17  C   UNL     1       0.851   2.322   0.310  0.00  0.00    +0.009 A 
ATOM     18  C   UNL     1       1.288   3.604   0.580  0.00  0.00    +0.046 A 
ATOM     19  C   UNL     1       0.510   4.693   0.213  0.00  0.00    +0.120 A 
ATOM     20  C   UNL     1      -0.705   4.491  -0.425  0.00  0.00    +0.046 A 
ATOM     21  C   UNL     1      -1.135   3.207  -0.698  0.00  0.00    +0.009 A 
BRANCH  19  22
ATOM     22  O   UNL     1       0.938   5.955   0.479  0.00  0.00    -0.495 OA
ATOM     23  C   UNL     1       0.086   7.028   0.072  0.00  0.00    +0.277 C 
ENDBRANCH  19  22
ENDBRANCH  15  16
ENDBRANCH  14  15
ENDBRANCH   9  10
BRANCH   9  25
ATOM     24  C   UNL     1       2.307  -2.810  -0.144  0.00  0.00    +0.002 C 
ATOM     25  C   UNL     1       1.223  -2.261  -1.074  0.00  0.00    -0.011 C 
ENDBRANCH   9  25
ENDBRANCH   1   9
BRANCH   1  26
ATOM     26  C   UNL     1       2.532  -1.664  -3.687  0.00  0.00    -0.036 C 
BRANCH  26  27
ATOM     27  C   UNL     1       3.800  -2.087  -4.382  0.00  0.00    +0.001 A 
ATOM     28  C   UNL     1       4.269  -3.351  -4.224  0.00  0.00    +0.017 A 
ATOM     29  C   UNL     1       5.502  -3.731  -4.913  0.00  0.00    +0.002 A 
ATOM     30  C   UNL     1       6.032  -5.020  -4.786  0.00  0.00    +0.059 A 
ATOM     31  C   UNL     1       7.196  -5.350  -5.448  0.00  0.00    +0.163 A 
ATOM     32  C   UNL     1       7.845  -4.403  -6.245  0.00  0.00    +0.164 A 
ATOM     33  C   UNL     1       7.329  -3.125  -6.374  0.00  0.00    +0.075 A 
ATOM     34  C   UNL     1       6.159  -2.776  -5.713  0.00  0.00    +0.053 A 
ATOM     35  N   UNL     1       5.630  -1.507  -5.831  0.00  0.00    -0.322 N 
ATOM     36  H   UNL     1       6.083  -0.850  -6.383  0.00  0.00    +0.169 HD
ATOM     37  C   UNL     1       4.493  -1.170  -5.198  0.00  0.00    +0.251 A 
ATOM     38  O   UNL     1       4.052  -0.041  -5.330  0.00  0.00    -0.268 OA
ATOM     39  O   UNL     1       8.990  -4.723  -6.907  0.00  0.00    -0.485 OA
ATOM     40  C   UNL     1       9.686  -5.893  -6.463  0.00  0.00    +0.270 C 
ATOM     41  C   UNL     1       8.664  -7.023  -6.286  0.00  0.00    +0.270 C 
ATOM     42  O   UNL     1       7.701  -6.608  -5.312  0.00  0.00    -0.485 OA
ENDBRANCH  26  27
ENDBRANCH   1  26
TORSDOF 9
