REMARK  Name = ZINC36603026
REMARK  12 active torsions:
REMARK  status: ('A' for Active; 'I' for Inactive)
REMARK    1  A    between atoms: C_1  and  C_2
REMARK    2  A    between atoms: C_5  and  C_7
REMARK    3  A    between atoms: C_7  and  N_8
REMARK    4  A    between atoms: N_8  and  C_9
REMARK    5  A    between atoms: C_9  and  C_11
REMARK    6  A    between atoms: C_9  and  C_20
REMARK    7  A    between atoms: C_12  and  O_19
REMARK    8  A    between atoms: C_14  and  O_18
REMARK    9  A    between atoms: C_16  and  O_17
REMARK   10  A    between atoms: N_22  and  C_23
REMARK   11  A    between atoms: C_29  and  C_31
REMARK   12  A    between atoms: C_34  and  N_37
REMARK                            x       y       z     vdW  Elec       q    Type
REMARK                         _______ _______ _______ _____ _____    ______ ____
ROOT
ATOM      1  C   UNL     1       1.956  -2.719  -2.792  0.00  0.00    +0.200 C 
ENDROOT
BRANCH   1   2
ATOM      2  C   UNL     1       3.303  -2.492  -2.157  0.00  0.00    +0.065 A 
ATOM      3  C   UNL     1       4.429  -2.346  -2.953  0.00  0.00    +0.129 A 
ATOM      4  C   UNL     1       5.669  -2.137  -2.369  0.00  0.00    +0.091 A 
ATOM      5  C   UNL     1       5.783  -2.075  -0.988  0.00  0.00    +0.124 A 
ATOM      6  C   UNL     1       4.657  -2.221  -0.192  0.00  0.00    +0.091 A 
ATOM      7  C   UNL     1       3.417  -2.425  -0.776  0.00  0.00    +0.129 A 
BRANCH   7   8
ATOM      8  O   UNL     1       2.312  -2.563   0.003  0.00  0.00    -0.506 OA
ATOM      9  H   UNL     1       2.124  -3.476   0.261  0.00  0.00    +0.292 HD
ENDBRANCH   7   8
BRANCH   5  10
ATOM     10  O   UNL     1       6.999  -1.871  -0.415  0.00  0.00    -0.507 OA
ATOM     11  H   UNL     1       7.218  -0.940  -0.278  0.00  0.00    +0.292 HD
ENDBRANCH   5  10
BRANCH   3  12
ATOM     12  O   UNL     1       4.317  -2.407  -4.306  0.00  0.00    -0.506 OA
ATOM     13  H   UNL     1       4.187  -1.547  -4.729  0.00  0.00    +0.292 HD
ENDBRANCH   3  12
ENDBRANCH   1   2
BRANCH   1  14
ATOM     14  C   UNL     1       1.646  -1.583  -3.733  0.00  0.00    +0.239 C 
ATOM     15  O   UNL     1       1.176  -0.551  -3.303  0.00  0.00    -0.273 OA
ATOM     16  N   UNL     1       1.892  -1.713  -5.051  0.00  0.00    -0.311 N 
ATOM     17  H   UNL     1       2.268  -2.539  -5.395  0.00  0.00    +0.149 HD
BRANCH  16  18
ATOM     18  C   UNL     1       1.591  -0.609  -5.965  0.00  0.00    +0.073 C 
ATOM     19  C   UNL     1       0.120  -0.678  -6.382  0.00  0.00    +0.022 C 
ATOM     20  C   UNL     1      -0.194   0.476  -7.337  0.00  0.00    +0.002 C 
ATOM     21  C   UNL     1       0.694   0.366  -8.578  0.00  0.00    +0.000 C 
ATOM     22  C   UNL     1       2.164   0.435  -8.162  0.00  0.00    +0.002 C 
ATOM     23  C   UNL     1       2.478  -0.718  -7.207  0.00  0.00    +0.022 C 
ENDBRANCH  16  18
ENDBRANCH   1  14
BRANCH   1  24
ATOM     24  N   UNL     1       0.929  -2.783  -1.749  0.00  0.00    -0.274 N 
ATOM     25  C   UNL     1       0.344  -3.960  -1.450  0.00  0.00    +0.248 C 
ATOM     26  O   UNL     1      -0.494  -4.017  -0.572  0.00  0.00    -0.270 OA
BRANCH  25  27
ATOM     27  C   UNL     1       0.723  -5.183  -2.191  0.00  0.00    +0.037 A 
ATOM     28  C   UNL     1       2.057  -5.409  -2.534  0.00  0.00    +0.015 A 
ATOM     29  C   UNL     1       2.404  -6.552  -3.224  0.00  0.00    +0.033 A 
ATOM     30  C   UNL     1       1.433  -7.472  -3.577  0.00  0.00    +0.126 A 
ATOM     31  C   UNL     1       0.109  -7.253  -3.241  0.00  0.00    +0.033 A 
ATOM     32  C   UNL     1      -0.251  -6.118  -2.545  0.00  0.00    +0.015 A 
BRANCH  30  33
ATOM     33  N   UNL     1       1.812  -8.696  -4.319  0.00  0.00    +0.056 N 
ATOM     34  O   UNL     1       2.969  -8.890  -4.614  0.00  0.00    -0.126 OA
ATOM     35  O   UNL     1       0.966  -9.502  -4.628  0.00  0.00    -0.126 OA
ENDBRANCH  30  33
ENDBRANCH  25  27
BRANCH  24  36
ATOM     36  C   UNL     1       0.537  -1.568  -1.031  0.00  0.00    +0.183 C 
BRANCH  36  41
ATOM     37  C   UNL     1      -3.386   0.613  -3.333  0.00  0.00    +0.086 C 
ATOM     38  C   UNL     1      -2.585  -0.255  -2.397  0.00  0.00    +0.102 A 
ATOM     39  C   UNL     1      -3.091  -1.084  -1.467  0.00  0.00    +0.045 A 
ATOM     40  C   UNL     1      -1.991  -1.696  -0.822  0.00  0.00    +0.046 A 
ATOM     41  C   UNL     1      -0.879  -1.203  -1.396  0.00  0.00    +0.122 A 
ATOM     42  O   UNL     1      -1.245  -0.335  -2.354  0.00  0.00    -0.463 OA
ENDBRANCH  36  41
ENDBRANCH  24  36
ENDBRANCH   1  24
TORSDOF 11
