REMARK  Name = ZINC35674766
REMARK  13 active torsions:
REMARK  status: ('A' for Active; 'I' for Inactive)
REMARK    1  A    between atoms: C_1  and  C_2
REMARK    2  A    between atoms: C_2  and  C_3
REMARK    3  A    between atoms: C_3  and  N_4
REMARK    4  A    between atoms: C_12  and  O_30
REMARK    5  A    between atoms: C_13  and  O_28
REMARK    6  A    between atoms: C_16  and  C_18
REMARK    7  A    between atoms: C_18  and  C_20
REMARK    8  A    between atoms: C_18  and  N_22
REMARK    9  A    between atoms: C_20  and  C_21
REMARK   10  A    between atoms: N_25  and  C_26
REMARK   11  A    between atoms: C_26  and  C_27
REMARK   12  A    between atoms: O_28  and  C_29
REMARK   13  A    between atoms: O_30  and  C_31
REMARK                            x       y       z     vdW  Elec       q    Type
REMARK                         _______ _______ _______ _____ _____    ______ ____
ROOT
ATOM      1  N   UNL     1       1.619  -1.738  -3.763  0.00  0.00    -0.299 N 
ATOM      2  C   UNL     1       1.061  -2.308  -2.676  0.00  0.00    +0.303 C 
ATOM      3  O   UNL     1       0.539  -1.613  -1.826  0.00  0.00    -0.253 OA
ATOM      4  N   UNL     1       1.080  -3.648  -2.533  0.00  0.00    -0.276 N 
ATOM      5  C   UNL     1       0.378  -4.309  -1.420  0.00  0.00    +0.114 C 
ATOM      6  C   UNL     1       1.427  -4.988  -0.541  0.00  0.00    +0.054 C 
ATOM      7  C   UNL     1       2.398  -5.779  -1.377  0.00  0.00    -0.037 A 
ATOM      8  C   UNL     1       3.128  -6.777  -0.742  0.00  0.00    +0.053 A 
ATOM      9  C   UNL     1       4.044  -7.536  -1.446  0.00  0.00    +0.162 A 
ATOM     10  C   UNL     1       4.237  -7.298  -2.804  0.00  0.00    +0.162 A 
ATOM     11  C   UNL     1       3.506  -6.308  -3.433  0.00  0.00    +0.055 A 
ATOM     12  C   UNL     1       2.583  -5.551  -2.722  0.00  0.00    -0.018 A 
ATOM     13  C   UNL     1       1.796  -4.506  -3.482  0.00  0.00    +0.128 C 
ATOM     14  H   UNL     1       2.098  -2.285  -4.405  0.00  0.00    +0.150 HD
ENDROOT
BRANCH  10  15
ATOM     15  O   UNL     1       5.138  -8.035  -3.507  0.00  0.00    -0.491 OA
ATOM     16  C   UNL     1       5.280  -7.733  -4.896  0.00  0.00    +0.277 C 
ENDBRANCH  10  15
BRANCH   9  17
ATOM     17  O   UNL     1       4.753  -8.510  -0.816  0.00  0.00    -0.491 OA
ATOM     18  C   UNL     1       4.502  -8.696   0.579  0.00  0.00    +0.277 C 
ENDBRANCH   9  17
BRANCH   1  19
ATOM     19  C   UNL     1       1.503  -0.293  -3.974  0.00  0.00    +0.105 C 
BRANCH  19  21
ATOM     20  C   UNL     1       2.098   1.601  -5.490  0.00  0.00    +0.005 C 
ATOM     21  C   UNL     1       2.219   0.092  -5.269  0.00  0.00    +0.015 C 
ENDBRANCH  19  21
ENDBRANCH   1  19
BRANCH  13  22
ATOM     22  C   UNL     1       0.790  -5.193  -4.407  0.00  0.00    +0.099 C 
BRANCH  22  23
ATOM     23  N   UNL     1      -0.097  -4.187  -4.997  0.00  0.00    -0.294 N 
ATOM     24  C   UNL     1      -1.387  -4.487  -5.244  0.00  0.00    +0.300 C 
ATOM     25  O   UNL     1      -1.816  -5.593  -4.977  0.00  0.00    -0.253 OA
ATOM     26  N   UNL     1      -2.203  -3.562  -5.786  0.00  0.00    -0.300 N 
ATOM     27  H   UNL     1       0.245  -3.304  -5.210  0.00  0.00    +0.151 HD
ATOM     28  H   UNL     1      -1.861  -2.679  -5.999  0.00  0.00    +0.150 HD
BRANCH  26  29
ATOM     29  C   UNL     1      -3.606  -3.888  -6.055  0.00  0.00    +0.102 C 
ATOM     30  C   UNL     1      -4.304  -2.672  -6.666  0.00  0.00    +0.024 C 
ENDBRANCH  26  29
ENDBRANCH  22  23
BRANCH  22  31
ATOM     31  C   UNL     1       1.539  -5.928  -5.520  0.00  0.00    +0.021 C 
ATOM     32  C   UNL     1       0.532  -6.618  -6.443  0.00  0.00    +0.006 C 
ENDBRANCH  22  31
ENDBRANCH  13  22
TORSDOF 8
