REMARK  Name = ZINC09708768
REMARK  8 active torsions:
REMARK  status: ('A' for Active; 'I' for Inactive)
REMARK    1  A    between atoms: C_4  and  N_7
REMARK    2  A    between atoms: C_12  and  C_14
REMARK    3  A    between atoms: C_12  and  C_30
REMARK    4  A    between atoms: C_12  and  N_61
REMARK    5  A    between atoms: C_14  and  N_15
REMARK    6  A    between atoms: C_16  and  C_18
REMARK    7  A    between atoms: N_20  and  C_21
REMARK    8  A    between atoms: C_24  and  N_27
REMARK                            x       y       z     vdW  Elec       q    Type
REMARK                         _______ _______ _______ _____ _____    ______ ____
ROOT
ATOM      1  C   UNL     1       4.962  -7.150   0.128  0.00  0.00    -0.019 C 
ENDROOT
BRANCH   1   7
ATOM      2  N   UNL     1       7.606  -4.835   2.471  0.00  0.00    -0.333 N 
ATOM      3  C   UNL     1       7.812  -6.290   2.435  0.00  0.00    +0.086 C 
ATOM      4  C   UNL     1       7.113  -6.870   1.204  0.00  0.00    -0.059 C 
ATOM      5  C   UNL     1       5.476  -5.090   1.293  0.00  0.00    -0.059 C 
ATOM      6  C   UNL     1       6.174  -4.509   2.525  0.00  0.00    +0.086 C 
ATOM      7  N   UNL     1       5.671  -6.555   1.281  0.00  0.00    +0.387 N 
ATOM      8  H   UNL     1       5.289  -6.950   2.148  0.00  0.00    -0.081 HD
BRANCH   2  12
ATOM      9  C   UNL     1       9.646  -3.119   5.671  0.00  0.00    +0.000 A 
ATOM     10  C   UNL     1       8.903  -2.322   4.819  0.00  0.00    +0.002 A 
ATOM     11  C   UNL     1       8.226  -2.888   3.756  0.00  0.00    +0.023 A 
ATOM     12  C   UNL     1       8.291  -4.259   3.544  0.00  0.00    +0.030 A 
ATOM     13  C   UNL     1       9.033  -5.058   4.405  0.00  0.00    +0.023 A 
ATOM     14  C   UNL     1       9.713  -4.484   5.462  0.00  0.00    +0.002 A 
ENDBRANCH   2  12
ENDBRANCH   1   7
BRANCH   1  15
ATOM     15  C   UNL     1       5.156  -8.644   0.152  0.00  0.00    -0.041 A 
ATOM     16  C   UNL     1       5.349  -9.346  -1.028  0.00  0.00    +0.005 A 
ATOM     17  C   UNL     1       5.528 -10.719  -0.958  0.00  0.00    +0.020 A 
ATOM     18  C   UNL     1       5.498 -11.340   0.277  0.00  0.00    +0.111 A 
ATOM     19  N   UNL     1       5.306 -10.641   1.379  0.00  0.00    -0.263 NA
ATOM     20  C   UNL     1       5.137  -9.333   1.350  0.00  0.00    +0.112 A 
ENDBRANCH   1  15
BRANCH   1  21
ATOM     21  C   UNL     1       3.470  -6.827   0.242  0.00  0.00    +0.094 C 
BRANCH  21  22
ATOM     22  N   UNL     1       2.769  -7.332  -0.941  0.00  0.00    -0.309 N 
ATOM     23  C   UNL     1       1.452  -7.094  -1.097  0.00  0.00    +0.299 C 
ATOM     24  O   UNL     1       0.847  -6.460  -0.257  0.00  0.00    -0.265 OA
ATOM     25  H   UNL     1       3.253  -7.838  -1.612  0.00  0.00    +0.149 HD
BRANCH  23  26
ATOM     26  C   UNL     1       0.738  -7.609  -2.303  0.00  0.00    +0.303 C 
ATOM     27  O   UNL     1       1.343  -8.242  -3.143  0.00  0.00    -0.265 OA
ATOM     28  N   UNL     1      -0.580  -7.370  -2.459  0.00  0.00    -0.278 N 
ATOM     29  H   UNL     1      -1.049  -6.806  -1.824  0.00  0.00    +0.155 HD
BRANCH  28  30
ATOM     30  C   UNL     1      -1.269  -7.935  -3.535  0.00  0.00    +0.034 A 
ATOM     31  C   UNL     1      -0.905  -9.187  -4.015  0.00  0.00    +0.025 A 
ATOM     32  C   UNL     1      -1.589  -9.742  -5.078  0.00  0.00    +0.034 A 
ATOM     33  C   UNL     1      -2.636  -9.054  -5.664  0.00  0.00    +0.126 A 
ATOM     34  C   UNL     1      -3.001  -7.808  -5.189  0.00  0.00    +0.034 A 
ATOM     35  C   UNL     1      -2.321  -7.247  -4.126  0.00  0.00    +0.025 A 
BRANCH  33  36
ATOM     36  N   UNL     1      -3.367  -9.653  -6.804  0.00  0.00    +0.056 N 
ATOM     37  O   UNL     1      -3.046 -10.750  -7.224  0.00  0.00    -0.126 OA
ATOM     38  O   UNL     1      -4.289  -9.048  -7.321  0.00  0.00    -0.126 OA
ENDBRANCH  33  36
ENDBRANCH  28  30
ENDBRANCH  23  26
ENDBRANCH  21  22
ENDBRANCH   1  21
TORSDOF 8
