REMARK  Name = ZINC05383731
REMARK  7 active torsions:
REMARK  status: ('A' for Active; 'I' for Inactive)
REMARK    1  A    between atoms: C_1  and  C_2
REMARK    2  A    between atoms: C_2  and  C_3
REMARK    3  A    between atoms: C_2  and  C_4
REMARK    4  A    between atoms: C_2  and  C_5
REMARK    5  A    between atoms: C_14  and  O_26
REMARK    6  A    between atoms: C_16  and  C_19
REMARK    7  A    between atoms: C_24  and  O_25
REMARK                            x       y       z     vdW  Elec       q    Type
REMARK                         _______ _______ _______ _____ _____    ______ ____
ROOT
ATOM      1  C   UNL     1      -0.750   1.591  -1.235  0.00  0.00    -0.000 C 
ATOM      2  C   UNL     1      -0.013   1.086   0.008  0.00  0.00    +0.009 C 
ATOM      3  C   UNL     1      -0.725   1.577   1.269  0.00  0.00    +0.037 C 
ATOM      4  C   UNL     1      -2.198   1.203   1.181  0.00  0.00    -0.023 A 
ATOM      5  C   UNL     1      -2.763   0.888  -0.008  0.00  0.00    -0.004 A 
ATOM      6  S   UNL     1      -4.457   0.528   0.373  0.00  0.00    -0.078 S 
ATOM      7  C   UNL     1      -4.412   0.791   2.062  0.00  0.00    +0.080 A 
ATOM      8  C   UNL     1      -3.086   1.154   2.329  0.00  0.00    +0.068 A 
ATOM      9  C   UNL     1      -2.729   1.441   3.742  0.00  0.00    +0.220 C 
ATOM     10  N   UNL     1      -3.607   1.149   4.662  0.00  0.00    -0.223 NA
ATOM     11  C   UNL     1      -4.873   0.470   4.417  0.00  0.00    +0.227 C 
ATOM     12  N   UNL     1      -5.366   0.711   3.049  0.00  0.00    -0.313 N 
ATOM     13  C   UNL     1      -2.093   0.855  -1.347  0.00  0.00    +0.046 C 
ATOM     14  H   UNL     1      -6.445   0.816   2.863  0.00  0.00    +0.149 HD
ENDROOT
BRANCH  11  15
ATOM     15  C   UNL     1      -4.682  -1.012   4.617  0.00  0.00    +0.036 A 
ATOM     16  C   UNL     1      -5.373  -1.911   3.827  0.00  0.00    +0.011 A 
ATOM     17  C   UNL     1      -5.199  -3.270   4.010  0.00  0.00    +0.001 A 
ATOM     18  C   UNL     1      -4.332  -3.733   4.983  0.00  0.00    +0.004 A 
ATOM     19  C   UNL     1      -3.639  -2.839   5.775  0.00  0.00    +0.046 A 
ATOM     20  C   UNL     1      -3.809  -1.474   5.590  0.00  0.00    +0.124 A 
BRANCH  20  21
ATOM     21  O   UNL     1      -3.124  -0.592   6.364  0.00  0.00    -0.506 OA
ATOM     22  H   UNL     1      -2.431  -0.960   7.136  0.00  0.00    +0.292 HD
ENDBRANCH  20  21
ENDBRANCH  11  15
BRANCH   1  24
ATOM     23  C   UNL     1       0.331  -0.194  -2.608  0.00  0.00    +0.011 C 
ATOM     24  C   UNL     1       0.093   1.312  -2.481  0.00  0.00    -0.035 C 
ATOM     25  C   UNL     1      -0.646   1.818  -3.721  0.00  0.00    +0.011 C 
ATOM     26  C   UNL     1       1.437   2.032  -2.359  0.00  0.00    +0.011 C 
ENDBRANCH   1  24
BRANCH   9  27
ATOM     27  O   UNL     1      -1.534   1.988   4.065  0.00  0.00    -0.492 OA
ATOM     28  H   UNL     1      -1.289   2.193   5.117  0.00  0.00    +0.294 HD
ENDBRANCH   9  27
TORSDOF 4
