REMARK  Name = ZINC06787691
REMARK  3 active torsions:
REMARK  status: ('A' for Active; 'I' for Inactive)
REMARK    1  A    between atoms: C_1  and  C_2
REMARK    2  A    between atoms: C_7  and  C_23
REMARK    3  A    between atoms: C_10  and  C_13
REMARK                            x       y       z     vdW  Elec       q    Type
REMARK                         _______ _______ _______ _____ _____    ______ ____
ROOT
ATOM      1  C   UNL     1      -0.018   1.503   0.010  0.00  0.00    +0.067 C 
ATOM      2  C   UNL     1       0.002  -0.004   0.002  0.00  0.00    +0.062 A 
ATOM      3  C   UNL     1       0.008  -0.817  -1.139  0.00  0.00    +0.067 A 
ATOM      4  C   UNL     1       0.027  -2.103  -0.724  0.00  0.00    +0.118 A 
ATOM      5  N   UNL     1       0.035  -2.104   0.635  0.00  0.00    -0.242 N 
ATOM      6  N   UNL     1       0.023  -0.777   1.061  0.00  0.00    -0.174 NA
ATOM      7  C   UNL     1       0.059  -3.323   1.448  0.00  0.00    +0.177 C 
ATOM      8  C   UNL     1       0.552  -4.488   0.583  0.00  0.00    +0.055 C 
ATOM      9  C   UNL     1      -0.231  -4.527  -0.734  0.00  0.00    +0.080 C 
ATOM     10  N   UNL     1       0.037  -3.280  -1.476  0.00  0.00    -0.326 N 
ATOM     11  H   UNL     1       0.210  -3.277  -2.431  0.00  0.00    +0.148 HD
ENDROOT
BRANCH   9  12
ATOM     12  C   UNL     1       0.219  -5.731  -1.564  0.00  0.00    -0.010 C 
ATOM     13  C   UNL     1       1.714  -5.612  -1.866  0.00  0.00    +0.012 C 
ATOM     14  C   UNL     1       2.164  -6.816  -2.696  0.00  0.00    -0.010 C 
ATOM     15  C   UNL     1       1.380  -6.852  -4.010  0.00  0.00    +0.007 C 
ATOM     16  C   UNL     1      -0.116  -6.971  -3.708  0.00  0.00    -0.010 C 
ATOM     17  C   UNL     1      -0.566  -5.767  -2.877  0.00  0.00    +0.012 C 
ATOM     18  C   UNL     1      -0.376  -8.258  -2.922  0.00  0.00    +0.007 C 
ATOM     19  C   UNL     1       0.408  -8.222  -1.609  0.00  0.00    -0.010 C 
ATOM     20  C   UNL     1       1.903  -8.103  -1.911  0.00  0.00    +0.007 C 
ATOM     21  C   UNL     1      -0.042  -7.018  -0.779  0.00  0.00    +0.012 C 
ENDBRANCH   9  12
BRANCH   7  22
ATOM     22  C   UNL     1       1.004  -3.127   2.636  0.00  0.00    +0.365 C 
ATOM     23  F   UNL     1       0.557  -2.056   3.416  0.00  0.00    -0.207 F 
ATOM     24  F   UNL     1       1.026  -4.292   3.411  0.00  0.00    -0.207 F 
ENDBRANCH   7  22
TORSDOF 2
