REMARK  Name = ZINC08435378
REMARK  10 active torsions:
REMARK  status: ('A' for Active; 'I' for Inactive)
REMARK    1  A    between atoms: C_1  and  C_2
REMARK    2  A    between atoms: C_5  and  C_8
REMARK    3  A    between atoms: N_10  and  C_11
REMARK    4  A    between atoms: C_11  and  C_22
REMARK    5  A    between atoms: C_12  and  C_13
REMARK    6  A    between atoms: C_17  and  N_19
REMARK    7  A    between atoms: N_24  and  C_25
REMARK    8  A    between atoms: C_26  and  C_38
REMARK    9  A    between atoms: N_27  and  C_37
REMARK   10  A    between atoms: N_28  and  C_31
REMARK                            x       y       z     vdW  Elec       q    Type
REMARK                         _______ _______ _______ _____ _____    ______ ____
ROOT
ATOM      1  C   UNL     1      -1.051   6.126   1.262  0.00  0.00    +0.097 C 
ATOM      2  C   UNL     1       0.018   5.354   0.959  0.00  0.00    +0.036 C 
ENDROOT
BRANCH   2   3
ATOM      3  C   UNL     1       0.069   3.956   1.413  0.00  0.00    -0.021 A 
ATOM      4  C   UNL     1      -0.696   3.544   2.509  0.00  0.00    +0.008 A 
ATOM      5  C   UNL     1      -0.648   2.230   2.924  0.00  0.00    +0.003 A 
ATOM      6  C   UNL     1       0.162   1.322   2.266  0.00  0.00    +0.033 A 
ATOM      7  C   UNL     1       0.922   1.721   1.181  0.00  0.00    +0.127 A 
ATOM      8  C   UNL     1       0.881   3.030   0.750  0.00  0.00    +0.040 A 
BRANCH   7   9
ATOM      9  N   UNL     1       1.781   0.740   0.480  0.00  0.00    +0.056 N 
ATOM     10  O   UNL     1       1.818  -0.417   0.859  0.00  0.00    -0.126 OA
ATOM     11  O   UNL     1       2.450   1.090  -0.476  0.00  0.00    -0.126 OA
ENDBRANCH   7   9
ENDBRANCH   2   3
BRANCH   1  14
ATOM     12  C   UNL     1      -2.649   6.039   3.020  0.00  0.00    +0.248 C 
ATOM     13  O   UNL     1      -2.043   6.919   3.600  0.00  0.00    -0.270 OA
ATOM     14  N   UNL     1      -2.180   5.553   1.854  0.00  0.00    -0.277 N 
ATOM     15  H   UNL     1      -2.627   4.806   1.425  0.00  0.00    +0.155 HD
BRANCH  12  20
ATOM     16  C   UNL     1      -7.522   3.950   5.256  0.00  0.00    +0.044 C 
ATOM     17  C   UNL     1      -6.246   4.497   4.670  0.00  0.00    -0.050 A 
ATOM     18  C   UNL     1      -5.619   5.573   5.272  0.00  0.00    +0.004 A 
ATOM     19  C   UNL     1      -4.450   6.079   4.741  0.00  0.00    +0.013 A 
ATOM     20  C   UNL     1      -3.901   5.502   3.595  0.00  0.00    +0.037 A 
ATOM     21  C   UNL     1      -4.542   4.419   2.990  0.00  0.00    +0.013 A 
ATOM     22  C   UNL     1      -5.707   3.920   3.534  0.00  0.00    +0.004 A 
ENDBRANCH  12  20
ENDBRANCH   1  14
BRANCH   1  23
ATOM     23  C   UNL     1      -1.025   7.566   0.968  0.00  0.00    +0.263 C 
ATOM     24  O   UNL     1      -1.987   8.260   1.240  0.00  0.00    -0.268 OA
ATOM     25  N   UNL     1       0.064   8.118   0.397  0.00  0.00    -0.275 N 
ATOM     26  H   UNL     1       0.818   7.560   0.150  0.00  0.00    +0.155 HD
BRANCH  25  27
ATOM     27  C   UNL     1       0.107   9.505   0.160  0.00  0.00    +0.122 A 
ATOM     28  C   UNL     1       0.337  10.109  -1.028  0.00  0.00    +0.059 A 
ATOM     29  N   UNL     1       0.295  11.466  -0.845  0.00  0.00    -0.282 N 
ATOM     30  N   UNL     1       0.041  11.739   0.504  0.00  0.00    -0.216 N 
ATOM     31  C   UNL     1      -0.081  10.562   1.154  0.00  0.00    +0.293 A 
ATOM     32  O   UNL     1      -0.306  10.410   2.341  0.00  0.00    -0.264 OA
ATOM     33  C   UNL     1       0.493  12.471  -1.892  0.00  0.00    +0.171 C 
ATOM     34  C   UNL     1       0.593   9.406  -2.337  0.00  0.00    +0.067 C 
BRANCH  30  35
ATOM     35  C   UNL     1      -0.068  13.009   1.078  0.00  0.00    +0.067 A 
ATOM     36  C   UNL     1       0.872  13.988   0.785  0.00  0.00    +0.028 A 
ATOM     37  C   UNL     1       0.759  15.243   1.350  0.00  0.00    +0.002 A 
ATOM     38  C   UNL     1      -0.283  15.523   2.215  0.00  0.00    +0.000 A 
ATOM     39  C   UNL     1      -1.218  14.548   2.513  0.00  0.00    +0.002 A 
ATOM     40  C   UNL     1      -1.114  13.293   1.948  0.00  0.00    +0.028 A 
ENDBRANCH  30  35
ENDBRANCH  25  27
ENDBRANCH   1  23
TORSDOF 7
