REMARK  Name = ZINC38976139
REMARK  8 active torsions:
REMARK  status: ('A' for Active; 'I' for Inactive)
REMARK    1  A    between atoms: C_1  and  O_2
REMARK    2  A    between atoms: O_2  and  C_3
REMARK    3  A    between atoms: C_6  and  S_9
REMARK    4  A    between atoms: S_9  and  N_12
REMARK    5  A    between atoms: C_14  and  N_24
REMARK    6  A    between atoms: N_24  and  C_25
REMARK    7  A    between atoms: C_25  and  C_26
REMARK    8  A    between atoms: C_26  and  C_27
REMARK                            x       y       z     vdW  Elec       q    Type
REMARK                         _______ _______ _______ _____ _____    ______ ____
ROOT
ATOM      1  N   UNL     1       1.565  -2.916   5.681  0.00  0.00    -0.112 NA
ATOM      2  C   UNL     1       1.898  -3.495   6.797  0.00  0.00    +0.167 C 
ATOM      3  C   UNL     1       0.866  -3.735   7.875  0.00  0.00    +0.217 C 
ATOM      4  N   UNL     1       1.307  -4.395   9.114  0.00  0.00    -0.362 N 
ATOM      5  C   UNL     1       2.559  -4.739   9.223  0.00  0.00    +0.060 A 
ATOM      6  C   UNL     1       3.051  -5.401  10.441  0.00  0.00    +0.027 A 
ATOM      7  C   UNL     1       4.356  -5.743  10.517  0.00  0.00    +0.002 A 
ATOM      8  C   UNL     1       5.250  -5.483   9.466  0.00  0.00    +0.002 A 
ATOM      9  C   UNL     1       4.873  -4.879   8.318  0.00  0.00    +0.028 A 
ATOM     10  C   UNL     1       3.526  -4.477   8.129  0.00  0.00    +0.064 A 
ATOM     11  N   UNL     1       3.163  -3.893   7.006  0.00  0.00    -0.338 N 
ATOM     12  H   UNL     1       0.680  -4.570   9.833  0.00  0.00    +0.162 HD
ATOM     13  H   UNL     1       3.827  -3.743   6.314  0.00  0.00    +0.167 HD
ENDROOT
BRANCH   1  14
ATOM     14  S   UNL     1       2.704  -2.665   4.505  0.00  0.00    +0.100 S 
ATOM     15  O   UNL     1       3.098  -3.949   4.041  0.00  0.00    -0.146 OA
ATOM     16  O   UNL     1       3.632  -1.728   5.033  0.00  0.00    -0.146 OA
BRANCH  14  20
ATOM     17  C   UNL     1       0.626  -0.618   1.042  0.00  0.00    +0.120 A 
ATOM     18  C   UNL     1       1.202   0.138   2.051  0.00  0.00    +0.047 A 
ATOM     19  C   UNL     1       1.835  -0.488   3.107  0.00  0.00    +0.032 A 
ATOM     20  C   UNL     1       1.895  -1.869   3.158  0.00  0.00    +0.113 A 
ATOM     21  C   UNL     1       1.322  -2.625   2.152  0.00  0.00    +0.032 A 
ATOM     22  C   UNL     1       0.682  -2.003   1.098  0.00  0.00    +0.047 A 
BRANCH  17  24
ATOM     23  C   UNL     1      -0.017   1.425   0.010  0.00  0.00    +0.277 C 
ATOM     24  O   UNL     1       0.002  -0.004   0.002  0.00  0.00    -0.495 OA
ENDBRANCH  17  24
ENDBRANCH  14  20
ENDBRANCH   1  14
BRANCH   3  25
ATOM     25  N   UNL     1      -0.209  -4.550   7.292  0.00  0.00    -0.290 NA
ATOM     26  H   UNL     1      -0.115  -4.610   6.290  0.00  0.00    +0.124 HD
BRANCH  25  27
ATOM     27  C   UNL     1      -1.529  -4.024   7.666  0.00  0.00    +0.087 C 
BRANCH  27  28
ATOM     28  C   UNL     1      -2.621  -4.896   7.042  0.00  0.00    +0.045 C 
BRANCH  28  29
ATOM     29  C   UNL     1      -3.975  -4.357   7.426  0.00  0.00    -0.072 C 
ATOM     30  C   UNL     1      -4.565  -3.555   6.598  0.00  0.00    -0.028 C 
ATOM     31  C   UNL     1      -5.907  -2.931   6.845  0.00  0.00    +0.027 C 
ATOM     32  C   UNL     1      -6.642  -3.683   7.957  0.00  0.00    +0.004 C 
ATOM     33  C   UNL     1      -5.688  -3.839   9.149  0.00  0.00    +0.005 C 
ATOM     34  C   UNL     1      -4.558  -4.788   8.740  0.00  0.00    +0.030 C 
ENDBRANCH  28  29
ENDBRANCH  27  28
ENDBRANCH  25  27
ENDBRANCH   3  25
TORSDOF 7
