REMARK  Name = ZINC42015413
REMARK  4 active torsions:
REMARK  status: ('A' for Active; 'I' for Inactive)
REMARK    1  A    between atoms: C_1  and  C_2
REMARK    2  A    between atoms: C_5  and  C_9
REMARK    3  A    between atoms: C_7  and  N_8
REMARK    4  A    between atoms: N_13  and  C_14
REMARK                            x       y       z     vdW  Elec       q    Type
REMARK                         _______ _______ _______ _____ _____    ______ ____
ROOT
ATOM      1  C   UNL     1      -0.095  -4.270  -0.058  0.00  0.00    +0.187 A 
ATOM      2  N   UNL     1      -0.203  -5.062   0.988  0.00  0.00    -0.108 NA
ATOM      3  N   UNL     1       0.056  -6.276   0.663  0.00  0.00    -0.022 NA
ATOM      4  N   UNL     1       0.344  -6.357  -0.591  0.00  0.00    -0.038 NA
ATOM      5  N   UNL     1       0.253  -5.057  -1.116  0.00  0.00    -0.187 N 
ENDROOT
BRANCH   5   6
ATOM      6  C   UNL     1       0.475  -4.655  -2.442  0.00  0.00    +0.139 A 
ATOM      7  C   UNL     1       1.452  -3.708  -2.728  0.00  0.00    +0.152 A 
ATOM      8  C   UNL     1       1.668  -3.314  -4.037  0.00  0.00    +0.041 A 
ATOM      9  C   UNL     1       0.914  -3.861  -5.059  0.00  0.00    +0.006 A 
ATOM     10  C   UNL     1      -0.059  -4.802  -4.778  0.00  0.00    +0.041 A 
ATOM     11  C   UNL     1      -0.277  -5.206  -3.472  0.00  0.00    +0.152 A 
ATOM     12  F   UNL     1      -1.224  -6.130  -3.199  0.00  0.00    -0.203 F 
ATOM     13  F   UNL     1       2.189  -3.173  -1.730  0.00  0.00    -0.203 F 
ENDBRANCH   5   6
BRANCH   1  18
ATOM     14  C   UNL     1      -0.957   1.425  -0.170  0.00  0.00    +0.045 C 
ATOM     15  C   UNL     1      -0.731  -0.065  -0.139  0.00  0.00    -0.030 A 
ATOM     16  C   UNL     1      -0.775  -0.793  -1.313  0.00  0.00    +0.006 A 
ATOM     17  C   UNL     1      -0.569  -2.157  -1.292  0.00  0.00    +0.012 A 
ATOM     18  C   UNL     1      -0.315  -2.807  -0.083  0.00  0.00    +0.023 A 
ATOM     19  C   UNL     1      -0.270  -2.073   1.101  0.00  0.00    +0.034 A 
ATOM     20  C   UNL     1      -0.473  -0.701   1.070  0.00  0.00    +0.028 A 
BRANCH  20  21
ATOM     21  N   UNL     1      -0.424   0.040   2.253  0.00  0.00    -0.358 N 
ATOM     22  H   UNL     1      -0.570   0.998   2.231  0.00  0.00    +0.142 HD
ATOM     23  H   UNL     1      -0.244  -0.405   3.096  0.00  0.00    +0.142 HD
ENDBRANCH  20  21
ENDBRANCH   1  18
TORSDOF 3
