REMARK  Name = ZINC18257800
REMARK  7 active torsions:
REMARK  status: ('A' for Active; 'I' for Inactive)
REMARK    1  A    between atoms: C_1  and  C_2
REMARK    2  A    between atoms: C_2  and  C_4
REMARK    3  A    between atoms: C_2  and  S_20
REMARK    4  A    between atoms: C_10  and  C_15
REMARK    5  A    between atoms: S_20  and  C_21
REMARK    6  A    between atoms: C_24  and  C_27
REMARK    7  A    between atoms: N_25  and  N_26
REMARK                            x       y       z     vdW  Elec       q    Type
REMARK                         _______ _______ _______ _____ _____    ______ ____
ROOT
ATOM      1  C   UNL     1       0.924  -6.875   1.315  0.00  0.00    +0.027 C 
ATOM      2  C   UNL     1       1.586  -6.960  -0.062  0.00  0.00    +0.117 C 
ENDROOT
BRANCH   2   3
ATOM      3  C   UNL     1       2.191  -8.328  -0.245  0.00  0.00    +0.124 A 
ATOM      4  N   UNL     1       3.505  -8.521   0.037  0.00  0.00    -0.309 N 
ATOM      5  H   UNL     1       4.037  -7.774   0.354  0.00  0.00    +0.170 HD
ATOM      6  C   UNL     1       4.082  -9.728  -0.108  0.00  0.00    +0.260 A 
ATOM      7  O   UNL     1       5.262  -9.885   0.155  0.00  0.00    -0.267 OA
ATOM      8  C   UNL     1       3.291 -10.822  -0.581  0.00  0.00    +0.083 A 
ATOM      9  C   UNL     1       3.682 -12.207  -0.823  0.00  0.00    +0.039 A 
ATOM     10  C   UNL     1       2.745 -13.078  -1.277  0.00  0.00    +0.059 A 
ATOM     11  S   UNL     1       1.277 -12.076  -1.404  0.00  0.00    -0.076 S 
ATOM     12  C   UNL     1       1.944 -10.528  -0.851  0.00  0.00    +0.116 A 
ATOM     13  N   UNL     1       1.443  -9.308  -0.678  0.00  0.00    -0.225 NA
BRANCH   9  14
ATOM     14  C   UNL     1       5.069 -12.652  -0.578  0.00  0.00    +0.136 A 
ATOM     15  C   UNL     1       5.442 -13.740   0.148  0.00  0.00    +0.050 A 
ATOM     16  C   UNL     1       6.851 -13.785   0.116  0.00  0.00    +0.042 A 
ATOM     17  C   UNL     1       7.263 -12.730  -0.612  0.00  0.00    +0.196 A 
ATOM     18  O   UNL     1       6.184 -12.047  -1.031  0.00  0.00    -0.463 OA
ENDBRANCH   9  14
ENDBRANCH   2   3
BRANCH   2  19
ATOM     19  S   UNL     1       2.885  -5.705  -0.185  0.00  0.00    -0.074 S 
BRANCH  19  20
ATOM     20  C   UNL     1       1.907  -4.243  -0.091  0.00  0.00    +0.209 A 
ATOM     21  N   UNL     1       0.599  -4.186   0.034  0.00  0.00    -0.121 NA
ATOM     22  N   UNL     1       0.213  -2.961   0.072  0.00  0.00    -0.127 NA
ATOM     23  C   UNL     1       1.249  -2.160  -0.026  0.00  0.00    +0.183 A 
ATOM     24  N   UNL     1       2.365  -2.957  -0.139  0.00  0.00    -0.224 N 
BRANCH  23  25
ATOM     25  C   UNL     1       1.221  -0.683  -0.022  0.00  0.00    +0.039 A 
ATOM     26  C   UNL     1       1.944   0.035  -0.977  0.00  0.00    +0.013 A 
ATOM     27  C   UNL     1       1.914   1.414  -0.968  0.00  0.00    +0.001 A 
ATOM     28  C   UNL     1       1.169   2.087  -0.015  0.00  0.00    +0.001 A 
ATOM     29  C   UNL     1       0.450   1.383   0.933  0.00  0.00    +0.021 A 
ATOM     30  C   UNL     1       0.471   0.003   0.936  0.00  0.00    +0.052 A 
ATOM     31 CL   UNL     1      -0.433  -0.879   2.127  0.00  0.00    -0.083 Cl
ENDBRANCH  23  25
BRANCH  24  32
ATOM     32  N   UNL     1       3.662  -2.547  -0.269  0.00  0.00    -0.295 N 
ATOM     33  H   UNL     1       4.124  -2.521   0.627  0.00  0.00    +0.163 HD
ATOM     34  H   UNL     1       4.163  -3.135  -0.918  0.00  0.00    +0.163 HD
ENDBRANCH  24  32
ENDBRANCH  19  20
ENDBRANCH   2  19
TORSDOF 6
