REMARK  Name = ZINC01027494
REMARK  3 active torsions:
REMARK  status: ('A' for Active; 'I' for Inactive)
REMARK    1  A    between atoms: C_6  and  N_11
REMARK    2  A    between atoms: N_11  and  C_12
REMARK    3  A    between atoms: N_17  and  C_20
REMARK                            x       y       z     vdW  Elec       q    Type
REMARK                         _______ _______ _______ _____ _____    ______ ____
ROOT
ATOM      1  C   UNL     1       4.875  -4.274  -0.006  0.00  0.00    +0.166 C 
ATOM      2  C   UNL     1       6.338  -4.508   0.421  0.00  0.00    +0.128 C 
ATOM      3  C   UNL     1       6.949  -5.208  -0.773  0.00  0.00    +0.228 C 
ATOM      4  O   UNL     1       8.101  -5.577  -0.858  0.00  0.00    -0.275 OA
ATOM      5  N   UNL     1       6.016  -5.355  -1.722  0.00  0.00    -0.209 N 
ATOM      6  C   UNL     1       4.809  -4.866  -1.397  0.00  0.00    +0.247 C 
ATOM      7  O   UNL     1       3.823  -4.894  -2.103  0.00  0.00    -0.273 OA
ENDROOT
BRANCH   5   8
ATOM      8  C   UNL     1       6.277  -5.970  -2.954  0.00  0.00    +0.045 A 
ATOM      9  C   UNL     1       6.254  -5.206  -4.126  0.00  0.00    +0.024 A 
ATOM     10  C   UNL     1       6.503  -5.775  -5.336  0.00  0.00    +0.010 A 
ATOM     11  C   UNL     1       6.790  -7.149  -5.415  0.00  0.00    -0.018 A 
ATOM     12  C   UNL     1       7.053  -7.768  -6.649  0.00  0.00    +0.008 A 
ATOM     13  C   UNL     1       7.327  -9.101  -6.689  0.00  0.00    +0.001 A 
ATOM     14  C   UNL     1       7.351  -9.864  -5.523  0.00  0.00    +0.001 A 
ATOM     15  C   UNL     1       7.101  -9.299  -4.310  0.00  0.00    +0.008 A 
ATOM     16  C   UNL     1       6.814  -7.925  -4.229  0.00  0.00    -0.016 A 
ATOM     17  C   UNL     1       6.558  -7.307  -2.994  0.00  0.00    +0.032 A 
ENDBRANCH   5   8
BRANCH   1  18
ATOM     18  N   UNL     1       4.572  -2.841  -0.041  0.00  0.00    -0.333 N 
ATOM     19  H   UNL     1       5.288  -2.196  -0.143  0.00  0.00    +0.147 HD
BRANCH  18  25
ATOM     20  C   UNL     1      -0.999   0.195   0.381  0.00  0.00    +0.001 A 
ATOM     21  C   UNL     1       0.019   1.135   0.236  0.00  0.00    +0.001 A 
ATOM     22  C   UNL     1       1.319   0.748   0.122  0.00  0.00    +0.008 A 
ATOM     23  C   UNL     1       1.642  -0.620   0.152  0.00  0.00    -0.016 A 
ATOM     24  C   UNL     1       2.973  -1.056   0.038  0.00  0.00    +0.031 A 
ATOM     25  C   UNL     1       3.250  -2.405   0.072  0.00  0.00    +0.028 A 
ATOM     26  C   UNL     1       2.220  -3.342   0.218  0.00  0.00    +0.023 A 
ATOM     27  C   UNL     1       0.925  -2.946   0.330  0.00  0.00    +0.010 A 
ATOM     28  C   UNL     1       0.607  -1.577   0.300  0.00  0.00    -0.018 A 
ATOM     29  C   UNL     1      -0.724  -1.138   0.414  0.00  0.00    +0.008 A 
ENDBRANCH  18  25
ENDBRANCH   1  18
TORSDOF 3
