REMARK  Name = ZINC19298315
REMARK  7 active torsions:
REMARK  status: ('A' for Active; 'I' for Inactive)
REMARK    1  A    between atoms: C_1  and  O_2
REMARK    2  A    between atoms: O_2  and  C_3
REMARK    3  A    between atoms: C_6  and  C_9
REMARK    4  A    between atoms: C_11  and  C_14
REMARK    5  A    between atoms: C_14  and  S_15
REMARK    6  A    between atoms: S_15  and  C_16
REMARK    7  A    between atoms: C_19  and  C_22
REMARK                            x       y       z     vdW  Elec       q    Type
REMARK                         _______ _______ _______ _____ _____    ______ ____
ROOT
ATOM      1  C   UNL     1      -3.651   2.791   0.032  0.00  0.00    +0.176 C 
ENDROOT
BRANCH   1   4
ATOM      2  C   UNL     1      -7.153   2.228   0.616  0.00  0.00    +0.202 A 
ATOM      3  N   UNL     1      -5.902   2.420   1.093  0.00  0.00    -0.191 NA
ATOM      4  C   UNL     1      -5.139   2.553   0.037  0.00  0.00    +0.238 A 
ATOM      5  O   UNL     1      -5.928   2.433  -1.036  0.00  0.00    -0.337 OA
ATOM      6  N   UNL     1      -7.075   2.248  -0.690  0.00  0.00    -0.056 NA
BRANCH   2  10
ATOM      7  C   UNL     1     -10.677   1.648   2.926  0.00  0.00    +0.120 A 
ATOM      8  C   UNL     1     -10.749   1.646   1.540  0.00  0.00    +0.046 A 
ATOM      9  C   UNL     1      -9.609   1.834   0.788  0.00  0.00    +0.015 A 
ATOM     10  C   UNL     1      -8.382   2.026   1.421  0.00  0.00    +0.023 A 
ATOM     11  C   UNL     1      -8.312   2.023   2.814  0.00  0.00    +0.015 A 
ATOM     12  C   UNL     1      -9.456   1.840   3.560  0.00  0.00    +0.046 A 
BRANCH   7  14
ATOM     13  C   UNL     1     -11.655   1.476   5.086  0.00  0.00    +0.277 C 
ATOM     14  O   UNL     1     -11.802   1.462   3.664  0.00  0.00    -0.495 OA
ENDBRANCH   7  14
ENDBRANCH   2  10
ENDBRANCH   1   4
BRANCH   1  15
ATOM     15  S   UNL     1      -2.786   1.201   0.020  0.00  0.00    -0.078 S 
BRANCH  15  16
ATOM     16  C   UNL     1      -1.116   1.762   0.016  0.00  0.00    +0.167 A 
ATOM     17  N   UNL     1      -0.011   0.966   0.007  0.00  0.00    -0.333 N 
ATOM     18  H   UNL     1      -0.122  -0.129   0.006  0.00  0.00    +0.168 HD
ATOM     19  C   UNL     1       1.089   1.806   0.001  0.00  0.00    +0.067 A 
ATOM     20  C   UNL     1       0.609   3.076   0.012  0.00  0.00    +0.139 A 
ATOM     21  N   UNL     1      -0.729   3.018   0.024  0.00  0.00    -0.230 NA
BRANCH  19  22
ATOM     22  C   UNL     1       2.510   1.399  -0.013  0.00  0.00    +0.000 A 
ATOM     23  C   UNL     1       2.852   0.045  -0.017  0.00  0.00    +0.013 A 
ATOM     24  C   UNL     1       4.179  -0.329  -0.035  0.00  0.00    +0.039 A 
ATOM     25  C   UNL     1       5.173   0.637  -0.039  0.00  0.00    +0.123 A 
ATOM     26  C   UNL     1       4.840   1.982  -0.031  0.00  0.00    +0.039 A 
ATOM     27  C   UNL     1       3.516   2.367  -0.018  0.00  0.00    +0.013 A 
ATOM     28  F   UNL     1       6.472   0.265  -0.051  0.00  0.00    -0.205 F 
ENDBRANCH  19  22
ENDBRANCH  15  16
ENDBRANCH   1  15
TORSDOF 6
