REMARK  Name = ZINC48671305
REMARK  5 active torsions:
REMARK  status: ('A' for Active; 'I' for Inactive)
REMARK    1  A    between atoms: C_3  and  N_8
REMARK    2  A    between atoms: C_6  and  N_7
REMARK    3  A    between atoms: C_11  and  C_13
REMARK    4  A    between atoms: C_13  and  O_15
REMARK    5  A    between atoms: O_15  and  C_16
REMARK                            x       y       z     vdW  Elec       q    Type
REMARK                         _______ _______ _______ _____ _____    ______ ____
ROOT
ATOM      1  N   UNL     1       3.585   2.131  -0.021  0.00  0.00    -0.239 N 
ATOM      2  C   UNL     1       4.824   1.573  -0.041  0.00  0.00    +0.115 A 
ATOM      3  C   UNL     1       5.719   2.588  -0.042  0.00  0.00    +0.056 A 
ATOM      4  C   UNL     1       4.947   3.775  -0.021  0.00  0.00    +0.170 A 
ATOM      5  N   UNL     1       3.679   3.412  -0.015  0.00  0.00    -0.160 NA
ENDROOT
BRANCH   1   8
ATOM      6  C   UNL     1      -0.017   1.385   0.010  0.00  0.00    +0.025 A 
ATOM      7  C   UNL     1       1.169   2.091   0.002  0.00  0.00    +0.029 A 
ATOM      8  C   UNL     1       2.381   1.413  -0.013  0.00  0.00    +0.065 A 
ATOM      9  C   UNL     1       2.400   0.025  -0.021  0.00  0.00    +0.029 A 
ATOM     10  C   UNL     1       1.215  -0.682  -0.014  0.00  0.00    +0.025 A 
ATOM     11  C   UNL     1       0.002  -0.004   0.002  0.00  0.00    +0.025 A 
BRANCH  11  12
ATOM     12  N   UNL     1      -1.198  -0.719   0.010  0.00  0.00    -0.358 N 
ATOM     13  H   UNL     1      -2.045  -0.246   0.021  0.00  0.00    +0.142 HD
ATOM     14  H   UNL     1      -1.185  -1.689   0.005  0.00  0.00    +0.142 HD
ENDBRANCH  11  12
ENDBRANCH   1   8
BRANCH   4  15
ATOM     15  C   UNL     1       5.464   5.156  -0.014  0.00  0.00    +0.360 C 
ATOM     16  O   UNL     1       6.663   5.356  -0.026  0.00  0.00    -0.243 OA
BRANCH  15  17
ATOM     17  O   UNL     1       4.608   6.196   0.006  0.00  0.00    -0.457 OA
BRANCH  17  18
ATOM     18  C   UNL     1       5.178   7.506   0.012  0.00  0.00    +0.177 C 
ATOM     19  C   UNL     1       5.364   7.988  -1.428  0.00  0.00    +0.044 C 
ATOM     20  C   UNL     1       5.975   9.391  -1.421  0.00  0.00    +0.004 C 
ATOM     21  C   UNL     1       5.042  10.350  -0.680  0.00  0.00    +0.000 C 
ATOM     22  C   UNL     1       4.855   9.868   0.760  0.00  0.00    +0.004 C 
ATOM     23  C   UNL     1       4.245   8.465   0.754  0.00  0.00    +0.044 C 
ENDBRANCH  17  18
ENDBRANCH  15  17
ENDBRANCH   4  15
TORSDOF 5
