REMARK  Name = ZINC57653905
REMARK  8 active torsions:
REMARK  status: ('A' for Active; 'I' for Inactive)
REMARK    1  A    between atoms: C_1  and  C_2
REMARK    2  A    between atoms: C_5  and  C_9
REMARK    3  A    between atoms: C_7  and  C_8
REMARK    4  A    between atoms: C_9  and  C_10
REMARK    5  A    between atoms: C_10  and  C_11
REMARK    6  A    between atoms: C_11  and  C_13
REMARK    7  A    between atoms: C_11  and  O_15
REMARK    8  A    between atoms: O_15  and  C_16
REMARK                            x       y       z     vdW  Elec       q    Type
REMARK                         _______ _______ _______ _____ _____    ______ ____
ROOT
ATOM      1  C   UNL     1       1.521  -6.292  -0.042  0.00  0.00    +0.275 C 
ENDROOT
BRANCH   1   2
ATOM      2  C   UNL     1       2.803  -6.965  -0.311  0.00  0.00    +0.107 C 
ATOM      3  N   UNL     1       3.792  -7.484  -0.519  0.00  0.00    -0.193 NA
ENDBRANCH   1   2
BRANCH   1   4
ATOM      4  C   UNL     1       1.752  -4.784   0.075  0.00  0.00    +0.065 C 
BRANCH   4   5
ATOM      5  C   UNL     1       0.406  -4.073   0.231  0.00  0.00    +0.040 C 
BRANCH   5  10
ATOM      6  C   UNL     1       1.272   1.623   0.675  0.00  0.00    +0.044 C 
ATOM      7  C   UNL     1       1.046   0.137   0.559  0.00  0.00    -0.048 A 
ATOM      8  C   UNL     1       0.862  -0.439  -0.684  0.00  0.00    +0.004 A 
ATOM      9  C   UNL     1       0.654  -1.801  -0.790  0.00  0.00    +0.004 A 
ATOM     10  C   UNL     1       0.632  -2.588   0.347  0.00  0.00    -0.047 A 
ATOM     11  C   UNL     1       0.818  -2.012   1.589  0.00  0.00    +0.007 A 
ATOM     12  C   UNL     1       1.029  -0.650   1.695  0.00  0.00    -0.047 A 
ATOM     13  C   UNL     1       1.237  -0.022   3.050  0.00  0.00    +0.044 C 
ENDBRANCH   5  10
ENDBRANCH   4   5
ENDBRANCH   1   4
BRANCH   1  14
ATOM     14  O   UNL     1       0.972  -6.787   1.181  0.00  0.00    -0.474 OA
BRANCH  14  15
ATOM     15  C   UNL     1       0.250  -7.937   1.113  0.00  0.00    +0.126 A 
ATOM     16  C   UNL     1       0.173  -8.637  -0.082  0.00  0.00    +0.049 A 
ATOM     17  C   UNL     1      -0.559  -9.807  -0.154  0.00  0.00    +0.053 A 
ATOM     18  C   UNL     1      -1.219 -10.283   0.967  0.00  0.00    +0.166 A 
ATOM     19  C   UNL     1      -1.144  -9.582   2.168  0.00  0.00    +0.170 A 
ATOM     20  C   UNL     1      -0.404  -8.413   2.239  0.00  0.00    +0.095 A 
ATOM     21  O   UNL     1      -1.871 -10.250   3.110  0.00  0.00    -0.452 OA
ATOM     22  C   UNL     1      -2.725 -11.145   2.374  0.00  0.00    +0.466 C 
ATOM     23  O   UNL     1      -1.995 -11.392   1.158  0.00  0.00    -0.453 OA
ENDBRANCH  14  15
ENDBRANCH   1  14
TORSDOF 6
