REMARK  Name = ZINC49209825
REMARK  4 active torsions:
REMARK  status: ('A' for Active; 'I' for Inactive)
REMARK    1  A    between atoms: C_1  and  C_2
REMARK    2  A    between atoms: N_10  and  C_11
REMARK    3  A    between atoms: N_13  and  C_14
REMARK    4  A    between atoms: C_14  and  C_15
REMARK                            x       y       z     vdW  Elec       q    Type
REMARK                         _______ _______ _______ _____ _____    ______ ____
ROOT
ATOM      1  C   UNL     1      -0.018   1.503   0.010  0.00  0.00    +0.044 C 
ATOM      2  C   UNL     1       0.002  -0.004   0.002  0.00  0.00    -0.049 A 
ATOM      3  C   UNL     1       0.006  -0.699  -1.196  0.00  0.00    +0.005 A 
ATOM      4  C   UNL     1       0.025  -2.072  -1.223  0.00  0.00    +0.027 A 
ATOM      5  C   UNL     1       0.040  -2.818  -0.032  0.00  0.00    +0.055 A 
ATOM      6  C   UNL     1       0.036  -2.086   1.164  0.00  0.00    +0.039 A 
ATOM      7  C   UNL     1       0.023  -0.711   1.191  0.00  0.00    +0.020 A 
ATOM      8  S   UNL     1       0.060  -3.345   2.417  0.00  0.00    -0.052 S 
ATOM      9  C   UNL     1       0.073  -4.767   1.338  0.00  0.00    +0.165 A 
ATOM     10  N   UNL     1       0.093  -6.055   1.659  0.00  0.00    -0.139 NA
ATOM     11  N   UNL     1       0.059  -4.195   0.101  0.00  0.00    -0.335 N 
ATOM     12  H   UNL     1       0.063  -4.756  -0.690  0.00  0.00    +0.168 HD
ENDROOT
BRANCH  10  13
ATOM     13  C   UNL     1       0.100  -6.984   0.697  0.00  0.00    +0.326 C 
ATOM     14  O   UNL     1       0.089  -6.648  -0.474  0.00  0.00    -0.251 OA
ATOM     15  N   UNL     1       0.120  -8.292   1.023  0.00  0.00    -0.294 N 
ATOM     16  H   UNL     1       0.129  -8.559   1.955  0.00  0.00    +0.151 HD
BRANCH  15  17
ATOM     17  C   UNL     1       0.128  -9.309  -0.031  0.00  0.00    +0.141 C 
BRANCH  17  18
ATOM     18  C   UNL     1       0.150 -10.680   0.595  0.00  0.00    -0.023 A 
ATOM     19  C   UNL     1       1.351 -11.300   0.884  0.00  0.00    +0.013 A 
ATOM     20  C   UNL     1       1.337 -12.533   1.446  0.00  0.00    +0.045 A 
ATOM     21  S   UNL     1      -0.414 -12.855   1.584  0.00  0.00    -0.105 S 
ATOM     22  C   UNL     1      -1.007 -11.322   0.887  0.00  0.00    +0.050 A 
ENDBRANCH  17  18
ENDBRANCH  15  17
ENDBRANCH  10  13
TORSDOF 3
