REMARK  Name = ZINC64155710
REMARK  7 active torsions:
REMARK  status: ('A' for Active; 'I' for Inactive)
REMARK    1  A    between atoms: C_4  and  C_7
REMARK    2  A    between atoms: C_7  and  C_9
REMARK    3  A    between atoms: C_7  and  N_20
REMARK    4  A    between atoms: C_9  and  C_11
REMARK    5  A    between atoms: C_23  and  C_26
REMARK    6  A    between atoms: N_28  and  C_29
REMARK    7  A    between atoms: C_34  and  O_35
REMARK                            x       y       z     vdW  Elec       q    Type
REMARK                         _______ _______ _______ _____ _____    ______ ____
ROOT
ATOM      1  C   UNL     1       3.473  -1.290   0.200  0.00  0.00    +0.158 C 
ENDROOT
BRANCH   1   5
ATOM      2  C   UNL     1       5.997   1.752   1.821  0.00  0.00    +0.000 A 
ATOM      3  C   UNL     1       6.011   1.493   0.463  0.00  0.00    +0.000 A 
ATOM      4  C   UNL     1       5.194   0.509  -0.061  0.00  0.00    +0.005 A 
ATOM      5  C   UNL     1       4.364  -0.217   0.772  0.00  0.00    -0.023 A 
ATOM      6  C   UNL     1       4.351   0.041   2.130  0.00  0.00    +0.005 A 
ATOM      7  C   UNL     1       5.167   1.026   2.655  0.00  0.00    +0.000 A 
ENDBRANCH   1   5
BRANCH   1   8
ATOM      8  N   UNL     1       3.560  -2.495   1.035  0.00  0.00    -0.289 NA
ATOM      9  C   UNL     1       2.717  -3.570   0.496  0.00  0.00    +0.086 C 
ATOM     10  C   UNL     1       2.717  -4.754   1.466  0.00  0.00    +0.028 C 
ATOM     11  C   UNL     1       4.153  -5.252   1.655  0.00  0.00    +0.078 C 
ATOM     12  C   UNL     1       5.020  -4.101   2.170  0.00  0.00    +0.028 C 
ATOM     13  C   UNL     1       4.953  -2.935   1.181  0.00  0.00    +0.086 C 
BRANCH  11  14
ATOM     14  C   UNL     1       4.167  -6.380   2.654  0.00  0.00    +0.220 C 
ATOM     15  O   UNL     1       3.132  -6.751   3.165  0.00  0.00    -0.275 OA
ATOM     16  N   UNL     1       5.331  -6.978   2.979  0.00  0.00    -0.282 N 
ATOM     17  H   UNL     1       6.150  -6.724   2.526  0.00  0.00    +0.155 HD
BRANCH  16  18
ATOM     18  C   UNL     1       5.357  -7.966   3.972  0.00  0.00    +0.075 A 
ATOM     19  C   UNL     1       4.282  -8.829   4.124  0.00  0.00    +0.027 A 
ATOM     20  C   UNL     1       4.311  -9.803   5.104  0.00  0.00    +0.002 A 
ATOM     21  C   UNL     1       5.409  -9.920   5.935  0.00  0.00    +0.004 A 
ATOM     22  C   UNL     1       6.484  -9.063   5.790  0.00  0.00    +0.047 A 
ATOM     23  C   UNL     1       6.466  -8.088   4.807  0.00  0.00    +0.138 A 
BRANCH  23  24
ATOM     24  O   UNL     1       7.525  -7.248   4.660  0.00  0.00    -0.505 OA
ATOM     25  H   UNL     1       7.464  -6.441   5.188  0.00  0.00    +0.292 HD
ENDBRANCH  23  24
ENDBRANCH  16  18
ENDBRANCH  11  14
ENDBRANCH   1   8
BRANCH   1  26
ATOM     26  C   UNL     1       2.049  -0.798   0.174  0.00  0.00    +0.183 C 
ATOM     27  O   UNL     1       1.294  -1.074   1.084  0.00  0.00    -0.290 OA
BRANCH  26  28
ATOM     28  C   UNL     1       1.592  -0.016  -0.909  0.00  0.00    +0.025 C 
ATOM     29  C   UNL     1       0.327   0.514  -1.082  0.00  0.00    +0.006 A 
ATOM     30  C   UNL     1      -0.853   0.464  -0.303  0.00  0.00    +0.010 A 
ATOM     31  C   UNL     1      -1.975   1.089  -0.724  0.00  0.00    +0.001 A 
ATOM     32  C   UNL     1      -2.031   1.806  -1.930  0.00  0.00    +0.002 A 
ATOM     33  C   UNL     1      -0.961   1.915  -2.747  0.00  0.00    +0.026 A 
ATOM     34  C   UNL     1       0.302   1.264  -2.362  0.00  0.00    +0.043 A 
ATOM     35  N   UNL     1       1.465   1.207  -2.947  0.00  0.00    -0.380 N 
ATOM     36  C   UNL     1       2.386   0.422  -2.120  0.00  0.00    +0.152 C 
ATOM     37  H   UNL     1       1.687   1.623  -3.795  0.00  0.00    +0.160 HD
ENDBRANCH  26  28
ENDBRANCH   1  26
TORSDOF 7
