REMARK  Name = ZINC41108751
REMARK  2 active torsions:
REMARK  status: ('A' for Active; 'I' for Inactive)
REMARK    1  A    between atoms: C_3  and  C_6
REMARK    2  A    between atoms: C_12  and  C_17
REMARK                            x       y       z     vdW  Elec       q    Type
REMARK                         _______ _______ _______ _____ _____    ______ ____
ROOT
ATOM      1  C   UNL     1       3.560   0.619  -0.029  0.00  0.00    +0.285 C 
ATOM      2  O   UNL     1       4.194   1.658  -0.030  0.00  0.00    -0.266 OA
ATOM      3  N   UNL     1       4.206  -0.564  -0.042  0.00  0.00    -0.257 N 
ATOM      4  C   UNL     1       5.593  -0.598  -0.055  0.00  0.00    +0.188 A 
ATOM      5  N   UNL     1       6.389  -1.634  -0.074  0.00  0.00    -0.140 NA
ATOM      6  N   UNL     1       7.769  -1.480  -0.086  0.00  0.00    -0.184 N 
ATOM      7  C   UNL     1       8.920  -2.255  -0.105  0.00  0.00    +0.186 A 
ATOM      8  N   UNL     1       9.951  -1.441  -0.106  0.00  0.00    -0.126 NA
ATOM      9  N   UNL     1       9.544  -0.220  -0.090  0.00  0.00    -0.120 NA
ATOM     10  C   UNL     1       8.244  -0.194  -0.077  0.00  0.00    +0.220 A 
ATOM     11  S   UNL     1       6.749   0.764  -0.060  0.00  0.00    -0.011 S 
ATOM     12  H   UNL     1       3.700  -1.392  -0.041  0.00  0.00    +0.157 HD
ENDROOT
BRANCH   7  13
ATOM     13  C   UNL     1       8.976  -3.732  -0.120  0.00  0.00    +0.021 A 
ATOM     14  C   UNL     1       7.838  -4.479   0.190  0.00  0.00    +0.013 A 
ATOM     15  C   UNL     1       7.896  -5.857   0.174  0.00  0.00    +0.021 A 
ATOM     16  C   UNL     1       9.080  -6.499  -0.149  0.00  0.00    +0.041 A 
ATOM     17  C   UNL     1      10.211  -5.763  -0.458  0.00  0.00    +0.021 A 
ATOM     18  C   UNL     1      10.164  -4.385  -0.451  0.00  0.00    +0.013 A 
ATOM     19 CL   UNL     1       9.145  -8.234  -0.167  0.00  0.00    -0.084 Cl
ENDBRANCH   7  13
BRANCH   1  22
ATOM     20  C   UNL     1      -0.016   1.347   0.009  0.00  0.00    +0.042 A 
ATOM     21  C   UNL     1       1.319   1.778  -0.001  0.00  0.00    +0.054 A 
ATOM     22  C   UNL     1       2.095   0.654  -0.014  0.00  0.00    +0.189 A 
ATOM     23  O   UNL     1       1.276  -0.418  -0.012  0.00  0.00    -0.458 OA
ATOM     24  C   UNL     1       0.002  -0.004   0.002  0.00  0.00    +0.196 A 
ENDBRANCH   1  22
TORSDOF 2
