REMARK  Name = ZINC21609184
REMARK  12 active torsions:
REMARK  status: ('A' for Active; 'I' for Inactive)
REMARK    1  A    between atoms: C_1  and  C_2
REMARK    2  A    between atoms: C_2  and  C_3
REMARK    3  A    between atoms: C_2  and  C_4
REMARK    4  A    between atoms: C_2  and  C_5
REMARK    5  A    between atoms: C_8  and  C_11
REMARK    6  A    between atoms: C_14  and  S_19
REMARK    7  A    between atoms: N_15  and  C_16
REMARK    8  A    between atoms: C_16  and  C_17
REMARK    9  A    between atoms: S_19  and  C_20
REMARK   10  A    between atoms: C_20  and  C_21
REMARK   11  A    between atoms: N_26  and  C_27
REMARK   12  A    between atoms: C_27  and  C_28
REMARK                            x       y       z     vdW  Elec       q    Type
REMARK                         _______ _______ _______ _____ _____    ______ ____
ROOT
ATOM      1  C   UNL     1       0.009  -0.005  -0.046  0.00  0.00    +0.165 A 
ATOM      2  N   UNL     1       1.058  -0.771   0.144  0.00  0.00    -0.128 NA
ATOM      3  N   UNL     1       0.706  -2.007   0.133  0.00  0.00    -0.122 NA
ATOM      4  C   UNL     1      -0.590  -2.105  -0.063  0.00  0.00    +0.193 A 
ATOM      5  N   UNL     1      -1.079  -0.836  -0.179  0.00  0.00    -0.298 N 
ENDROOT
BRANCH   1   9
ATOM      6  C   UNL     1      -0.021   4.240  -0.199  0.00  0.00    -0.042 A 
ATOM      7  C   UNL     1       1.050   3.579   0.377  0.00  0.00    +0.005 A 
ATOM      8  C   UNL     1       1.065   2.201   0.430  0.00  0.00    +0.012 A 
ATOM      9  C   UNL     1      -0.001   1.473  -0.099  0.00  0.00    +0.019 A 
ATOM     10  C   UNL     1      -1.075   2.145  -0.684  0.00  0.00    +0.012 A 
ATOM     11  C   UNL     1      -1.081   3.524  -0.726  0.00  0.00    +0.005 A 
BRANCH   6  13
ATOM     12  C   UNL     1       1.180   6.237  -1.048  0.00  0.00    +0.015 C 
ATOM     13  C   UNL     1      -0.032   5.746  -0.253  0.00  0.00    -0.013 C 
ATOM     14  C   UNL     1      -1.316   6.223  -0.934  0.00  0.00    +0.015 C 
ATOM     15  C   UNL     1       0.030   6.308   1.169  0.00  0.00    +0.015 C 
ENDBRANCH   6  13
ENDBRANCH   1   9
BRANCH   5  16
ATOM     16  C   UNL     1      -2.472  -0.441  -0.401  0.00  0.00    +0.152 C 
BRANCH  16  17
ATOM     17  C   UNL     1      -2.757  -0.413  -1.880  0.00  0.00    -0.013 C 
ATOM     18  C   UNL     1      -3.752  -1.112  -2.368  0.00  0.00    +0.005 C 
ENDBRANCH  16  17
ENDBRANCH   5  16
BRANCH   4  19
ATOM     19  S   UNL     1      -1.523  -3.597  -0.154  0.00  0.00    -0.077 S 
BRANCH  19  20
ATOM     20  C   UNL     1      -0.202  -4.810   0.092  0.00  0.00    +0.173 C 
BRANCH  20  21
ATOM     21  C   UNL     1      -0.782  -6.200   0.052  0.00  0.00    +0.231 C 
ATOM     22  O   UNL     1      -1.971  -6.356  -0.126  0.00  0.00    -0.274 OA
ATOM     23  N   UNL     1       0.021  -7.270   0.214  0.00  0.00    -0.239 N 
ATOM     24  C   UNL     1      -0.498  -8.514   0.178  0.00  0.00    +0.306 C 
ATOM     25  O   UNL     1      -1.690  -8.670  -0.000  0.00  0.00    -0.252 OA
ATOM     26  N   UNL     1       0.305  -9.584   0.339  0.00  0.00    -0.292 N 
ATOM     27  H   UNL     1       1.100  -7.129   0.375  0.00  0.00    +0.159 HD
ATOM     28  H   UNL     1       1.384  -9.443   0.500  0.00  0.00    +0.151 HD
BRANCH  26  29
ATOM     29  C   UNL     1      -0.259 -10.935   0.300  0.00  0.00    +0.180 C 
BRANCH  29  30
ATOM     30  C   UNL     1       0.841 -11.945   0.505  0.00  0.00    +0.122 A 
ATOM     31  C   UNL     1       1.249 -12.434   1.690  0.00  0.00    +0.046 A 
ATOM     32  C   UNL     1       2.295 -13.345   1.419  0.00  0.00    +0.041 A 
ATOM     33  C   UNL     1       2.463 -13.359   0.084  0.00  0.00    +0.195 A 
ATOM     34  O   UNL     1       1.576 -12.513  -0.464  0.00  0.00    -0.466 OA
ENDBRANCH  29  30
ENDBRANCH  26  29
ENDBRANCH  20  21
ENDBRANCH  19  20
ENDBRANCH   4  19
TORSDOF 9
