REMARK  Name = ZINC04864266
REMARK  3 active torsions:
REMARK  status: ('A' for Active; 'I' for Inactive)
REMARK    1  A    between atoms: C_1  and  C_2
REMARK    2  A    between atoms: C_2  and  C_15
REMARK    3  A    between atoms: N_3  and  N_4
REMARK                            x       y       z     vdW  Elec       q    Type
REMARK                         _______ _______ _______ _____ _____    ______ ____
ROOT
ATOM      1  N   UNL     1       0.024   0.034   2.342  0.00  0.00    -0.206 N 
ATOM      2  C   UNL     1       0.044  -0.662   3.532  0.00  0.00    +0.214 A 
ATOM      3  N   UNL     1       0.043  -0.093   4.774  0.00  0.00    -0.325 N 
ATOM      4  H   UNL     1       0.028   0.856   4.972  0.00  0.00    +0.169 HD
ATOM      5  C   UNL     1       0.067  -1.125   5.698  0.00  0.00    +0.067 A 
ATOM      6  C   UNL     1       0.077  -1.174   7.084  0.00  0.00    +0.028 A 
ATOM      7  C   UNL     1       0.103  -2.394   7.727  0.00  0.00    +0.002 A 
ATOM      8  C   UNL     1       0.118  -3.574   6.997  0.00  0.00    +0.002 A 
ATOM      9  C   UNL     1       0.108  -3.543   5.621  0.00  0.00    +0.030 A 
ATOM     10  C   UNL     1       0.083  -2.316   4.953  0.00  0.00    +0.091 A 
ATOM     11  N   UNL     1       0.063  -1.968   3.641  0.00  0.00    -0.213 NA
ATOM     12  H   UNL     1       0.011   1.003   2.347  0.00  0.00    +0.177 HD
ENDROOT
BRANCH   1  15
ATOM     13  C   UNL     1      -0.018   1.503   0.010  0.00  0.00    +0.068 C 
ATOM     14  C   UNL     1       0.002  -0.004   0.002  0.00  0.00    +0.070 C 
ATOM     15  N   UNL     1       0.022  -0.660   1.125  0.00  0.00    -0.184 NA
BRANCH  14  16
ATOM     16  C   UNL     1      -0.000  -0.731  -1.272  0.00  0.00    +0.035 A 
ATOM     17  C   UNL     1       0.011  -2.096  -1.498  0.00  0.00    +0.017 A 
ATOM     18  C   UNL     1       0.006  -2.543  -2.800  0.00  0.00    +0.008 A 
ATOM     19  C   UNL     1      -0.009  -1.639  -3.813  0.00  0.00    +0.046 A 
ATOM     20  S   UNL     1      -0.025  -0.085  -2.937  0.00  0.00    -0.095 S 
ENDBRANCH  14  16
ENDBRANCH   1  15
TORSDOF 2
