REMARK  Name = ZINC61496393
REMARK  5 active torsions:
REMARK  status: ('A' for Active; 'I' for Inactive)
REMARK    1  A    between atoms: C_1  and  C_2
REMARK    2  A    between atoms: C_2  and  C_3
REMARK    3  A    between atoms: C_3  and  C_5
REMARK    4  A    between atoms: C_7  and  C_10
REMARK    5  A    between atoms: C_13  and  C_16
REMARK                            x       y       z     vdW  Elec       q    Type
REMARK                         _______ _______ _______ _____ _____    ______ ____
ROOT
ATOM      1  C   UNL     1      -1.414  -2.036   0.129  0.00  0.00    +0.241 A 
ATOM      2  N   UNL     1      -1.703  -2.724   1.198  0.00  0.00    -0.195 NA
ATOM      3  C   UNL     1      -1.583  -4.033   0.948  0.00  0.00    +0.175 A 
ATOM      4  N   UNL     1      -1.214  -4.194  -0.290  0.00  0.00    -0.061 NA
ATOM      5  O   UNL     1      -1.101  -2.894  -0.851  0.00  0.00    -0.337 OA
ENDROOT
BRANCH   3   6
ATOM      6  C   UNL     1      -1.834  -5.141   1.939  0.00  0.00    +0.060 C 
ATOM      7  C   UNL     1      -0.555  -5.961   2.121  0.00  0.00    +0.011 C 
ATOM      8  C   UNL     1      -0.810  -7.085   3.127  0.00  0.00    +0.004 C 
ATOM      9  C   UNL     1      -1.928  -7.992   2.607  0.00  0.00    -0.014 C 
ATOM     10  C   UNL     1      -3.206  -7.171   2.424  0.00  0.00    +0.004 C 
ATOM     11  C   UNL     1      -2.951  -6.047   1.418  0.00  0.00    +0.011 C 
ATOM     12  C   UNL     1      -2.182  -9.116   3.612  0.00  0.00    +0.007 C 
ENDBRANCH   3   6
BRANCH   1  13
ATOM     13  C   UNL     1      -1.433  -0.534   0.013  0.00  0.00    +0.145 C 
ATOM     14 BR   UNL     1      -2.335  -0.017  -1.656  0.00  0.00    -0.078 Br
BRANCH  13  16
ATOM     15  C   UNL     1      -0.019   1.526   0.010  0.00  0.00    +0.005 C 
ATOM     16  C   UNL     1       0.002  -0.004   0.002  0.00  0.00    +0.021 C 
ENDBRANCH  13  16
ENDBRANCH   1  13
TORSDOF 3
