REMARK  Name = ZINC39695920
REMARK  10 active torsions:
REMARK  status: ('A' for Active; 'I' for Inactive)
REMARK    1  A    between atoms: C_1  and  C_2
REMARK    2  A    between atoms: C_2  and  C_3
REMARK    3  A    between atoms: C_6  and  C_9
REMARK    4  A    between atoms: C_9  and  C_11
REMARK    5  A    between atoms: C_9  and  N_12
REMARK    6  A    between atoms: C_13  and  C_15
REMARK    7  A    between atoms: C_26  and  C_28
REMARK    8  A    between atoms: C_33  and  O_34
REMARK    9  A    between atoms: O_34  and  C_35
REMARK   10  A    between atoms: C_35  and  C_37
REMARK                            x       y       z     vdW  Elec       q    Type
REMARK                         _______ _______ _______ _____ _____    ______ ____
ROOT
ATOM      1  C   UNL     1       4.791  -4.759  -5.259  0.00  0.00    +0.100 C 
ATOM      2  C   UNL     1       4.482  -5.483  -3.929  0.00  0.00    +0.121 C 
ATOM      3  N   UNL     1       3.973  -6.814  -4.337  0.00  0.00    -0.296 N 
ATOM      4  C   UNL     1       4.824  -7.196  -5.489  0.00  0.00    +0.115 C 
ATOM      5  C   UNL     1       5.019  -5.887  -6.279  0.00  0.00    -0.004 C 
ATOM      6  C   UNL     1       6.436  -5.814  -6.840  0.00  0.00    -0.010 C 
ATOM      7  C   UNL     1       6.620  -6.909  -7.894  0.00  0.00    -0.082 C 
ATOM      8  N   UNL     1       5.637  -6.726  -8.969  0.00  0.00    +0.379 N 
ATOM      9  C   UNL     1       4.278  -6.890  -8.438  0.00  0.00    -0.082 C 
ATOM     10  C   UNL     1       3.995  -5.794  -7.406  0.00  0.00    -0.010 C 
ATOM     11  C   UNL     1       2.965  -7.517  -3.785  0.00  0.00    +0.250 C 
ATOM     12  O   UNL     1       2.725  -8.644  -4.175  0.00  0.00    -0.270 OA
ATOM     13  H   UNL     1       5.734  -5.800  -9.358  0.00  0.00    -0.086 HD
ATOM     14  H   UNL     1       5.799  -7.411  -9.691  0.00  0.00    -0.086 HD
ENDROOT
BRANCH  11  15
ATOM     15  C   UNL     1       2.152  -6.921  -2.708  0.00  0.00    +0.079 A 
ATOM     16  C   UNL     1       2.742  -6.067  -1.773  0.00  0.00    +0.017 A 
ATOM     17  C   UNL     1       1.977  -5.512  -0.770  0.00  0.00    +0.001 A 
ATOM     18  C   UNL     1       0.624  -5.798  -0.683  0.00  0.00    +0.004 A 
ATOM     19  C   UNL     1       0.029  -6.641  -1.601  0.00  0.00    +0.047 A 
ATOM     20  C   UNL     1       0.782  -7.203  -2.620  0.00  0.00    +0.144 A 
BRANCH  20  21
ATOM     21  O   UNL     1       0.197  -8.027  -3.526  0.00  0.00    -0.425 OA
BRANCH  21  22
ATOM     22  C   UNL     1      -0.249  -7.489  -4.672  0.00  0.00    +0.309 C 
ATOM     23  O   UNL     1      -0.043  -6.322  -4.912  0.00  0.00    -0.251 OA
ATOM     24  C   UNL     1      -1.006  -8.339  -5.660  0.00  0.00    +0.136 C 
ENDBRANCH  21  22
ENDBRANCH  20  21
ENDBRANCH  11  15
BRANCH   1  26
ATOM     25  N   UNL     1       3.829  -2.783  -6.395  0.00  0.00    -0.308 N 
ATOM     26  C   UNL     1       3.622  -3.903  -5.675  0.00  0.00    +0.219 C 
ATOM     27  O   UNL     1       2.495  -4.223  -5.361  0.00  0.00    -0.275 OA
ATOM     28  H   UNL     1       4.731  -2.527  -6.645  0.00  0.00    +0.149 HD
BRANCH  25  29
ATOM     29  C   UNL     1       2.693  -1.952  -6.799  0.00  0.00    +0.100 C 
ATOM     30  C   UNL     1       2.096  -2.500  -8.097  0.00  0.00    +0.033 C 
BRANCH  29  34
ATOM     31  C   UNL     1       4.017   2.062  -7.421  0.00  0.00    -0.048 A 
ATOM     32  C   UNL     1       2.803   1.822  -6.804  0.00  0.00    +0.004 A 
ATOM     33  C   UNL     1       2.375   0.523  -6.603  0.00  0.00    +0.006 A 
ATOM     34  C   UNL     1       3.159  -0.536  -7.019  0.00  0.00    -0.027 A 
ATOM     35  C   UNL     1       4.373  -0.296  -7.637  0.00  0.00    +0.006 A 
ATOM     36  C   UNL     1       4.799   1.003  -7.842  0.00  0.00    +0.004 A 
BRANCH  31  38
ATOM     37  C   UNL     1       3.980   3.977  -8.996  0.00  0.00    +0.009 C 
ATOM     38  C   UNL     1       4.484   3.478  -7.641  0.00  0.00    +0.032 C 
ENDBRANCH  31  38
ENDBRANCH  29  34
ENDBRANCH  25  29
ENDBRANCH   1  26
TORSDOF 7
