REMARK  Name = ZINC40814602
REMARK  11 active torsions:
REMARK  status: ('A' for Active; 'I' for Inactive)
REMARK    1  A    between atoms: C_1  and  C_2
REMARK    2  A    between atoms: C_2  and  O_3
REMARK    3  A    between atoms: O_3  and  C_4
REMARK    4  A    between atoms: C_4  and  C_6
REMARK    5  A    between atoms: C_9  and  N_12
REMARK    6  A    between atoms: C_13  and  C_15
REMARK    7  A    between atoms: C_16  and  C_38
REMARK    8  A    between atoms: N_24  and  N_25
REMARK    9  A    between atoms: C_26  and  C_28
REMARK   10  A    between atoms: C_28  and  C_29
REMARK   11  A    between atoms: C_32  and  N_35
REMARK                            x       y       z     vdW  Elec       q    Type
REMARK                         _______ _______ _______ _____ _____    ______ ____
ROOT
ATOM      1  C   UNL     1       4.104  -5.841   7.195  0.00  0.00    +0.193 A 
ATOM      2  C   UNL     1       4.198  -7.169   7.508  0.00  0.00    +0.009 A 
ATOM      3  C   UNL     1       4.836  -7.232   8.753  0.00  0.00    +0.042 A 
ATOM      4  C   UNL     1       5.103  -5.942   9.147  0.00  0.00    +0.115 A 
ATOM      5  O   UNL     1       4.663  -5.122   8.195  0.00  0.00    -0.454 OA
ATOM      6  C   UNL     1       5.784  -5.606  10.449  0.00  0.00    +0.075 C 
ATOM      7  C   UNL     1       5.644  -6.785  11.415  0.00  0.00    +0.014 C 
ATOM      8  C   UNL     1       6.130  -8.082  10.759  0.00  0.00    +0.058 C 
ATOM      9  C   UNL     1       5.210  -8.396   9.588  0.00  0.00    +0.070 C 
ATOM     10  N   UNL     1       4.785  -9.596   9.339  0.00  0.00    -0.184 NA
ATOM     11  C   UNL     1       3.712  -8.331   6.681  0.00  0.00    +0.048 C 
ENDROOT
BRANCH   1  13
ATOM     12  N   UNL     1       3.478  -3.957   5.780  0.00  0.00    -0.279 N 
ATOM     13  C   UNL     1       3.504  -5.290   5.975  0.00  0.00    +0.284 C 
ATOM     14  O   UNL     1       3.029  -6.036   5.140  0.00  0.00    -0.266 OA
ATOM     15  H   UNL     1       3.923  -3.366   6.408  0.00  0.00    +0.155 HD
BRANCH  12  19
ATOM     16  C   UNL     1       1.486  -2.372   2.485  0.00  0.00    +0.059 A 
ATOM     17  C   UNL     1       1.002  -3.527   3.107  0.00  0.00    +0.017 A 
ATOM     18  C   UNL     1       1.663  -4.048   4.196  0.00  0.00    +0.024 A 
ATOM     19  C   UNL     1       2.812  -3.427   4.678  0.00  0.00    +0.034 A 
ATOM     20  C   UNL     1       3.296  -2.277   4.061  0.00  0.00    +0.024 A 
ATOM     21  C   UNL     1       2.643  -1.754   2.968  0.00  0.00    +0.017 A 
BRANCH  16  22
ATOM     22  C   UNL     1       0.780  -1.811   1.318  0.00  0.00    +0.339 C 
ATOM     23  O   UNL     1       1.205  -0.810   0.775  0.00  0.00    -0.245 OA
BRANCH  22  24
ATOM     24  O   UNL     1      -0.335  -2.408   0.854  0.00  0.00    -0.461 OA
BRANCH  24  26
ATOM     25  C   UNL     1      -2.207  -2.622  -0.660  0.00  0.00    +0.048 C 
ATOM     26  C   UNL     1      -0.967  -1.811  -0.280  0.00  0.00    +0.229 C 
ENDBRANCH  24  26
ENDBRANCH  22  24
ENDBRANCH  16  22
ENDBRANCH  12  19
ENDBRANCH   1  13
BRANCH  10  27
ATOM     27  N   UNL     1       5.172 -10.661  10.163  0.00  0.00    -0.206 N 
ATOM     28  C   UNL     1       4.730 -11.908   9.905  0.00  0.00    +0.237 C 
ATOM     29  O   UNL     1       3.997 -12.108   8.959  0.00  0.00    -0.274 OA
ATOM     30  H   UNL     1       5.757 -10.501  10.919  0.00  0.00    +0.177 HD
BRANCH  28  31
ATOM     31  C   UNL     1       5.146 -13.053  10.791  0.00  0.00    +0.132 C 
BRANCH  31  32
ATOM     32  C   UNL     1       4.520 -14.329  10.290  0.00  0.00    -0.038 A 
ATOM     33  C   UNL     1       3.277 -14.718  10.753  0.00  0.00    +0.006 A 
ATOM     34  C   UNL     1       2.703 -15.889  10.293  0.00  0.00    +0.033 A 
ATOM     35  C   UNL     1       3.372 -16.670   9.370  0.00  0.00    +0.126 A 
ATOM     36  C   UNL     1       4.615 -16.281   8.906  0.00  0.00    +0.033 A 
ATOM     37  C   UNL     1       5.187 -15.108   9.362  0.00  0.00    +0.006 A 
BRANCH  35  38
ATOM     38  N   UNL     1       2.758 -17.924   8.878  0.00  0.00    +0.056 N 
ATOM     39  O   UNL     1       1.672 -18.265   9.284  0.00  0.00    -0.126 OA
ATOM     40  O   UNL     1       3.343 -18.607   8.070  0.00  0.00    -0.126 OA
ENDBRANCH  35  38
ENDBRANCH  31  32
ENDBRANCH  28  31
ENDBRANCH  10  27
TORSDOF 9
