REMARK  Name = ZINC27817033
REMARK  6 active torsions:
REMARK  status: ('A' for Active; 'I' for Inactive)
REMARK    1  A    between atoms: C_1  and  C_2
REMARK    2  A    between atoms: C_9  and  C_11
REMARK    3  A    between atoms: C_12  and  C_24
REMARK    4  A    between atoms: C_17  and  C_22
REMARK    5  A    between atoms: C_17  and  C_23
REMARK    6  A    between atoms: C_19  and  O_21
REMARK                            x       y       z     vdW  Elec       q    Type
REMARK                         _______ _______ _______ _____ _____    ______ ____
ROOT
ATOM      1  C   UNL     1      -4.434   3.799   5.912  0.00  0.00    +0.193 A 
ATOM      2  C   UNL     1      -5.744   4.167   6.055  0.00  0.00    +0.006 A 
ATOM      3  C   UNL     1      -5.878   4.664   7.353  0.00  0.00    +0.025 A 
ATOM      4  C   UNL     1      -4.662   4.583   7.946  0.00  0.00    +0.112 A 
ATOM      5  O   UNL     1      -3.798   4.055   7.076  0.00  0.00    -0.454 OA
ATOM      6  C   UNL     1      -4.388   5.026   9.364  0.00  0.00    +0.081 C 
ATOM      7  C   UNL     1      -5.541   5.927   9.821  0.00  0.00    -0.025 C 
ATOM      8  C   UNL     1      -6.877   5.235   9.534  0.00  0.00    +0.043 C 
ATOM      9  C   UNL     1      -7.119   5.200   8.020  0.00  0.00    +0.149 C 
ATOM     10  C   UNL     1      -5.482   7.255   9.063  0.00  0.00    +0.011 C 
ATOM     11  C   UNL     1      -5.416   6.191  11.323  0.00  0.00    +0.011 C 
ATOM     12  C   UNL     1      -6.829   4.058   5.015  0.00  0.00    +0.048 C 
ENDROOT
BRANCH   1  21
ATOM     13  C   UNL     1      -0.186   1.088  -0.081  0.00  0.00    +0.045 C 
ATOM     14  C   UNL     1      -0.777   1.575   1.217  0.00  0.00    -0.032 A 
ATOM     15  C   UNL     1       0.035   1.775   2.325  0.00  0.00    +0.008 A 
ATOM     16  C   UNL     1      -0.547   2.227   3.496  0.00  0.00    +0.044 A 
ATOM     17  C   UNL     1      -1.919   2.453   3.526  0.00  0.00    +0.125 A 
ATOM     18  N   UNL     1      -2.660   2.246   2.449  0.00  0.00    -0.240 NA
ATOM     19  C   UNL     1      -2.132   1.821   1.317  0.00  0.00    +0.116 A 
ATOM     20  N   UNL     1      -2.519   2.902   4.700  0.00  0.00    -0.264 N 
ATOM     21  C   UNL     1      -3.828   3.222   4.709  0.00  0.00    +0.285 C 
ATOM     22  O   UNL     1      -4.508   3.031   3.717  0.00  0.00    -0.266 OA
ATOM     23  H   UNL     1      -1.924   2.996   5.621  0.00  0.00    +0.157 HD
ENDBRANCH   1  21
BRANCH   9  24
ATOM     24  O   UNL     1      -8.228   4.348   7.730  0.00  0.00    -0.387 OA
ATOM     25  H   UNL     1      -9.223   4.584   8.135  0.00  0.00    +0.210 HD
ENDBRANCH   9  24
TORSDOF 2
