REMARK  Name = ZINC22614166
REMARK  5 active torsions:
REMARK  status: ('A' for Active; 'I' for Inactive)
REMARK    1  A    between atoms: C_4  and  C_7
REMARK    2  A    between atoms: C_16  and  C_18
REMARK    3  A    between atoms: C_18  and  S_19
REMARK    4  A    between atoms: S_19  and  C_20
REMARK    5  A    between atoms: C_23  and  C_26
REMARK                            x       y       z     vdW  Elec       q    Type
REMARK                         _______ _______ _______ _____ _____    ______ ____
ROOT
ATOM      1  C   UNL     1       3.698  -0.688  -0.038  0.00  0.00    +0.004 A 
ATOM      2  C   UNL     1       4.658  -0.360  -0.936  0.00  0.00    +0.056 A 
ATOM      3  S   UNL     1       5.984  -1.488  -0.553  0.00  0.00    -0.076 S 
ATOM      4  C   UNL     1       5.225  -2.365   0.790  0.00  0.00    +0.116 A 
ATOM      5  C   UNL     1       3.965  -1.759   0.914  0.00  0.00    +0.080 A 
ATOM      6  C   UNL     1       3.125  -2.280   1.950  0.00  0.00    +0.260 A 
ATOM      7  O   UNL     1       2.010  -1.822   2.132  0.00  0.00    -0.267 OA
ATOM      8  N   UNL     1       3.585  -3.284   2.719  0.00  0.00    -0.310 N 
ATOM      9  H   UNL     1       3.020  -3.642   3.422  0.00  0.00    +0.170 HD
ATOM     10  C   UNL     1       4.823  -3.807   2.529  0.00  0.00    +0.121 A 
ATOM     11  N   UNL     1       5.609  -3.360   1.586  0.00  0.00    -0.226 NA
ENDROOT
BRANCH   1  15
ATOM     12  C   UNL     1      -0.017   1.379   0.010  0.00  0.00    +0.000 A 
ATOM     13  C   UNL     1       1.169   2.092   0.002  0.00  0.00    +0.001 A 
ATOM     14  C   UNL     1       2.377   1.427  -0.013  0.00  0.00    +0.008 A 
ATOM     15  C   UNL     1       2.403   0.033  -0.021  0.00  0.00    -0.017 A 
ATOM     16  C   UNL     1       1.205  -0.680  -0.013  0.00  0.00    +0.008 A 
ATOM     17  C   UNL     1       0.002  -0.004   0.002  0.00  0.00    +0.001 A 
ENDBRANCH   1  15
BRANCH  10  18
ATOM     18  C   UNL     1       5.296  -4.932   3.415  0.00  0.00    +0.151 C 
BRANCH  18  19
ATOM     19  S   UNL     1       6.974  -5.419   2.929  0.00  0.00    -0.079 S 
BRANCH  19  20
ATOM     20  C   UNL     1       7.378  -6.724   4.042  0.00  0.00    +0.185 A 
ATOM     21  N   UNL     1       6.600  -7.199   4.991  0.00  0.00    -0.201 NA
ATOM     22  H   UNL     1       9.301  -7.292   3.480  0.00  0.00    +0.191 HD
ATOM     23  C   UNL     1       7.233  -8.187   5.640  0.00  0.00    +0.185 A 
ATOM     24  N   UNL     1       8.423  -8.351   5.109  0.00  0.00    -0.151 NA
ATOM     25  N   UNL     1       8.538  -7.417   4.066  0.00  0.00    -0.253 N 
BRANCH  23  26
ATOM     26  C   UNL     1       6.679  -8.967   6.774  0.00  0.00    +0.056 A 
ATOM     27  C   UNL     1       5.396  -8.701   7.246  0.00  0.00    +0.014 A 
ATOM     28  C   UNL     1       4.885  -9.430   8.301  0.00  0.00    +0.001 A 
ATOM     29  C   UNL     1       5.645 -10.424   8.891  0.00  0.00    +0.003 A 
ATOM     30  C   UNL     1       6.919 -10.695   8.428  0.00  0.00    +0.039 A 
ATOM     31  C   UNL     1       7.440  -9.975   7.368  0.00  0.00    +0.134 A 
ATOM     32  F   UNL     1       8.683 -10.243   6.913  0.00  0.00    -0.205 F 
ENDBRANCH  23  26
ENDBRANCH  19  20
ENDBRANCH  18  19
ENDBRANCH  10  18
TORSDOF 5
