REMARK  Name = ZINC06025068
REMARK  8 active torsions:
REMARK  status: ('A' for Active; 'I' for Inactive)
REMARK    1  A    between atoms: C_1  and  C_2
REMARK    2  A    between atoms: C_9  and  N_13
REMARK    3  A    between atoms: C_10  and  C_11
REMARK    4  A    between atoms: C_14  and  C_16
REMARK    5  A    between atoms: C_16  and  N_53
REMARK    6  A    between atoms: C_17  and  N_53
REMARK    7  A    between atoms: C_18  and  C_19
REMARK    8  A    between atoms: C_18  and  N_53
REMARK                            x       y       z     vdW  Elec       q    Type
REMARK                         _______ _______ _______ _____ _____    ______ ____
ROOT
ATOM      1  C   UNL     1      -0.802   1.987  -1.117  0.00  0.00    +0.019 C 
ENDROOT
BRANCH   1   3
ATOM      2  N   UNL     1      -1.703   4.167  -1.862  0.00  0.00    -0.281 N 
ATOM      3  C   UNL     1      -1.007   3.470  -0.943  0.00  0.00    +0.201 C 
ATOM      4  O   UNL     1      -0.545   4.036   0.026  0.00  0.00    -0.278 OA
ATOM      5  H   UNL     1      -2.072   3.714  -2.637  0.00  0.00    +0.155 HD
BRANCH   2  13
ATOM      6  C   UNL     1      -2.625  11.823  -0.543  0.00  0.00    +0.008 C 
ATOM      7  C   UNL     1      -2.911  10.380  -0.962  0.00  0.00    -0.009 C 
ATOM      8  C   UNL     1      -2.806  10.257  -2.485  0.00  0.00    +0.008 C 
ATOM      9  C   UNL     1      -3.331   8.893  -2.935  0.00  0.00    +0.037 C 
ATOM     10  C   UNL     1      -2.624   7.807  -2.132  0.00  0.00    -0.018 A 
ATOM     11  C   UNL     1      -1.992   8.098  -0.973  0.00  0.00    -0.004 A 
ATOM     12  S   UNL     1      -1.342   6.551  -0.412  0.00  0.00    -0.077 S 
ATOM     13  C   UNL     1      -1.892   5.532  -1.702  0.00  0.00    +0.090 A 
ATOM     14  C   UNL     1      -2.572   6.412  -2.531  0.00  0.00    +0.084 A 
ATOM     15  C   UNL     1      -1.881   9.440  -0.318  0.00  0.00    +0.046 C 
BRANCH  14  16
ATOM     16  C   UNL     1      -3.199   5.960  -3.736  0.00  0.00    +0.102 C 
ATOM     17  N   UNL     1      -3.696   5.602  -4.693  0.00  0.00    -0.191 NA
ENDBRANCH  14  16
ENDBRANCH   2  13
ENDBRANCH   1   3
BRANCH   1  19
ATOM     18  C   UNL     1       1.346   2.010   0.000  0.00  0.00    -0.095 C 
ATOM     19  N   UNL     1      -0.030   1.473   0.034  0.00  0.00    +0.388 N 
ATOM     20  H   UNL     1      -0.486   1.778   0.903  0.00  0.00    -0.081 HD
BRANCH  19  21
ATOM     21  C   UNL     1       0.002  -0.004   0.002  0.00  0.00    -0.003 C 
BRANCH  21  22
ATOM     22  C   UNL     1       0.598  -0.505   1.292  0.00  0.00    +0.095 A 
ATOM     23  N   UNL     1      -0.236  -0.827   2.297  0.00  0.00    -0.344 N 
ATOM     24  H   UNL     1      -1.194  -0.732   2.176  0.00  0.00    +0.167 HD
ATOM     25  C   UNL     1       0.261  -1.295   3.497  0.00  0.00    +0.053 A 
ATOM     26  C   UNL     1      -0.572  -1.640   4.552  0.00  0.00    +0.026 A 
ATOM     27  C   UNL     1      -0.025  -2.098   5.732  0.00  0.00    +0.002 A 
ATOM     28  C   UNL     1       1.350  -2.217   5.877  0.00  0.00    +0.001 A 
ATOM     29  C   UNL     1       2.193  -1.880   4.840  0.00  0.00    +0.015 A 
ATOM     30  C   UNL     1       1.655  -1.416   3.642  0.00  0.00    +0.065 A 
ATOM     31  C   UNL     1       2.502  -1.039   2.497  0.00  0.00    +0.281 A 
ATOM     32  O   UNL     1       3.717  -1.121   2.562  0.00  0.00    -0.265 OA
ATOM     33  N   UNL     1       1.896  -0.600   1.378  0.00  0.00    -0.197 NA
ENDBRANCH  21  22
ENDBRANCH  19  21
ENDBRANCH   1  19
TORSDOF 6
