REMARK  Name = ZINC12133566
REMARK  7 active torsions:
REMARK  status: ('A' for Active; 'I' for Inactive)
REMARK    1  A    between atoms: C_9  and  C_12
REMARK    2  A    between atoms: C_19  and  C_20
REMARK    3  A    between atoms: C_19  and  N_60
REMARK    4  A    between atoms: N_22  and  C_23
REMARK    5  A    between atoms: C_23  and  C_24
REMARK    6  A    between atoms: C_24  and  C_25
REMARK    7  A    between atoms: C_25  and  N_26
REMARK                            x       y       z     vdW  Elec       q    Type
REMARK                         _______ _______ _______ _____ _____    ______ ____
ROOT
ATOM      1  C   UNL     1     -10.207   5.188   6.076  0.00  0.00    +0.000 A 
ATOM      2  C   UNL     1     -10.617   6.478   5.790  0.00  0.00    +0.004 A 
ATOM      3  C   UNL     1      -9.871   7.273   4.941  0.00  0.00    +0.046 A 
ATOM      4  C   UNL     1      -8.708   6.770   4.374  0.00  0.00    +0.123 A 
ATOM      5  C   UNL     1      -8.313   5.475   4.649  0.00  0.00    -0.022 A 
ATOM      6  C   UNL     1      -9.053   4.684   5.503  0.00  0.00    +0.005 A 
ATOM      7  C   UNL     1      -7.057   4.927   3.999  0.00  0.00    -0.038 C 
ATOM      8  C   UNL     1      -5.627   6.894   3.876  0.00  0.00    -0.027 C 
ATOM      9  C   UNL     1      -6.679   7.952   4.132  0.00  0.00    +0.190 C 
ATOM     10  O   UNL     1      -7.939   7.560   3.576  0.00  0.00    -0.486 OA
ATOM     11  N   UNL     1      -5.894   5.630   4.593  0.00  0.00    +0.391 N 
ATOM     12  H   UNL     1      -6.106   5.846   5.574  0.00  0.00    -0.080 HD
ENDROOT
BRANCH   9  13
ATOM     13  C   UNL     1      -6.241   9.250   3.503  0.00  0.00    +0.026 A 
ATOM     14  C   UNL     1      -6.696   9.597   2.245  0.00  0.00    +0.010 A 
ATOM     15  C   UNL     1      -6.299  10.790   1.671  0.00  0.00    +0.001 A 
ATOM     16  C   UNL     1      -5.437  11.632   2.348  0.00  0.00    +0.003 A 
ATOM     17  C   UNL     1      -4.976  11.284   3.604  0.00  0.00    +0.039 A 
ATOM     18  C   UNL     1      -5.378  10.092   4.183  0.00  0.00    +0.130 A 
ATOM     19  F   UNL     1      -4.927   9.752   5.410  0.00  0.00    -0.205 F 
ENDBRANCH   9  13
BRANCH  11  20
ATOM     20  C   UNL     1      -4.705   4.765   4.542  0.00  0.00    +0.019 C 
BRANCH  20  21
ATOM     21  C   UNL     1      -4.305   4.478   3.118  0.00  0.00    +0.196 C 
ATOM     22  O   UNL     1      -4.947   4.946   2.202  0.00  0.00    -0.278 OA
ATOM     23  N   UNL     1      -3.234   3.701   2.862  0.00  0.00    -0.317 N 
ATOM     24  H   UNL     1      -2.720   3.327   3.595  0.00  0.00    +0.149 HD
BRANCH  23  25
ATOM     25  C   UNL     1      -2.846   3.422   1.477  0.00  0.00    +0.106 C 
BRANCH  25  26
ATOM     26  C   UNL     1      -1.608   2.523   1.466  0.00  0.00    +0.042 C 
BRANCH  26  27
ATOM     27  C   UNL     1      -1.202   2.231   0.020  0.00  0.00    +0.147 C 
BRANCH  27  28
ATOM     28  N   UNL     1      -0.017   1.370   0.010  0.00  0.00    -0.244 N 
ATOM     29  C   UNL     1       0.002  -0.004   0.002  0.00  0.00    +0.089 A 
ATOM     30  C   UNL     1      -0.985  -0.984   0.007  0.00  0.00    +0.029 A 
ATOM     31  C   UNL     1      -0.631  -2.304  -0.004  0.00  0.00    +0.002 A 
ATOM     32  C   UNL     1       0.707  -2.678  -0.019  0.00  0.00    +0.002 A 
ATOM     33  C   UNL     1       1.693  -1.736  -0.023  0.00  0.00    +0.032 A 
ATOM     34  C   UNL     1       1.358  -0.375  -0.013  0.00  0.00    +0.113 A 
ATOM     35  N   UNL     1       2.092   0.755  -0.014  0.00  0.00    -0.129 NA
ATOM     36  N   UNL     1       1.323   1.787  -0.001  0.00  0.00    -0.065 NA
ENDBRANCH  27  28
ENDBRANCH  26  27
ENDBRANCH  25  26
ENDBRANCH  23  25
ENDBRANCH  20  21
ENDBRANCH  11  20
TORSDOF 7
