REMARK  Name = ZINC32853992
REMARK  9 active torsions:
REMARK  status: ('A' for Active; 'I' for Inactive)
REMARK    1  A    between atoms: C_1  and  C_2
REMARK    2  A    between atoms: C_4  and  C_35
REMARK    3  A    between atoms: C_7  and  C_12
REMARK    4  A    between atoms: C_12  and  O_14
REMARK    5  A    between atoms: O_14  and  C_15
REMARK    6  A    between atoms: C_15  and  C_17
REMARK    7  A    between atoms: C_15  and  C_18
REMARK    8  A    between atoms: N_23  and  S_26
REMARK    9  A    between atoms: S_26  and  C_29
REMARK                            x       y       z     vdW  Elec       q    Type
REMARK                         _______ _______ _______ _____ _____    ______ ____
ROOT
ATOM      1  C   UNL     1      -1.832   1.198   3.384  0.00  0.00    +0.259 C 
ATOM      2  C   UNL     1      -0.875   2.060   4.210  0.00  0.00    +0.062 C 
ENDROOT
BRANCH   1   3
ATOM      3  C   UNL     1      -1.121   0.694   2.155  0.00  0.00    +0.256 C 
ATOM      4  O   UNL     1      -0.922  -0.494   2.014  0.00  0.00    -0.272 OA
ATOM      5  N   UNL     1      -0.707   1.563   1.212  0.00  0.00    -0.296 N 
ATOM      6  C   UNL     1      -0.013   1.086   0.008  0.00  0.00    +0.125 C 
ATOM      7  C   UNL     1      -0.761   1.597  -1.229  0.00  0.00    +0.128 C 
ATOM      8  N   UNL     1      -0.997   3.039  -1.073  0.00  0.00    -0.174 NA
ATOM      9  C   UNL     1      -1.695   3.517   0.130  0.00  0.00    +0.128 C 
ATOM     10  C   UNL     1      -0.947   3.005   1.367  0.00  0.00    +0.125 C 
BRANCH   8  11
ATOM     11  S   UNL     1      -0.485   4.108  -2.230  0.00  0.00    +0.061 S 
ATOM     12  O   UNL     1      -0.336   5.365  -1.585  0.00  0.00    -0.153 OA
ATOM     13  O   UNL     1       0.582   3.475  -2.922  0.00  0.00    -0.153 OA
BRANCH  11  14
ATOM     14  C   UNL     1      -1.800   4.289  -3.389  0.00  0.00    +0.105 A 
ATOM     15  C   UNL     1      -1.871   3.455  -4.490  0.00  0.00    +0.028 A 
ATOM     16  C   UNL     1      -2.905   3.595  -5.396  0.00  0.00    +0.002 A 
ATOM     17  C   UNL     1      -3.863   4.574  -5.208  0.00  0.00    +0.000 A 
ATOM     18  C   UNL     1      -3.788   5.411  -4.110  0.00  0.00    +0.002 A 
ATOM     19  C   UNL     1      -2.757   5.268  -3.201  0.00  0.00    +0.028 A 
ENDBRANCH  11  14
ENDBRANCH   8  11
ENDBRANCH   1   3
BRANCH   1  20
ATOM     20  O   UNL     1      -2.278   0.070   4.183  0.00  0.00    -0.448 OA
BRANCH  20  21
ATOM     21  C   UNL     1      -3.395   0.243   4.918  0.00  0.00    +0.356 C 
ATOM     22  O   UNL     1      -3.980   1.309   4.893  0.00  0.00    -0.243 OA
BRANCH  21  29
ATOM     23  C   UNL     1      -4.785  -6.075   8.588  0.00  0.00    +0.044 C 
ATOM     24  C   UNL     1      -4.909  -4.661   8.081  0.00  0.00    -0.048 A 
ATOM     25  C   UNL     1      -5.964  -3.866   8.511  0.00  0.00    +0.007 A 
ATOM     26  C   UNL     1      -6.095  -2.583   8.065  0.00  0.00    -0.041 A 
ATOM     27  C   UNL     1      -5.157  -2.060   7.165  0.00  0.00    +0.003 A 
ATOM     28  C   UNL     1      -5.015  -0.802   6.532  0.00  0.00    +0.043 A 
ATOM     29  C   UNL     1      -3.904  -0.855   5.750  0.00  0.00    +0.125 A 
ATOM     30  N   UNL     1      -3.335  -2.109   5.858  0.00  0.00    -0.349 N 
ATOM     31  H   UNL     1      -2.424  -2.351   5.290  0.00  0.00    +0.166 HD
ATOM     32  C   UNL     1      -4.086  -2.863   6.728  0.00  0.00    +0.048 A 
ATOM     33  C   UNL     1      -3.975  -4.169   7.197  0.00  0.00    +0.029 A 
ATOM     34  C   UNL     1      -7.245  -1.732   8.539  0.00  0.00    +0.044 C 
ENDBRANCH  21  29
ENDBRANCH  20  21
ENDBRANCH   1  20
TORSDOF 6
