REMARK  Name = ZINC37332134
REMARK  3 active torsions:
REMARK  status: ('A' for Active; 'I' for Inactive)
REMARK    1  A    between atoms: C_2  and  C_9
REMARK    2  A    between atoms: C_9  and  C_11
REMARK    3  A    between atoms: C_9  and  N_22
REMARK                            x       y       z     vdW  Elec       q    Type
REMARK                         _______ _______ _______ _____ _____    ______ ____
ROOT
ATOM      1  C   UNL     1       1.149   3.595   0.010  0.00  0.00    -0.012 C 
ENDROOT
BRANCH   1   2
ATOM      2  C   UNL     1       1.375   4.108  -1.389  0.00  0.00    -0.036 A 
ATOM      3  C   UNL     1       2.649   4.452  -1.800  0.00  0.00    +0.053 A 
ATOM      4  C   UNL     1       2.861   4.923  -3.087  0.00  0.00    +0.162 A 
ATOM      5  C   UNL     1       1.789   5.047  -3.963  0.00  0.00    +0.163 A 
ATOM      6  C   UNL     1       0.512   4.702  -3.545  0.00  0.00    +0.069 A 
ATOM      7  C   UNL     1       0.308   4.229  -2.261  0.00  0.00    +0.047 A 
ATOM      8 CL   UNL     1      -1.290   3.791  -1.743  0.00  0.00    -0.083 Cl
ATOM      9  O   UNL     1       1.976   5.500  -5.233  0.00  0.00    -0.485 OA
ATOM     10  C   UNL     1       3.205   6.186  -5.497  0.00  0.00    +0.270 C 
ATOM     11  C   UNL     1       4.352   5.370  -4.885  0.00  0.00    +0.270 C 
ATOM     12  O   UNL     1       4.121   5.260  -3.476  0.00  0.00    -0.485 OA
ENDBRANCH   1   2
BRANCH   1  14
ATOM     13  C   UNL     1      -0.017   1.381   0.010  0.00  0.00    +0.040 A 
ATOM     14  C   UNL     1       1.170   2.088   0.002  0.00  0.00    -0.052 A 
ATOM     15  C   UNL     1       2.377   1.415  -0.013  0.00  0.00    +0.040 A 
ATOM     16  C   UNL     1       2.399   0.031  -0.021  0.00  0.00    +0.126 A 
ATOM     17  C   UNL     1       1.210  -0.679  -0.013  0.00  0.00    +0.076 A 
ATOM     18  C   UNL     1       0.002  -0.004   0.002  0.00  0.00    +0.126 A 
ATOM     19  F   UNL     1      -1.158  -0.696   0.010  0.00  0.00    -0.205 F 
ATOM     20  F   UNL     1       3.579  -0.627  -0.036  0.00  0.00    -0.205 F 
ENDBRANCH   1  14
BRANCH   1  21
ATOM     21  N   UNL     1       2.211   4.096   0.893  0.00  0.00    +0.385 N 
ATOM     22  H   UNL     1       3.106   3.774   0.557  0.00  0.00    -0.089 HD
ATOM     23  H   UNL     1       2.196   5.104   0.898  0.00  0.00    -0.089 HD
ATOM     24  H   UNL     1       2.059   3.752   1.829  0.00  0.00    -0.089 HD
ENDBRANCH   1  21
TORSDOF 3
