REMARK  Name = ZINC32537303
REMARK  13 active torsions:
REMARK  status: ('A' for Active; 'I' for Inactive)
REMARK    1  A    between atoms: C_1  and  C_2
REMARK    2  A    between atoms: C_5  and  C_33
REMARK    3  A    between atoms: C_6  and  C_8
REMARK    4  A    between atoms: C_8  and  N_9
REMARK    5  A    between atoms: N_9  and  C_10
REMARK    6  A    between atoms: C_13  and  C_21
REMARK    7  A    between atoms: N_15  and  C_17
REMARK    8  A    between atoms: C_17  and  C_18
REMARK    9  A    between atoms: C_18  and  C_19
REMARK   10  A    between atoms: C_18  and  C_20
REMARK   11  A    between atoms: N_23  and  C_24
REMARK   12  A    between atoms: C_24  and  C_25
REMARK   13  A    between atoms: C_25  and  C_26
REMARK                            x       y       z     vdW  Elec       q    Type
REMARK                         _______ _______ _______ _____ _____    ______ ____
ROOT
ATOM      1  C   UNL     1       1.441  -4.023   4.051  0.00  0.00    -0.055 C 
ATOM      2  C   UNL     1       2.866  -4.555   4.357  0.00  0.00    +0.014 C 
ATOM      3  C   UNL     1       2.835  -4.660   5.903  0.00  0.00    +0.142 C 
ATOM      4  N   UNL     1       2.042  -3.493   6.345  0.00  0.00    -0.293 NA
ATOM      5  C   UNL     1       1.155  -3.079   5.238  0.00  0.00    +0.069 C 
ENDROOT
BRANCH   3   6
ATOM      6  C   UNL     1       4.233  -4.589   6.461  0.00  0.00    +0.230 C 
ATOM      7  O   UNL     1       4.541  -3.688   7.212  0.00  0.00    -0.274 OA
ATOM      8  N   UNL     1       5.140  -5.528   6.127  0.00  0.00    -0.314 N 
ATOM      9  H   UNL     1       4.894  -6.248   5.526  0.00  0.00    +0.149 HD
BRANCH   8  10
ATOM     10  C   UNL     1       6.499  -5.459   6.670  0.00  0.00    +0.109 C 
BRANCH  10  11
ATOM     11  C   UNL     1       7.321  -6.634   6.137  0.00  0.00    +0.056 C 
BRANCH  11  12
ATOM     12  C   UNL     1       8.719  -6.564   6.696  0.00  0.00    -0.011 A 
ATOM     13  C   UNL     1       9.724  -5.952   5.970  0.00  0.00    +0.006 A 
ATOM     14  C   UNL     1      11.006  -5.888   6.482  0.00  0.00    +0.000 A 
ATOM     15  C   UNL     1      11.285  -6.434   7.721  0.00  0.00    +0.003 A 
ATOM     16  C   UNL     1      10.282  -7.045   8.449  0.00  0.00    +0.038 A 
ATOM     17  C   UNL     1       8.996  -7.106   7.939  0.00  0.00    +0.127 A 
ATOM     18  F   UNL     1       8.014  -7.700   8.651  0.00  0.00    -0.205 F 
ENDBRANCH  11  12
ENDBRANCH  10  11
ENDBRANCH   8  10
ENDBRANCH   3   6
BRANCH   1  19
ATOM     19  N   UNL     1       1.425  -3.282   2.783  0.00  0.00    +0.384 N 
ATOM     20  H   UNL     1       1.754  -3.879   2.040  0.00  0.00    -0.085 HD
ATOM     21  H   UNL     1       2.026  -2.475   2.857  0.00  0.00    -0.085 HD
BRANCH  19  22
ATOM     22  C   UNL     1       0.054  -2.845   2.489  0.00  0.00    -0.046 C 
BRANCH  22  28
ATOM     23  C   UNL     1      -0.018   1.503   0.010  0.00  0.00    +0.044 C 
ATOM     24  C   UNL     1       0.002  -0.004   0.002  0.00  0.00    -0.050 A 
ATOM     25  C   UNL     1       0.006  -0.689  -1.199  0.00  0.00    +0.003 A 
ATOM     26  C   UNL     1       0.025  -2.071  -1.207  0.00  0.00    +0.004 A 
ATOM     27  C   UNL     1       0.040  -2.768  -0.013  0.00  0.00    -0.049 A 
ATOM     28  C   UNL     1       0.037  -2.084   1.188  0.00  0.00    -0.061 A 
ATOM     29  C   UNL     1       0.023  -0.702   1.195  0.00  0.00    +0.005 A 
ATOM     30  C   UNL     1       0.059  -4.275  -0.021  0.00  0.00    +0.044 C 
ENDBRANCH  22  28
ENDBRANCH  19  22
ENDBRANCH   1  19
BRANCH   4  31
ATOM     31  C   UNL     1       1.263  -3.811   7.549  0.00  0.00    +0.088 C 
BRANCH  31  32
ATOM     32  C   UNL     1       0.657  -2.526   8.118  0.00  0.00    -0.003 C 
ATOM     33  C   UNL     1      -0.254  -2.872   9.298  0.00  0.00    +0.008 C 
ATOM     34  C   UNL     1       1.778  -1.601   8.594  0.00  0.00    +0.008 C 
ENDBRANCH  31  32
ENDBRANCH   4  31
TORSDOF 9
