REMARK  Name = ZINC02356261
REMARK  10 active torsions:
REMARK  status: ('A' for Active; 'I' for Inactive)
REMARK    1  A    between atoms: C_1  and  C_2
REMARK    2  A    between atoms: C_2  and  C_3
REMARK    3  A    between atoms: C_3  and  C_4
REMARK    4  A    between atoms: C_3  and  C_6
REMARK    5  A    between atoms: C_4  and  C_5
REMARK    6  A    between atoms: C_6  and  O_7
REMARK    7  A    between atoms: O_7  and  C_8
REMARK    8  A    between atoms: C_8  and  C_10
REMARK    9  A    between atoms: N_21  and  C_24
REMARK   10  A    between atoms: C_22  and  N_23
REMARK                            x       y       z     vdW  Elec       q    Type
REMARK                         _______ _______ _______ _____ _____    ______ ____
ROOT
ATOM      1  C   UNL     1      -0.554  -2.182  -0.763  0.00  0.00    +0.126 A 
ATOM      2  C   UNL     1      -0.227  -3.046  -1.910  0.00  0.00    +0.125 A 
ATOM      3  C   UNL     1      -0.316  -4.418  -1.402  0.00  0.00    +0.167 A 
ATOM      4  N   UNL     1      -0.073  -5.425  -2.213  0.00  0.00    -0.225 NA
ATOM      5  C   UNL     1       0.253  -5.189  -3.490  0.00  0.00    +0.092 A 
ATOM      6  C   UNL     1       0.516  -6.261  -4.364  0.00  0.00    +0.030 A 
ATOM      7  C   UNL     1       0.845  -6.012  -5.660  0.00  0.00    +0.002 A 
ATOM      8  C   UNL     1       0.929  -4.707  -6.141  0.00  0.00    +0.002 A 
ATOM      9  C   UNL     1       0.683  -3.645  -5.327  0.00  0.00    +0.030 A 
ATOM     10  C   UNL     1       0.339  -3.862  -3.979  0.00  0.00    +0.090 A 
ATOM     11  N   UNL     1       0.094  -2.825  -3.169  0.00  0.00    -0.241 NA
ATOM     12  N   UNL     1      -0.667  -4.332  -0.068  0.00  0.00    -0.280 N 
ATOM     13  C   UNL     1      -0.801  -3.030   0.312  0.00  0.00    +0.119 A 
ENDROOT
BRANCH  12  14
ATOM     14  C   UNL     1      -0.852  -5.433   0.779  0.00  0.00    +0.050 A 
ATOM     15  C   UNL     1      -1.890  -6.324   0.544  0.00  0.00    +0.026 A 
ATOM     16  C   UNL     1      -2.066  -7.411   1.378  0.00  0.00    +0.002 A 
ATOM     17  C   UNL     1      -1.217  -7.606   2.452  0.00  0.00    +0.000 A 
ATOM     18  C   UNL     1      -0.185  -6.716   2.691  0.00  0.00    +0.002 A 
ATOM     19  C   UNL     1      -0.001  -5.631   1.858  0.00  0.00    +0.026 A 
ENDBRANCH  12  14
BRANCH  13  20
ATOM     20  N   UNL     1      -1.136  -2.615   1.574  0.00  0.00    -0.343 N 
ATOM     21  H   UNL     1      -1.217  -1.668   1.768  0.00  0.00    +0.144 HD
ATOM     22  H   UNL     1      -1.294  -3.269   2.274  0.00  0.00    +0.144 HD
ENDBRANCH  13  20
BRANCH   1  23
ATOM     23  C   UNL     1      -0.602  -0.767  -0.754  0.00  0.00    +0.345 C 
ATOM     24  O   UNL     1      -1.642  -0.192  -1.017  0.00  0.00    -0.245 OA
BRANCH  23  25
ATOM     25  O   UNL     1       0.506  -0.056  -0.456  0.00  0.00    -0.461 OA
BRANCH  25  26
ATOM     26  C   UNL     1       0.386   1.367  -0.466  0.00  0.00    +0.236 C 
BRANCH  26  27
ATOM     27  C   UNL     1       1.733   1.996  -0.105  0.00  0.00    +0.026 C 
BRANCH  27  29
ATOM     28  C   UNL     1       3.029   4.131  -0.033  0.00  0.00    +0.004 C 
ATOM     29  C   UNL     1       1.649   3.514  -0.272  0.00  0.00    +0.003 C 
ENDBRANCH  27  29
BRANCH  27  30
ATOM     30  C   UNL     1       2.080   1.661   1.347  0.00  0.00    +0.003 C 
ATOM     31  C   UNL     1       2.322   0.156   1.479  0.00  0.00    +0.004 C 
ENDBRANCH  27  30
ENDBRANCH  26  27
ENDBRANCH  25  26
ENDBRANCH  23  25
ENDBRANCH   1  23
TORSDOF 8
