REMARK  Name = ZINC59831704
REMARK  8 active torsions:
REMARK  status: ('A' for Active; 'I' for Inactive)
REMARK    1  A    between atoms: C_2  and  C_3
REMARK    2  A    between atoms: C_3  and  N_4
REMARK    3  A    between atoms: C_6  and  C_9
REMARK    4  A    between atoms: N_10  and  N_11
REMARK    5  A    between atoms: C_14  and  S_17
REMARK    6  A    between atoms: S_17  and  C_18
REMARK    7  A    between atoms: C_18  and  C_19
REMARK    8  A    between atoms: N_21  and  C_22
REMARK                            x       y       z     vdW  Elec       q    Type
REMARK                         _______ _______ _______ _____ _____    ______ ____
ROOT
ATOM      1  N   UNL     1      -1.703  -6.604  -4.381  0.00  0.00    -0.205 N 
ATOM      2  C   UNL     1      -1.626  -6.953  -5.716  0.00  0.00    +0.232 A 
ATOM      3  N   UNL     1      -1.407  -6.130  -6.720  0.00  0.00    -0.186 NA
ATOM      4  C   UNL     1      -1.398  -6.815  -7.869  0.00  0.00    +0.211 A 
ATOM      5  N   UNL     1      -1.611  -8.084  -7.611  0.00  0.00    -0.144 NA
ATOM      6  N   UNL     1      -1.757  -8.199  -6.219  0.00  0.00    -0.245 N 
ATOM      7  H   UNL     1      -1.865  -7.285  -3.710  0.00  0.00    +0.177 HD
ATOM      8  H   UNL     1      -1.921  -9.014  -5.718  0.00  0.00    +0.192 HD
ENDROOT
BRANCH   1  10
ATOM      9  C   UNL     1      -1.620  -4.937  -2.744  0.00  0.00    +0.141 C 
ATOM     10  N   UNL     1      -1.548  -5.265  -3.997  0.00  0.00    -0.187 NA
BRANCH   9  13
ATOM     11  N   UNL     1      -1.311  -1.702  -1.125  0.00  0.00    -0.267 N 
ATOM     12  C   UNL     1      -1.509  -3.034  -1.054  0.00  0.00    +0.118 A 
ATOM     13  C   UNL     1      -1.457  -3.527  -2.340  0.00  0.00    +0.032 A 
ATOM     14  C   UNL     1      -1.218  -2.432  -3.199  0.00  0.00    +0.143 A 
ATOM     15  N   UNL     1      -1.139  -1.353  -2.469  0.00  0.00    -0.179 NA
BRANCH  11  16
ATOM     16  C   UNL     1      -1.288  -0.778   0.012  0.00  0.00    +0.170 C 
BRANCH  16  18
ATOM     17  C   UNL     1      -0.024   1.312   0.006  0.00  0.00    +0.006 C 
ATOM     18  C   UNL     1       0.002   0.002  -0.002  0.00  0.00    -0.012 C 
ENDBRANCH  16  18
ENDBRANCH  11  16
ENDBRANCH   9  13
ENDBRANCH   1  10
BRANCH   4  19
ATOM     19  S   UNL     1      -1.142  -6.126  -9.470  0.00  0.00    -0.075 S 
BRANCH  19  20
ATOM     20  C   UNL     1      -1.246  -7.553 -10.585  0.00  0.00    +0.173 C 
BRANCH  20  21
ATOM     21  C   UNL     1      -1.042  -7.096 -12.006  0.00  0.00    +0.227 C 
ATOM     22  O   UNL     1      -0.845  -5.923 -12.244  0.00  0.00    -0.275 OA
ATOM     23  N   UNL     1      -1.077  -7.992 -13.013  0.00  0.00    -0.285 N 
ATOM     24  H   UNL     1      -1.167  -8.937 -12.818  0.00  0.00    +0.155 HD
BRANCH  23  25
ATOM     25  C   UNL     1      -0.984  -7.556 -14.340  0.00  0.00    +0.033 A 
ATOM     26  C   UNL     1      -1.698  -8.207 -15.337  0.00  0.00    +0.024 A 
ATOM     27  C   UNL     1      -1.605  -7.775 -16.646  0.00  0.00    +0.016 A 
ATOM     28  C   UNL     1      -0.801  -6.695 -16.963  0.00  0.00    +0.013 A 
ATOM     29  C   UNL     1      -0.089  -6.044 -15.972  0.00  0.00    +0.016 A 
ATOM     30  C   UNL     1      -0.183  -6.468 -14.661  0.00  0.00    +0.024 A 
ATOM     31  I   UNL     1      -0.661  -6.043 -18.949  0.00  0.00    -0.044 I 
ENDBRANCH  23  25
ENDBRANCH  20  21
ENDBRANCH  19  20
ENDBRANCH   4  19
TORSDOF 8
