REMARK  Name = ZINC40322800
REMARK  12 active torsions:
REMARK  status: ('A' for Active; 'I' for Inactive)
REMARK    1  A    between atoms: C_1  and  C_2
REMARK    2  A    between atoms: C_2  and  C_3
REMARK    3  A    between atoms: C_3  and  O_4
REMARK    4  A    between atoms: O_4  and  C_5
REMARK    5  A    between atoms: C_8  and  C_11
REMARK    6  A    between atoms: C_11  and  C_13
REMARK    7  A    between atoms: C_11  and  N_32
REMARK    8  A    between atoms: C_13  and  N_14
REMARK    9  A    between atoms: C_15  and  C_17
REMARK   10  A    between atoms: C_20  and  S_22
REMARK   11  A    between atoms: S_22  and  C_25
REMARK   12  A    between atoms: C_28  and  C_31
REMARK                            x       y       z     vdW  Elec       q    Type
REMARK                         _______ _______ _______ _____ _____    ______ ____
ROOT
ATOM      1  N   UNL     1      -8.072  -5.845   1.301  0.00  0.00    -0.307 N 
ATOM      2  C   UNL     1      -8.620  -6.416   2.392  0.00  0.00    +0.280 C 
ATOM      3  O   UNL     1      -8.053  -6.345   3.466  0.00  0.00    -0.267 OA
ATOM      4  H   UNL     1      -8.524  -5.901   0.445  0.00  0.00    +0.149 HD
ENDROOT
BRANCH   2   5
ATOM      5  C   UNL     1      -9.900  -7.124   2.284  0.00  0.00    +0.192 A 
ATOM      6  C   UNL     1     -10.566  -7.739   3.305  0.00  0.00    +0.056 A 
ATOM      7  C   UNL     1     -11.737  -8.281   2.754  0.00  0.00    +0.070 A 
ATOM      8  C   UNL     1     -11.736  -7.977   1.438  0.00  0.00    +0.246 A 
ATOM      9  O   UNL     1     -10.630  -7.275   1.159  0.00  0.00    -0.433 OA
BRANCH   8  10
ATOM     10  S   UNL     1     -12.986  -8.425   0.279  0.00  0.00    +0.058 S 
ATOM     11  O   UNL     1     -12.371  -8.425  -1.002  0.00  0.00    -0.161 OA
ATOM     12  O   UNL     1     -13.640  -9.569   0.810  0.00  0.00    -0.161 OA
BRANCH  10  13
ATOM     13  C   UNL     1     -14.175  -7.125   0.267  0.00  0.00    +0.097 A 
ATOM     14  C   UNL     1     -15.248  -7.162   1.137  0.00  0.00    +0.028 A 
ATOM     15  C   UNL     1     -16.181  -6.142   1.128  0.00  0.00    +0.005 A 
ATOM     16  C   UNL     1     -16.041  -5.085   0.249  0.00  0.00    -0.050 A 
ATOM     17  C   UNL     1     -14.967  -5.047  -0.621  0.00  0.00    +0.005 A 
ATOM     18  C   UNL     1     -14.032  -6.065  -0.608  0.00  0.00    +0.028 A 
ATOM     19  C   UNL     1     -17.058  -3.973   0.238  0.00  0.00    +0.044 C 
ENDBRANCH  10  13
ENDBRANCH   8  10
ENDBRANCH   2   5
BRANCH   1  20
ATOM     20  C   UNL     1      -6.793  -5.138   1.409  0.00  0.00    +0.128 C 
BRANCH  20  21
ATOM     21  C   UNL     1      -6.397  -4.588   0.038  0.00  0.00    +0.104 C 
BRANCH  21  25
ATOM     22  C   UNL     1      -2.509  -2.831   0.276  0.00  0.00    +0.121 A 
ATOM     23  C   UNL     1      -2.731  -4.100   0.792  0.00  0.00    +0.046 A 
ATOM     24  C   UNL     1      -3.989  -4.665   0.714  0.00  0.00    +0.009 A 
ATOM     25  C   UNL     1      -5.026  -3.968   0.122  0.00  0.00    -0.029 A 
ATOM     26  C   UNL     1      -4.807  -2.704  -0.393  0.00  0.00    +0.009 A 
ATOM     27  C   UNL     1      -3.552  -2.131  -0.312  0.00  0.00    +0.046 A 
BRANCH  22  28
ATOM     28  O   UNL     1      -1.272  -2.273   0.352  0.00  0.00    -0.492 OA
BRANCH  28  29
ATOM     29  C   UNL     1      -0.245  -3.051   0.971  0.00  0.00    +0.229 C 
BRANCH  29  31
ATOM     30  C   UNL     1       2.165  -3.096   1.627  0.00  0.00    +0.007 C 
ATOM     31  C   UNL     1       1.066  -2.263   0.964  0.00  0.00    +0.038 C 
ENDBRANCH  29  31
ENDBRANCH  28  29
ENDBRANCH  22  28
ENDBRANCH  21  25
BRANCH  21  32
ATOM     32  N   UNL     1      -6.381  -5.681  -0.943  0.00  0.00    -0.290 NA
ATOM     33  C   UNL     1      -5.389  -6.703  -0.576  0.00  0.00    +0.113 C 
ATOM     34  C   UNL     1      -5.448  -7.849  -1.589  0.00  0.00    +0.175 C 
ATOM     35  O   UNL     1      -5.229  -7.329  -2.904  0.00  0.00    -0.377 OA
ATOM     36  C   UNL     1      -6.178  -6.332  -3.293  0.00  0.00    +0.175 C 
ATOM     37  C   UNL     1      -6.127  -5.170  -2.297  0.00  0.00    +0.113 C 
ENDBRANCH  21  32
ENDBRANCH  20  21
ENDBRANCH   1  20
TORSDOF 10
