REMARK  Name = ZINC12367377
REMARK  12 active torsions:
REMARK  status: ('A' for Active; 'I' for Inactive)
REMARK    1  A    between atoms: C_1  and  C_2
REMARK    2  A    between atoms: C_2  and  C_3
REMARK    3  A    between atoms: C_2  and  C_4
REMARK    4  A    between atoms: C_2  and  C_5
REMARK    5  A    between atoms: C_8  and  C_11
REMARK    6  A    between atoms: N_12  and  N_13
REMARK    7  A    between atoms: C_14  and  C_16
REMARK    8  A    between atoms: C_16  and  S_17
REMARK    9  A    between atoms: S_17  and  C_18
REMARK   10  A    between atoms: C_21  and  C_22
REMARK   11  A    between atoms: C_21  and  C_28
REMARK   12  A    between atoms: C_21  and  N_67
REMARK                            x       y       z     vdW  Elec       q    Type
REMARK                         _______ _______ _______ _____ _____    ______ ____
ROOT
ATOM      1  S   UNL     1      -3.701   5.730  -1.628  0.00  0.00    -0.152 S 
ENDROOT
BRANCH   1   2
ATOM      2  C   UNL     1      -3.437   7.449  -2.140  0.00  0.00    +0.014 C 
ATOM      3  C   UNL     1      -3.356   8.441  -0.966  0.00  0.00    -0.065 C 
ATOM      4  C   UNL     1      -4.730   8.182  -2.541  0.00  0.00    -0.065 C 
ATOM      5  N   UNL     1      -4.182   9.223  -1.778  0.00  0.00    +0.388 N 
ATOM      6  H   UNL     1      -3.646   9.884  -2.353  0.00  0.00    -0.080 HD
BRANCH   5   7
ATOM      7  C   UNL     1      -5.233   9.983  -0.990  0.00  0.00    -0.007 C 
BRANCH   7   8
ATOM      8  C   UNL     1      -4.621  11.077  -0.153  0.00  0.00    -0.057 A 
ATOM      9  C   UNL     1      -3.638  11.889  -0.689  0.00  0.00    +0.002 A 
ATOM     10  C   UNL     1      -3.080  12.895   0.077  0.00  0.00    +0.000 A 
ATOM     11  C   UNL     1      -3.497  13.084   1.381  0.00  0.00    +0.000 A 
ATOM     12  C   UNL     1      -4.476  12.269   1.918  0.00  0.00    +0.000 A 
ATOM     13  C   UNL     1      -5.038  11.265   1.151  0.00  0.00    +0.002 A 
ENDBRANCH   7   8
BRANCH   7  14
ATOM     14  C   UNL     1      -6.278  10.573  -1.901  0.00  0.00    -0.057 A 
ATOM     15  C   UNL     1      -5.898  11.212  -3.067  0.00  0.00    +0.002 A 
ATOM     16  C   UNL     1      -6.857  11.749  -3.906  0.00  0.00    +0.000 A 
ATOM     17  C   UNL     1      -8.195  11.656  -3.574  0.00  0.00    +0.000 A 
ATOM     18  C   UNL     1      -8.575  11.023  -2.405  0.00  0.00    +0.000 A 
ATOM     19  C   UNL     1      -7.617  10.481  -1.569  0.00  0.00    +0.002 A 
ENDBRANCH   7  14
ENDBRANCH   5   7
ENDBRANCH   1   2
BRANCH   1  20
ATOM     20  C   UNL     1      -2.025   5.087  -1.368  0.00  0.00    +0.166 C 
BRANCH  20  22
ATOM     21  N   UNL     1      -0.970   2.957  -0.681  0.00  0.00    -0.206 N 
ATOM     22  C   UNL     1      -2.101   3.646  -0.933  0.00  0.00    +0.242 C 
ATOM     23  O   UNL     1      -3.180   3.106  -0.811  0.00  0.00    -0.273 OA
ATOM     24  H   UNL     1      -0.107   3.389  -0.779  0.00  0.00    +0.177 HD
BRANCH  21  26
ATOM     25  C   UNL     1       0.033   0.996   0.100  0.00  0.00    +0.138 C 
ATOM     26  N   UNL     1      -1.041   1.618  -0.277  0.00  0.00    -0.188 NA
BRANCH  25  30
ATOM     27  C   UNL     1       3.203   3.151   1.923  0.00  0.00    -0.042 A 
ATOM     28  C   UNL     1       3.384   1.824   1.574  0.00  0.00    +0.005 A 
ATOM     29  C   UNL     1       2.358   1.117   0.981  0.00  0.00    +0.010 A 
ATOM     30  C   UNL     1       1.135   1.744   0.734  0.00  0.00    -0.005 A 
ATOM     31  C   UNL     1       0.961   3.085   1.085  0.00  0.00    +0.010 A 
ATOM     32  C   UNL     1       1.994   3.778   1.681  0.00  0.00    +0.005 A 
BRANCH  27  34
ATOM     33  C   UNL     1       5.535   3.940   1.629  0.00  0.00    +0.015 C 
ATOM     34  C   UNL     1       4.329   3.916   2.570  0.00  0.00    -0.013 C 
ATOM     35  C   UNL     1       3.875   5.349   2.853  0.00  0.00    +0.015 C 
ATOM     36  C   UNL     1       4.720   3.236   3.883  0.00  0.00    +0.015 C 
ENDBRANCH  27  34
ENDBRANCH  25  30
ENDBRANCH  21  26
ENDBRANCH  20  22
ENDBRANCH   1  20
TORSDOF 9
