REMARK  Name = ZINC21315725
REMARK  8 active torsions:
REMARK  status: ('A' for Active; 'I' for Inactive)
REMARK    1  A    between atoms: C_1  and  C_2
REMARK    2  A    between atoms: C_2  and  C_3
REMARK    3  A    between atoms: C_2  and  C_4
REMARK    4  A    between atoms: C_4  and  C_6
REMARK    5  A    between atoms: C_4  and  N_11
REMARK    6  A    between atoms: N_11  and  C_12
REMARK    7  A    between atoms: C_12  and  C_13
REMARK    8  A    between atoms: C_26  and  C_28
REMARK                            x       y       z     vdW  Elec       q    Type
REMARK                         _______ _______ _______ _____ _____    ______ ____
ROOT
ATOM      1  C   UNL     1      -2.688   2.100  -2.188  0.00  0.00    +0.203 C 
ATOM      2  O   UNL     1      -3.181   1.370  -3.022  0.00  0.00    -0.277 OA
ATOM      3  N   UNL     1      -2.743   3.438  -2.347  0.00  0.00    -0.259 N 
ATOM      4  C   UNL     1      -2.173   4.294  -1.394  0.00  0.00    +0.058 A 
ATOM      5  C   UNL     1      -0.797   4.407  -1.280  0.00  0.00    +0.025 A 
ATOM      6  C   UNL     1      -0.253   5.273  -0.350  0.00  0.00    +0.002 A 
ATOM      7  C   UNL     1      -1.077   6.029   0.465  0.00  0.00    +0.002 A 
ATOM      8  C   UNL     1      -2.452   5.915   0.363  0.00  0.00    +0.025 A 
ATOM      9  C   UNL     1      -3.004   5.041  -0.559  0.00  0.00    +0.055 A 
ATOM     10  N   UNL     1      -4.390   4.867  -0.642  0.00  0.00    -0.284 N 
ATOM     11  C   UNL     1      -5.014   4.900  -1.840  0.00  0.00    +0.219 C 
ATOM     12  O   UNL     1      -6.202   4.666  -1.907  0.00  0.00    -0.275 OA
ATOM     13  C   UNL     1      -4.244   5.225  -3.092  0.00  0.00    +0.128 C 
ATOM     14  C   UNL     1      -3.394   4.023  -3.521  0.00  0.00    +0.194 C 
ATOM     15  H   UNL     1      -4.907   4.723   0.166  0.00  0.00    +0.155 HD
ENDROOT
BRANCH  14  16
ATOM     16  C   UNL     1      -2.328   4.477  -4.520  0.00  0.00    +0.409 C 
ATOM     17  F   UNL     1      -1.558   3.378  -4.912  0.00  0.00    -0.169 F 
ATOM     18  F   UNL     1      -2.949   5.037  -5.642  0.00  0.00    -0.169 F 
ATOM     19  F   UNL     1      -1.503   5.434  -3.918  0.00  0.00    -0.169 F 
ENDBRANCH  14  16
BRANCH   1  20
ATOM     20  C   UNL     1      -2.014   1.513  -0.975  0.00  0.00    +0.016 C 
BRANCH  20  21
ATOM     21  N   UNL     1      -2.088   0.047  -1.036  0.00  0.00    +0.390 N 
ATOM     22  H   UNL     1      -1.696  -0.273  -1.909  0.00  0.00    -0.084 HD
ATOM     23  H   UNL     1      -3.051  -0.245  -0.973  0.00  0.00    -0.084 HD
BRANCH  21  24
ATOM     24  C   UNL     1      -1.327  -0.528   0.082  0.00  0.00    -0.031 C 
BRANCH  24  25
ATOM     25  C   UNL     1      -1.994  -0.164   1.383  0.00  0.00    -0.024 A 
ATOM     26  C   UNL     1      -1.428   0.207   2.558  0.00  0.00    +0.009 A 
ATOM     27  C   UNL     1      -2.245   0.500   3.633  0.00  0.00    +0.008 A 
ATOM     28  C   UNL     1      -3.589   0.408   3.481  0.00  0.00    +0.045 A 
ATOM     29  S   UNL     1      -3.734  -0.100   1.776  0.00  0.00    -0.103 S 
ENDBRANCH  24  25
BRANCH  24  31
ATOM     30  C   UNL     1      -0.565  -2.422  -1.359  0.00  0.00    +0.006 C 
ATOM     31  C   UNL     1      -1.285  -2.051  -0.060  0.00  0.00    -0.027 C 
ATOM     32  C   UNL     1      -0.535  -2.654   1.129  0.00  0.00    +0.006 C 
ENDBRANCH  24  31
ENDBRANCH  21  24
ENDBRANCH  20  21
ENDBRANCH   1  20
TORSDOF 6
