REMARK  Name = ZINC35778960
REMARK  16 active torsions:
REMARK  status: ('A' for Active; 'I' for Inactive)
REMARK    1  A    between atoms: C_1  and  C_2
REMARK    2  A    between atoms: C_2  and  C_3
REMARK    3  A    between atoms: C_3  and  N_4
REMARK    4  A    between atoms: N_4  and  C_5
REMARK    5  A    between atoms: N_4  and  C_18
REMARK    6  A    between atoms: C_5  and  C_6
REMARK    7  A    between atoms: C_6  and  C_8
REMARK    8  A    between atoms: C_6  and  O_17
REMARK    9  A    between atoms: C_8  and  O_9
REMARK   10  A    between atoms: O_9  and  C_10
REMARK   11  A    between atoms: C_15  and  C_16
REMARK   12  A    between atoms: C_18  and  C_19
REMARK   13  A    between atoms: C_29  and  C_31
REMARK   14  A    between atoms: C_31  and  O_32
REMARK   15  A    between atoms: O_32  and  C_33
REMARK   16  A    between atoms: C_37  and  C_39
REMARK                            x       y       z     vdW  Elec       q    Type
REMARK                         _______ _______ _______ _____ _____    ______ ____
ROOT
ATOM      1  C   UNL     1       2.930  -2.510  -1.844  0.00  0.00    +0.200 C 
ATOM      2  O   UNL     1       3.248  -1.855  -0.874  0.00  0.00    -0.278 OA
ATOM      3  N   UNL     1       3.880  -3.038  -2.640  0.00  0.00    -0.292 N 
ATOM      4  C   UNL     1       3.506  -3.829  -3.822  0.00  0.00    +0.113 C 
ATOM      5  C   UNL     1       3.981  -3.077  -5.076  0.00  0.00    +0.061 C 
ATOM      6  C   UNL     1       5.359  -2.555  -4.828  0.00  0.00    -0.004 A 
ATOM      7  C   UNL     1       5.999  -2.417  -3.635  0.00  0.00    -0.014 A 
ATOM      8  C   UNL     1       7.290  -1.893  -3.674  0.00  0.00    +0.013 A 
ATOM      9  C   UNL     1       7.847  -1.555  -4.860  0.00  0.00    +0.046 A 
ATOM     10  S   UNL     1       6.545  -1.971  -6.010  0.00  0.00    -0.101 S 
ATOM     11  C   UNL     1       5.303  -2.827  -2.343  0.00  0.00    +0.144 C 
ENDROOT
BRANCH   1  12
ATOM     12  C   UNL     1       1.473  -2.732  -2.158  0.00  0.00    +0.019 C 
BRANCH  12  13
ATOM     13  N   UNL     1       0.646  -2.059  -1.148  0.00  0.00    +0.387 N 
ATOM     14  H   UNL     1       0.912  -2.378  -0.229  0.00  0.00    -0.081 HD
BRANCH  13  15
ATOM     15  C   UNL     1       0.845  -0.607  -1.240  0.00  0.00    -0.078 C 
BRANCH  15  17
ATOM     16  C   UNL     1       0.649   1.387  -2.732  0.00  0.00    +0.002 C 
ATOM     17  C   UNL     1       0.383  -0.115  -2.613  0.00  0.00    -0.022 C 
ENDBRANCH  15  17
ENDBRANCH  13  15
BRANCH  13  18
ATOM     18  C   UNL     1      -0.769  -2.375  -1.385  0.00  0.00    -0.043 C 
BRANCH  18  19
ATOM     19  C   UNL     1      -1.620  -1.778  -0.262  0.00  0.00    +0.135 C 
BRANCH  19  20
ATOM     20  O   UNL     1      -1.215  -2.334   0.990  0.00  0.00    -0.390 OA
ATOM     21  H   UNL     1      -1.308  -3.295   1.042  0.00  0.00    +0.210 HD
ENDBRANCH  19  20
BRANCH  19  22
ATOM     22  C   UNL     1      -3.094  -2.102  -0.511  0.00  0.00    +0.258 C 
BRANCH  22  23
ATOM     23  O   UNL     1      -3.899  -1.448   0.471  0.00  0.00    -0.489 OA
BRANCH  23  24
ATOM     24  C   UNL     1      -5.243  -1.634   0.392  0.00  0.00    +0.124 A 
ATOM     25  C   UNL     1      -5.776  -2.435  -0.608  0.00  0.00    +0.046 A 
ATOM     26  C   UNL     1      -7.142  -2.622  -0.686  0.00  0.00    +0.004 A 
ATOM     27  C   UNL     1      -7.978  -2.013   0.231  0.00  0.00    +0.000 A 
ATOM     28  C   UNL     1      -7.450  -1.214   1.228  0.00  0.00    +0.007 A 
ATOM     29  C   UNL     1      -6.084  -1.028   1.314  0.00  0.00    -0.009 A 
ATOM     30  C   UNL     1      -5.508  -0.162   2.405  0.00  0.00    +0.047 C 
ENDBRANCH  23  24
ENDBRANCH  22  23
ENDBRANCH  19  22
ENDBRANCH  18  19
ENDBRANCH  13  18
ENDBRANCH  12  13
ENDBRANCH   1  12
BRANCH  11  31
ATOM     31  C   UNL     1       5.920  -4.125  -1.817  0.00  0.00    +0.256 C 
BRANCH  31  32
ATOM     32  O   UNL     1       5.896  -5.116  -2.847  0.00  0.00    -0.490 OA
BRANCH  32  33
ATOM     33  C   UNL     1       6.410  -6.336  -2.541  0.00  0.00    +0.121 A 
ATOM     34  C   UNL     1       6.924  -6.576  -1.275  0.00  0.00    +0.045 A 
ATOM     35  C   UNL     1       7.446  -7.817  -0.967  0.00  0.00    +0.004 A 
ATOM     36  C   UNL     1       7.457  -8.820  -1.919  0.00  0.00    +0.003 A 
ATOM     37  C   UNL     1       6.947  -8.582  -3.182  0.00  0.00    -0.047 A 
ATOM     38  C   UNL     1       6.418  -7.345  -3.493  0.00  0.00    +0.049 A 
ATOM     39  C   UNL     1       6.962  -9.677  -4.218  0.00  0.00    +0.044 C 
ENDBRANCH  32  33
ENDBRANCH  31  32
ENDBRANCH  11  31
TORSDOF 13
