REMARK  Name = ZINC14547766
REMARK  2 active torsions:
REMARK  status: ('A' for Active; 'I' for Inactive)
REMARK    1  A    between atoms: C_9  and  O_28
REMARK    2  A    between atoms: C_10  and  C_11
REMARK                            x       y       z     vdW  Elec       q    Type
REMARK                         _______ _______ _______ _____ _____    ______ ____
ROOT
ATOM      1  C   UNL     1       1.311   4.569  -0.266  0.00  0.00    +0.109 C 
ATOM      2  C   UNL     1       0.681   3.247  -0.650  0.00  0.00    +0.029 C 
ATOM      3  C   UNL     1       1.229   1.972   0.001  0.00  0.00    +0.033 C 
ATOM      4  C   UNL     1      -0.013   1.076   0.008  0.00  0.00    -0.030 C 
ATOM      5  C   UNL     1      -1.111   1.824   0.017  0.00  0.00    -0.023 C 
ATOM      6  C   UNL     1      -0.708   3.251   0.062  0.00  0.00    +0.049 C 
ATOM      7  C   UNL     1      -1.513   4.310  -0.586  0.00  0.00    -0.018 A 
ATOM      8  C   UNL     1      -2.881   4.200  -0.724  0.00  0.00    +0.006 A 
ATOM      9  C   UNL     1      -3.610   5.209  -1.323  0.00  0.00    +0.002 A 
ATOM     10  C   UNL     1      -2.960   6.340  -1.785  0.00  0.00    +0.022 A 
ATOM     11  C   UNL     1      -1.594   6.457  -1.655  0.00  0.00    +0.062 A 
ATOM     12  C   UNL     1      -0.842   5.441  -1.058  0.00  0.00    +0.050 A 
ATOM     13  N   UNL     1       0.538   5.621  -0.980  0.00  0.00    -0.335 N 
ATOM     14 CL   UNL     1      -0.796   7.884  -2.239  0.00  0.00    -0.082 Cl
ATOM     15  H   UNL     1       0.764   6.537  -0.622  0.00  0.00    +0.147 HD
ENDROOT
BRANCH   1  25
ATOM     16  C   UNL     1       5.853   4.157   2.055  0.00  0.00    +0.001 A 
ATOM     17  C   UNL     1       4.527   4.127   2.482  0.00  0.00    +0.001 A 
ATOM     18  C   UNL     1       3.502   4.269   1.598  0.00  0.00    +0.009 A 
ATOM     19  C   UNL     1       3.782   4.455   0.233  0.00  0.00    -0.009 A 
ATOM     20  C   UNL     1       5.131   4.482  -0.203  0.00  0.00    -0.017 A 
ATOM     21  C   UNL     1       6.162   4.331   0.741  0.00  0.00    +0.008 A 
ATOM     22  C   UNL     1       5.413   4.663  -1.567  0.00  0.00    +0.012 A 
ATOM     23  C   UNL     1       4.391   4.805  -2.454  0.00  0.00    +0.046 A 
ATOM     24  C   UNL     1       3.060   4.775  -2.028  0.00  0.00    +0.122 A 
ATOM     25  C   UNL     1       2.751   4.600  -0.709  0.00  0.00    +0.022 A 
BRANCH  24  26
ATOM     26  O   UNL     1       2.061   4.920  -2.937  0.00  0.00    -0.506 OA
ATOM     27  H   UNL     1       1.790   5.838  -3.080  0.00  0.00    +0.292 HD
ENDBRANCH  24  26
ENDBRANCH   1  25
TORSDOF 2
