REMARK  Name = ZINC38659635
REMARK  14 active torsions:
REMARK  status: ('A' for Active; 'I' for Inactive)
REMARK    1  A    between atoms: C_1  and  C_2
REMARK    2  A    between atoms: C_2  and  O_3
REMARK    3  A    between atoms: O_3  and  C_4
REMARK    4  A    between atoms: C_7  and  C_12
REMARK    5  A    between atoms: C_9  and  O_10
REMARK    6  A    between atoms: O_10  and  C_11
REMARK    7  A    between atoms: C_17  and  O_26
REMARK    8  A    between atoms: C_21  and  N_25
REMARK    9  A    between atoms: C_22  and  C_23
REMARK   10  A    between atoms: O_26  and  C_27
REMARK   11  A    between atoms: C_27  and  C_29
REMARK   12  A    between atoms: C_29  and  O_30
REMARK   13  A    between atoms: O_30  and  C_31
REMARK   14  A    between atoms: C_36  and  C_37
REMARK                            x       y       z     vdW  Elec       q    Type
REMARK                         _______ _______ _______ _____ _____    ______ ____
ROOT
ATOM      1  C   UNL     1      -1.938  -6.093   0.016  0.00  0.00    +0.098 C 
ATOM      2  C   UNL     1      -1.317  -6.664  -1.231  0.00  0.00    +0.008 A 
ATOM      3  C   UNL     1      -2.022  -6.623  -2.422  0.00  0.00    +0.012 A 
ATOM      4  C   UNL     1      -1.468  -7.142  -3.576  0.00  0.00    +0.047 A 
ATOM      5  C   UNL     1      -0.201  -7.706  -3.544  0.00  0.00    +0.135 A 
ATOM      6  C   UNL     1       0.507  -7.748  -2.354  0.00  0.00    +0.093 A 
ATOM      7  C   UNL     1      -0.051  -7.226  -1.194  0.00  0.00    +0.138 A 
ATOM      8  O   UNL     1       0.655  -7.275  -0.038  0.00  0.00    -0.441 OA
ATOM      9  C   UNL     1       0.021  -7.145   1.140  0.00  0.00    +0.199 C 
ATOM     10  C   UNL     1      -1.208  -6.593   1.231  0.00  0.00    +0.098 C 
ENDROOT
BRANCH   1  14
ATOM     11  C   UNL     1      -1.708  -1.825  -0.116  0.00  0.00    +0.162 A 
ATOM     12  C   UNL     1      -0.550  -2.585  -0.146  0.00  0.00    +0.050 A 
ATOM     13  C   UNL     1      -0.627  -3.965  -0.103  0.00  0.00    +0.008 A 
ATOM     14  C   UNL     1      -1.859  -4.589  -0.030  0.00  0.00    -0.031 A 
ATOM     15  C   UNL     1      -3.018  -3.836   0.000  0.00  0.00    +0.054 A 
ATOM     16  C   UNL     1      -2.947  -2.453  -0.036  0.00  0.00    +0.162 A 
BRANCH  16  17
ATOM     17  O   UNL     1      -4.086  -1.711  -0.001  0.00  0.00    -0.491 OA
ATOM     18  C   UNL     1      -5.322  -2.423   0.081  0.00  0.00    +0.277 C 
ENDBRANCH  16  17
BRANCH  11  19
ATOM     19  O   UNL     1      -1.633  -0.467  -0.157  0.00  0.00    -0.489 OA
BRANCH  19  21
ATOM     20  C   UNL     1      -0.444   1.633  -0.276  0.00  0.00    +0.048 C 
ATOM     21  C   UNL     1      -0.328   0.108  -0.238  0.00  0.00    +0.226 C 
ENDBRANCH  19  21
ENDBRANCH  11  19
ENDBRANCH   1  14
BRANCH   9  22
ATOM     22  N   UNL     1       0.642  -7.587   2.282  0.00  0.00    -0.328 N 
ATOM     23  H   UNL     1       1.525  -7.985   2.231  0.00  0.00    +0.145 HD
ATOM     24  H   UNL     1       0.197  -7.500   3.140  0.00  0.00    +0.145 HD
ENDBRANCH   9  22
BRANCH  10  25
ATOM     25  C   UNL     1      -1.828  -6.482   2.517  0.00  0.00    +0.101 C 
ATOM     26  N   UNL     1      -2.321  -6.395   3.537  0.00  0.00    -0.191 NA
ENDBRANCH  10  25
BRANCH   5  27
ATOM     27  O   UNL     1       0.345  -8.217  -4.679  0.00  0.00    -0.423 OA
BRANCH  27  28
ATOM     28  C   UNL     1       0.498  -9.549  -4.761  0.00  0.00    +0.350 C 
ATOM     29  O   UNL     1       0.061 -10.261  -3.889  0.00  0.00    -0.247 OA
BRANCH  28  30
ATOM     30  C   UNL     1       1.215 -10.154  -5.940  0.00  0.00    +0.349 C 
BRANCH  30  31
ATOM     31  O   UNL     1       1.250 -11.575  -5.799  0.00  0.00    -0.481 OA
BRANCH  31  32
ATOM     32  C   UNL     1       1.865 -12.279  -6.785  0.00  0.00    +0.124 A 
ATOM     33  C   UNL     1       2.430 -11.614  -7.864  0.00  0.00    +0.047 A 
ATOM     34  C   UNL     1       3.055 -12.331  -8.866  0.00  0.00    +0.023 A 
ATOM     35  C   UNL     1       3.118 -13.711  -8.794  0.00  0.00    +0.041 A 
ATOM     36  C   UNL     1       2.555 -14.376  -7.719  0.00  0.00    +0.027 A 
ATOM     37  C   UNL     1       1.935 -13.662  -6.712  0.00  0.00    -0.007 A 
ATOM     38  C   UNL     1       1.328 -14.386  -5.538  0.00  0.00    +0.047 C 
ATOM     39 CL   UNL     1       3.904 -14.610 -10.054  0.00  0.00    -0.084 Cl
ENDBRANCH  31  32
ENDBRANCH  30  31
ENDBRANCH  28  30
ENDBRANCH  27  28
ENDBRANCH   5  27
TORSDOF 11
