REMARK  Name = ZINC31159791
REMARK  5 active torsions:
REMARK  status: ('A' for Active; 'I' for Inactive)
REMARK    1  A    between atoms: C_1  and  C_2
REMARK    2  A    between atoms: C_3  and  C_4
REMARK    3  A    between atoms: C_11  and  C_13
REMARK    4  A    between atoms: C_16  and  O_20
REMARK    5  A    between atoms: C_18  and  O_19
REMARK                            x       y       z     vdW  Elec       q    Type
REMARK                         _______ _______ _______ _____ _____    ______ ____
ROOT
ATOM      1  C   UNL     1      -0.941   1.728   3.662  0.00  0.00    -0.025 A 
ATOM      2  C   UNL     1      -2.088   2.523   3.549  0.00  0.00    +0.011 A 
ATOM      3  C   UNL     1      -2.744   2.968   4.673  0.00  0.00    +0.047 A 
ATOM      4  C   UNL     1      -2.267   2.641   5.937  0.00  0.00    +0.136 A 
ATOM      5  C   UNL     1      -1.111   1.848   6.058  0.00  0.00    +0.021 A 
ATOM      6  C   UNL     1      -0.450   1.392   4.919  0.00  0.00    +0.019 A 
ATOM      7  C   UNL     1      -0.885   1.693   7.497  0.00  0.00    +0.058 A 
ATOM      8  C   UNL     1      -1.882   2.378   8.109  0.00  0.00    +0.140 A 
ATOM      9  O   UNL     1      -2.690   2.933   7.185  0.00  0.00    -0.455 OA
ENDROOT
BRANCH   8  10
ATOM     10  C   UNL     1      -2.056   2.498   9.571  0.00  0.00    +0.059 A 
ATOM     11  C   UNL     1      -2.035   1.357  10.375  0.00  0.00    +0.019 A 
ATOM     12  C   UNL     1      -2.192   1.474  11.739  0.00  0.00    +0.046 A 
ATOM     13  C   UNL     1      -2.383   2.723  12.317  0.00  0.00    +0.120 A 
ATOM     14  C   UNL     1      -2.411   3.862  11.525  0.00  0.00    +0.091 A 
ATOM     15  C   UNL     1      -2.248   3.757  10.155  0.00  0.00    +0.131 A 
BRANCH  15  16
ATOM     16  O   UNL     1      -2.276   4.871   9.378  0.00  0.00    -0.506 OA
ATOM     17  H   UNL     1      -2.427   5.859   9.838  0.00  0.00    +0.292 HD
ENDBRANCH  15  16
BRANCH  13  18
ATOM     18  O   UNL     1      -2.544   2.830  13.662  0.00  0.00    -0.507 OA
ATOM     19  H   UNL     1      -2.695   3.818  14.121  0.00  0.00    +0.292 HD
ENDBRANCH  13  18
ENDBRANCH   8  10
BRANCH   1  22
ATOM     20  C   UNL     1      -0.013   1.086   0.008  0.00  0.00    +0.035 C 
ATOM     21  C   UNL     1      -0.718   1.572   1.248  0.00  0.00    -0.030 C 
ATOM     22  C   UNL     1      -0.249   1.251   2.446  0.00  0.00    +0.003 C 
ENDBRANCH   1  22
TORSDOF 4
