REMARK  Name = ZINC12470720
REMARK  13 active torsions:
REMARK  status: ('A' for Active; 'I' for Inactive)
REMARK    1  A    between atoms: C_1  and  C_2
REMARK    2  A    between atoms: C_2  and  C_3
REMARK    3  A    between atoms: C_2  and  C_4
REMARK    4  A    between atoms: C_2  and  N_5
REMARK    5  A    between atoms: C_6  and  C_8
REMARK    6  A    between atoms: C_8  and  C_10
REMARK    7  A    between atoms: C_8  and  N_15
REMARK    8  A    between atoms: N_15  and  C_16
REMARK    9  A    between atoms: C_16  and  C_17
REMARK   10  A    between atoms: C_17  and  C_18
REMARK   11  A    between atoms: C_24  and  C_26
REMARK   12  A    between atoms: C_26  and  N_27
REMARK   13  A    between atoms: C_29  and  C_32
REMARK                            x       y       z     vdW  Elec       q    Type
REMARK                         _______ _______ _______ _____ _____    ______ ____
ROOT
ATOM      1  N   UNL     1      -2.229  -2.485  -1.499  0.00  0.00    -0.284 N 
ATOM      2  C   UNL     1      -0.972  -2.054  -1.272  0.00  0.00    +0.240 C 
ATOM      3  O   UNL     1      -0.130  -2.158  -2.139  0.00  0.00    -0.273 OA
ENDROOT
BRANCH   1   4
ATOM      4  C   UNL     1      -3.246  -2.360  -0.453  0.00  0.00    +0.199 C 
BRANCH   4   5
ATOM      5  C   UNL     1      -4.512  -3.046  -0.898  0.00  0.00    +0.019 A 
ATOM      6  C   UNL     1      -5.121  -4.138  -0.374  0.00  0.00    +0.013 A 
ATOM      7  C   UNL     1      -6.291  -4.594  -0.951  0.00  0.00    +0.008 A 
ATOM      8  C   UNL     1      -6.790  -3.942  -2.030  0.00  0.00    +0.045 A 
ATOM      9  S   UNL     1      -5.595  -2.635  -2.257  0.00  0.00    -0.099 S 
ENDBRANCH   4   5
BRANCH   4  11
ATOM     10  N   UNL     1      -4.103  -0.518   0.959  0.00  0.00    -0.309 N 
ATOM     11  C   UNL     1      -3.528  -0.901  -0.198  0.00  0.00    +0.239 C 
ATOM     12  O   UNL     1      -3.237  -0.073  -1.035  0.00  0.00    -0.273 OA
ATOM     13  H   UNL     1      -4.335  -1.180   1.628  0.00  0.00    +0.149 HD
BRANCH  10  15
ATOM     14  C   UNL     1      -5.324   1.432   0.129  0.00  0.00    +0.031 C 
ATOM     15  C   UNL     1      -4.377   0.900   1.206  0.00  0.00    +0.026 C 
ATOM     16  C   UNL     1      -5.027   1.062   2.582  0.00  0.00    +0.031 C 
ATOM     17  C   UNL     1      -3.065   1.687   1.166  0.00  0.00    +0.031 C 
ENDBRANCH  10  15
ENDBRANCH   4  11
ENDBRANCH   1   4
BRANCH   1  18
ATOM     18  C   UNL     1      -2.577  -3.080  -2.792  0.00  0.00    +0.113 C 
BRANCH  18  19
ATOM     19  C   UNL     1      -2.361  -4.593  -2.732  0.00  0.00    +0.054 C 
BRANCH  19  20
ATOM     20  C   UNL     1      -2.716  -5.204  -4.063  0.00  0.00    -0.046 A 
ATOM     21  C   UNL     1      -4.007  -5.636  -4.304  0.00  0.00    +0.004 A 
ATOM     22  C   UNL     1      -4.333  -6.191  -5.527  0.00  0.00    +0.000 A 
ATOM     23  C   UNL     1      -3.366  -6.325  -6.505  0.00  0.00    +0.000 A 
ATOM     24  C   UNL     1      -2.074  -5.899  -6.263  0.00  0.00    +0.000 A 
ATOM     25  C   UNL     1      -1.749  -5.338  -5.042  0.00  0.00    +0.004 A 
ENDBRANCH  19  20
ENDBRANCH  18  19
ENDBRANCH   1  18
BRANCH   2  26
ATOM     26  C   UNL     1      -0.614  -1.443   0.058  0.00  0.00    +0.264 C 
BRANCH  26  27
ATOM     27  N   UNL     1       0.800  -1.058   0.053  0.00  0.00    -0.154 N 
ATOM     28  N   UNL     1       1.779  -1.812   0.418  0.00  0.00    -0.130 NA
ATOM     29  C   UNL     1       2.893  -1.123   0.276  0.00  0.00    +0.207 A 
ATOM     30  N   UNL     1       2.542   0.084  -0.191  0.00  0.00    -0.108 NA
ATOM     31  N   UNL     1       1.258   0.087  -0.315  0.00  0.00    -0.045 NA
BRANCH  29  32
ATOM     32  C   UNL     1       4.270  -1.591   0.575  0.00  0.00    +0.058 A 
ATOM     33  C   UNL     1       4.479  -2.879   1.064  0.00  0.00    +0.014 A 
ATOM     34  C   UNL     1       5.761  -3.312   1.336  0.00  0.00    +0.001 A 
ATOM     35  C   UNL     1       6.838  -2.466   1.135  0.00  0.00    +0.003 A 
ATOM     36  C   UNL     1       6.638  -1.185   0.655  0.00  0.00    +0.039 A 
ATOM     37  C   UNL     1       5.358  -0.742   0.374  0.00  0.00    +0.134 A 
ATOM     38  F   UNL     1       5.162   0.510  -0.095  0.00  0.00    -0.205 F 
ENDBRANCH  29  32
ENDBRANCH  26  27
ENDBRANCH   2  26
TORSDOF 10
