REMARK  Name = ZINC36514129
REMARK  20 active torsions:
REMARK  status: ('A' for Active; 'I' for Inactive)
REMARK    1  A    between atoms: C_1  and  C_2
REMARK    2  A    between atoms: C_2  and  C_3
REMARK    3  A    between atoms: C_3  and  C_4
REMARK    4  A    between atoms: C_4  and  C_5
REMARK    5  A    between atoms: C_5  and  C_6
REMARK    6  A    between atoms: C_6  and  N_7
REMARK    7  A    between atoms: N_7  and  C_8
REMARK    8  A    between atoms: C_8  and  C_10
REMARK    9  A    between atoms: C_8  and  C_19
REMARK   10  A    between atoms: C_13  and  N_16
REMARK   11  A    between atoms: N_21  and  C_22
REMARK   12  A    between atoms: C_22  and  C_23
REMARK   13  A    between atoms: C_22  and  C_24
REMARK   14  A    between atoms: C_22  and  C_25
REMARK   15  A    between atoms: C_25  and  C_26
REMARK   16  A    between atoms: C_26  and  C_27
REMARK   17  A    between atoms: C_26  and  C_28
REMARK   18  A    between atoms: C_26  and  C_29
REMARK   19  A    between atoms: C_30  and  C_32
REMARK   20  A    between atoms: C_33  and  C_34
REMARK                            x       y       z     vdW  Elec       q    Type
REMARK                         _______ _______ _______ _____ _____    ______ ____
ROOT
ATOM      1  C   UNL     1      -4.841  -3.444  -1.716  0.00  0.00    +0.193 C 
ENDROOT
BRANCH   1   2
ATOM      2  C   UNL     1      -3.711  -4.244  -2.311  0.00  0.00    -0.018 A 
ATOM      3  C   UNL     1      -2.510  -3.628  -2.609  0.00  0.00    +0.008 A 
ATOM      4  C   UNL     1      -1.473  -4.362  -3.154  0.00  0.00    +0.033 A 
ATOM      5  C   UNL     1      -1.637  -5.712  -3.401  0.00  0.00    +0.126 A 
ATOM      6  C   UNL     1      -2.837  -6.329  -3.101  0.00  0.00    +0.033 A 
ATOM      7  C   UNL     1      -3.873  -5.595  -2.552  0.00  0.00    +0.008 A 
BRANCH   5   8
ATOM      8  N   UNL     1      -0.527  -6.498  -3.985  0.00  0.00    +0.056 N 
ATOM      9  O   UNL     1       0.523  -5.959  -4.248  0.00  0.00    -0.126 OA
ATOM     10  O   UNL     1      -0.671  -7.679  -4.201  0.00  0.00    -0.126 OA
ENDBRANCH   5   8
ENDBRANCH   1   2
BRANCH   1  11
ATOM     11  C   UNL     1      -5.469  -2.589  -2.787  0.00  0.00    +0.239 C 
ATOM     12  O   UNL     1      -5.428  -1.380  -2.700  0.00  0.00    -0.273 OA
ATOM     13  N   UNL     1      -6.076  -3.168  -3.842  0.00  0.00    -0.308 N 
ATOM     14  H   UNL     1      -6.109  -4.135  -3.912  0.00  0.00    +0.149 HD
BRANCH  13  15
ATOM     15  C   UNL     1      -6.686  -2.337  -4.883  0.00  0.00    +0.030 C 
ATOM     16  C   UNL     1      -7.878  -1.579  -4.296  0.00  0.00    +0.031 C 
ATOM     17  C   UNL     1      -5.654  -1.338  -5.408  0.00  0.00    +0.031 C 
BRANCH  15  18
ATOM     18  C   UNL     1      -7.164  -3.228  -6.031  0.00  0.00    +0.031 C 
BRANCH  18  19
ATOM     19  C   UNL     1      -6.162  -4.365  -6.246  0.00  0.00    -0.036 C 
ATOM     20  C   UNL     1      -6.492  -5.521  -5.299  0.00  0.00    +0.010 C 
ATOM     21  C   UNL     1      -6.246  -4.852  -7.694  0.00  0.00    +0.010 C 
ATOM     22  C   UNL     1      -4.747  -3.858  -5.959  0.00  0.00    +0.010 C 
ENDBRANCH  18  19
ENDBRANCH  15  18
ENDBRANCH  13  15
ENDBRANCH   1  11
BRANCH   1  23
ATOM     23  N   UNL     1      -4.323  -2.586  -0.648  0.00  0.00    -0.275 N 
ATOM     24  C   UNL     1      -3.919  -3.130   0.517  0.00  0.00    +0.292 C 
ATOM     25  O   UNL     1      -3.985  -4.334   0.682  0.00  0.00    -0.260 OA
BRANCH  24  26
ATOM     26  C   UNL     1      -3.412  -2.291   1.562  0.00  0.00    -0.003 C 
ATOM     27  C   UNL     1      -2.997  -1.603   2.418  0.00  0.00    -0.057 C 
BRANCH  27  28
ATOM     28  C   UNL     1      -2.490  -0.765   3.462  0.00  0.00    +0.025 A 
ATOM     29  C   UNL     1      -2.419   0.620   3.279  0.00  0.00    +0.017 A 
ATOM     30  C   UNL     1      -1.930   1.421   4.289  0.00  0.00    +0.001 A 
ATOM     31  C   UNL     1      -1.511   0.858   5.482  0.00  0.00    +0.000 A 
ATOM     32  C   UNL     1      -1.579  -0.512   5.671  0.00  0.00    +0.001 A 
ATOM     33  C   UNL     1      -2.071  -1.325   4.672  0.00  0.00    +0.017 A 
ENDBRANCH  27  28
ENDBRANCH  24  26
BRANCH  23  34
ATOM     34  C   UNL     1      -4.244  -1.136  -0.846  0.00  0.00    +0.110 C 
BRANCH  34  35
ATOM     35  C   UNL     1      -5.574  -0.494  -0.449  0.00  0.00    +0.019 C 
BRANCH  35  36
ATOM     36  C   UNL     1      -5.464   1.027  -0.576  0.00  0.00    +0.002 C 
BRANCH  36  37
ATOM     37  C   UNL     1      -6.795   1.669  -0.180  0.00  0.00    -0.000 C 
BRANCH  37  39
ATOM     38  C   UNL     1      -8.016   3.832   0.090  0.00  0.00    +0.004 C 
ATOM     39  C   UNL     1      -6.685   3.190  -0.307  0.00  0.00    -0.003 C 
ENDBRANCH  37  39
ENDBRANCH  36  37
ENDBRANCH  35  36
ENDBRANCH  34  35
ENDBRANCH  23  34
ENDBRANCH   1  23
TORSDOF 14
