REMARK  Name = ZINC07279019
REMARK  10 active torsions:
REMARK  status: ('A' for Active; 'I' for Inactive)
REMARK    1  A    between atoms: C_1  and  C_2
REMARK    2  A    between atoms: C_2  and  C_4
REMARK    3  A    between atoms: C_2  and  N_20
REMARK    4  A    between atoms: N_6  and  C_7
REMARK    5  A    between atoms: C_10  and  S_13
REMARK    6  A    between atoms: S_13  and  N_16
REMARK    7  A    between atoms: N_16  and  C_17
REMARK    8  A    between atoms: C_17  and  C_18
REMARK    9  A    between atoms: C_17  and  C_19
REMARK   10  A    between atoms: N_20  and  C_21
REMARK                            x       y       z     vdW  Elec       q    Type
REMARK                         _______ _______ _______ _____ _____    ______ ____
ROOT
ATOM      1  C   UNL     1      -1.411  -0.527   0.012  0.00  0.00    +0.237 C 
ATOM      2  O   UNL     1      -1.787  -1.242   0.917  0.00  0.00    -0.273 OA
ATOM      3  N   UNL     1      -2.256  -0.206  -0.988  0.00  0.00    -0.284 N 
ATOM      4  H   UNL     1      -1.977   0.418  -1.677  0.00  0.00    +0.155 HD
ENDROOT
BRANCH   3   5
ATOM      5  C   UNL     1      -3.534  -0.773  -1.034  0.00  0.00    +0.034 A 
ATOM      6  C   UNL     1      -4.114  -1.085  -2.257  0.00  0.00    +0.025 A 
ATOM      7  C   UNL     1      -5.376  -1.644  -2.299  0.00  0.00    +0.030 A 
ATOM      8  C   UNL     1      -6.061  -1.895  -1.124  0.00  0.00    +0.105 A 
ATOM      9  C   UNL     1      -5.487  -1.586   0.095  0.00  0.00    +0.030 A 
ATOM     10  C   UNL     1      -4.223  -1.032   0.144  0.00  0.00    +0.025 A 
BRANCH   8  11
ATOM     11  S   UNL     1      -7.671  -2.610  -1.182  0.00  0.00    +0.059 S 
ATOM     12  O   UNL     1      -8.322  -2.241   0.026  0.00  0.00    -0.153 OA
ATOM     13  O   UNL     1      -8.207  -2.301  -2.461  0.00  0.00    -0.153 OA
BRANCH  11  14
ATOM     14  N   UNL     1      -7.479  -4.254  -1.133  0.00  0.00    -0.187 NA
ATOM     15  H   UNL     1      -7.740  -4.795  -1.895  0.00  0.00    +0.148 HD
BRANCH  14  16
ATOM     16  C   UNL     1      -6.915  -4.890   0.060  0.00  0.00    +0.070 C 
ATOM     17  C   UNL     1      -8.051  -5.363   0.970  0.00  0.00    +0.025 C 
ATOM     18  C   UNL     1      -6.063  -6.091  -0.357  0.00  0.00    +0.025 C 
ENDBRANCH  14  16
ENDBRANCH  11  14
ENDBRANCH   8  11
ENDBRANCH   3   5
BRANCH   1  20
ATOM     19  C   UNL     1      -0.028   1.531   0.022  0.00  0.00    +0.038 C 
ATOM     20  C   UNL     1       0.000   0.002   0.005  0.00  0.00    +0.154 C 
BRANCH  20  21
ATOM     21  N   UNL     1       0.710  -0.487   1.190  0.00  0.00    -0.333 N 
ATOM     22  H   UNL     1       0.213  -0.735   1.985  0.00  0.00    +0.147 HD
BRANCH  21  23
ATOM     23  C   UNL     1       2.105  -0.594   1.175  0.00  0.00    +0.031 A 
ATOM     24  C   UNL     1       2.817  -0.233   0.039  0.00  0.00    +0.027 A 
ATOM     25  C   UNL     1       4.195  -0.338   0.023  0.00  0.00    +0.051 A 
ATOM     26  C   UNL     1       4.870  -0.804   1.140  0.00  0.00    +0.166 A 
ATOM     27  C   UNL     1       4.158  -1.167   2.281  0.00  0.00    +0.168 A 
ATOM     28  C   UNL     1       2.778  -1.057   2.298  0.00  0.00    +0.072 A 
ATOM     29  O   UNL     1       5.043  -1.590   3.231  0.00  0.00    -0.453 OA
ATOM     30  C   UNL     1       6.265  -1.869   2.522  0.00  0.00    +0.466 C 
ATOM     31  O   UNL     1       6.201  -1.000   1.375  0.00  0.00    -0.453 OA
ENDBRANCH  21  23
ENDBRANCH  20  21
ENDBRANCH   1  20
TORSDOF 7
