REMARK  Name = ZINC45764804
REMARK  10 active torsions:
REMARK  status: ('A' for Active; 'I' for Inactive)
REMARK    1  A    between atoms: C_1  and  C_2
REMARK    2  A    between atoms: C_2  and  C_3
REMARK    3  A    between atoms: C_3  and  C_4
REMARK    4  A    between atoms: C_3  and  C_6
REMARK    5  A    between atoms: C_4  and  C_5
REMARK    6  A    between atoms: C_6  and  C_8
REMARK    7  A    between atoms: C_6  and  N_14
REMARK    8  A    between atoms: N_17  and  C_18
REMARK    9  A    between atoms: C_23  and  C_24
REMARK   10  A    between atoms: C_24  and  C_25
REMARK                            x       y       z     vdW  Elec       q    Type
REMARK                         _______ _______ _______ _____ _____    ______ ____
ROOT
ATOM      1  N   UNL     1       0.917  -0.494  -3.792  0.00  0.00    -0.292 N 
ATOM      2  C   UNL     1       0.889  -1.718  -4.355  0.00  0.00    +0.304 C 
ATOM      3  O   UNL     1       0.038  -2.521  -4.022  0.00  0.00    -0.252 OA
ATOM      4  N   UNL     1       1.804  -2.053  -5.285  0.00  0.00    -0.269 N 
ATOM      5  H   UNL     1       1.548   0.171  -4.109  0.00  0.00    +0.151 HD
ATOM      6  H   UNL     1       2.517  -1.434  -5.510  0.00  0.00    +0.156 HD
ENDROOT
BRANCH   4   7
ATOM      7  C   UNL     1       1.728  -3.295  -5.927  0.00  0.00    +0.038 A 
ATOM      8  C   UNL     1       1.159  -4.381  -5.276  0.00  0.00    +0.023 A 
ATOM      9  C   UNL     1       1.084  -5.604  -5.912  0.00  0.00    +0.002 A 
ATOM     10  C   UNL     1       1.576  -5.748  -7.197  0.00  0.00    +0.000 A 
ATOM     11  C   UNL     1       2.143  -4.669  -7.848  0.00  0.00    +0.006 A 
ATOM     12  C   UNL     1       2.215  -3.441  -7.219  0.00  0.00    -0.017 A 
BRANCH  12  13
ATOM     13  C   UNL     1       2.828  -2.263  -7.932  0.00  0.00    +0.132 C 
BRANCH  13  14
ATOM     14  C   UNL     1       4.282  -2.147  -7.552  0.00  0.00    +0.215 C 
ATOM     15  O   UNL     1       4.772  -2.942  -6.778  0.00  0.00    -0.276 OA
ATOM     16  N   UNL     1       5.037  -1.159  -8.072  0.00  0.00    -0.329 N 
ATOM     17  H   UNL     1       4.646  -0.523  -8.690  0.00  0.00    +0.145 HD
ATOM     18  H   UNL     1       5.973  -1.084  -7.827  0.00  0.00    +0.145 HD
ENDBRANCH  13  14
ENDBRANCH  12  13
ENDBRANCH   4   7
BRANCH   1  19
ATOM     19  C   UNL     1      -0.007  -0.167  -2.703  0.00  0.00    +0.108 C 
BRANCH  19  20
ATOM     20  C   UNL     1      -0.065   1.329  -2.526  0.00  0.00    -0.027 A 
ATOM     21  C   UNL     1       1.062   2.096  -2.757  0.00  0.00    +0.005 A 
ATOM     22  C   UNL     1       1.008   3.468  -2.594  0.00  0.00    +0.000 A 
ATOM     23  C   UNL     1      -0.171   4.072  -2.200  0.00  0.00    +0.000 A 
ATOM     24  C   UNL     1      -1.297   3.304  -1.969  0.00  0.00    +0.000 A 
ATOM     25  C   UNL     1      -1.245   1.933  -2.137  0.00  0.00    +0.005 A 
ENDBRANCH  19  20
BRANCH  19  26
ATOM     26  C   UNL     1       0.483  -0.816  -1.407  0.00  0.00    +0.013 C 
BRANCH  26  28
ATOM     27  C   UNL     1       2.885  -0.498  -2.016  0.00  0.00    +0.004 C 
ATOM     28  C   UNL     1       1.805  -0.173  -0.983  0.00  0.00    +0.002 C 
ENDBRANCH  26  28
BRANCH  26  29
ATOM     29  C   UNL     1      -0.561  -0.610  -0.307  0.00  0.00    +0.002 C 
ATOM     30  C   UNL     1      -1.857  -1.324  -0.694  0.00  0.00    +0.004 C 
ENDBRANCH  26  29
ENDBRANCH  19  26
ENDBRANCH   1  19
TORSDOF 8
