REMARK  Name = ZINC08798948
REMARK  14 active torsions:
REMARK  status: ('A' for Active; 'I' for Inactive)
REMARK    1  A    between atoms: C_1  and  C_2
REMARK    2  A    between atoms: C_2  and  C_3
REMARK    3  A    between atoms: C_3  and  O_4
REMARK    4  A    between atoms: O_4  and  C_5
REMARK    5  A    between atoms: C_8  and  S_12
REMARK    6  A    between atoms: C_10  and  C_11
REMARK    7  A    between atoms: S_12  and  N_15
REMARK    8  A    between atoms: N_15  and  C_16
REMARK    9  A    between atoms: C_16  and  C_17
REMARK   10  A    between atoms: C_17  and  C_19
REMARK   11  A    between atoms: C_17  and  N_66
REMARK   12  A    between atoms: N_28  and  C_29
REMARK   13  A    between atoms: C_30  and  N_66
REMARK   14  A    between atoms: C_31  and  N_66
REMARK                            x       y       z     vdW  Elec       q    Type
REMARK                         _______ _______ _______ _____ _____    ______ ____
ROOT
ATOM      1  C   UNL     1       3.114  -2.023   6.261  0.00  0.00    +0.095 C 
ENDROOT
BRANCH   1   2
ATOM      2  N   UNL     1       4.398  -2.018   6.966  0.00  0.00    -0.191 NA
ATOM      3  H   UNL     1       5.203  -2.307   6.508  0.00  0.00    +0.148 HD
BRANCH   2   4
ATOM      4  S   UNL     1       4.476  -1.519   8.543  0.00  0.00    +0.058 S 
ATOM      5  O   UNL     1       5.832  -1.653   8.945  0.00  0.00    -0.153 OA
ATOM      6  O   UNL     1       3.780  -0.282   8.612  0.00  0.00    -0.153 OA
BRANCH   4  10
ATOM      7  C   UNL     1       2.096  -4.483  11.004  0.00  0.00    +0.123 A 
ATOM      8  C   UNL     1       1.472  -3.367  10.466  0.00  0.00    +0.048 A 
ATOM      9  C   UNL     1       2.201  -2.461   9.720  0.00  0.00    +0.032 A 
ATOM     10  C   UNL     1       3.550  -2.672   9.500  0.00  0.00    +0.106 A 
ATOM     11  C   UNL     1       4.174  -3.783  10.036  0.00  0.00    +0.035 A 
ATOM     12  C   UNL     1       3.451  -4.689  10.787  0.00  0.00    -0.007 A 
ATOM     13  C   UNL     1       4.132  -5.900  11.370  0.00  0.00    +0.047 C 
BRANCH   7  14
ATOM     14  O   UNL     1       1.382  -5.372  11.744  0.00  0.00    -0.492 OA
BRANCH  14  15
ATOM     15  C   UNL     1      -0.008  -5.095  11.926  0.00  0.00    +0.229 C 
BRANCH  15  17
ATOM     16  C   UNL     1      -2.128  -5.902  12.973  0.00  0.00    +0.007 C 
ATOM     17  C   UNL     1      -0.640  -6.198  12.778  0.00  0.00    +0.038 C 
ENDBRANCH  15  17
ENDBRANCH  14  15
ENDBRANCH   7  14
ENDBRANCH   4  10
ENDBRANCH   2   4
ENDBRANCH   1   2
BRANCH   1  18
ATOM     18  C   UNL     1       3.359  -2.098   4.753  0.00  0.00    -0.023 C 
BRANCH  18  19
ATOM     19  C   UNL     1       2.039  -2.199   4.034  0.00  0.00    -0.059 A 
ATOM     20  C   UNL     1       1.088  -3.110   4.456  0.00  0.00    +0.004 A 
ATOM     21  C   UNL     1      -0.117  -3.203   3.794  0.00  0.00    +0.023 A 
ATOM     22  C   UNL     1      -0.387  -2.382   2.697  0.00  0.00    +0.033 A 
ATOM     23  C   UNL     1       0.566  -1.468   2.283  0.00  0.00    -0.026 A 
ATOM     24  C   UNL     1       1.777  -1.382   2.952  0.00  0.00    +0.007 A 
ATOM     25  C   UNL     1       0.330  -0.541   1.117  0.00  0.00    +0.038 C 
ATOM     26  C   UNL     1      -0.861  -1.039   0.296  0.00  0.00    +0.024 C 
ATOM     27  C   UNL     1      -2.002  -1.363   1.268  0.00  0.00    +0.105 C 
ATOM     28  N   UNL     1      -1.621  -2.530   2.066  0.00  0.00    -0.333 N 
ATOM     29  C   UNL     1      -2.671  -2.869   3.036  0.00  0.00    +0.129 C 
ENDBRANCH  18  19
BRANCH  18  32
ATOM     30  C   UNL     1       3.422  -4.518   4.697  0.00  0.00    -0.096 C 
ATOM     31  C   UNL     1       4.671  -3.236   3.066  0.00  0.00    -0.096 C 
ATOM     32  N   UNL     1       4.197  -3.281   4.465  0.00  0.00    +0.381 N 
ATOM     33  H   UNL     1       5.010  -3.274   5.093  0.00  0.00    -0.082 HD
ENDBRANCH  18  32
ENDBRANCH   1  18
TORSDOF 9
