REMARK  Name = ZINC02691293
REMARK  17 active torsions:
REMARK  status: ('A' for Active; 'I' for Inactive)
REMARK    1  A    between atoms: C_1  and  C_2
REMARK    2  A    between atoms: C_2  and  O_3
REMARK    3  A    between atoms: O_3  and  C_4
REMARK    4  A    between atoms: C_7  and  C_13
REMARK    5  A    between atoms: C_9  and  O_10
REMARK    6  A    between atoms: O_10  and  C_11
REMARK    7  A    between atoms: C_11  and  C_12
REMARK    8  A    between atoms: C_18  and  C_34
REMARK    9  A    between atoms: N_19  and  C_22
REMARK   10  A    between atoms: C_22  and  C_23
REMARK   11  A    between atoms: C_23  and  C_24
REMARK   12  A    between atoms: C_27  and  O_32
REMARK   13  A    between atoms: C_28  and  O_30
REMARK   14  A    between atoms: O_30  and  C_31
REMARK   15  A    between atoms: O_32  and  C_33
REMARK   16  A    between atoms: C_36  and  N_40
REMARK   17  A    between atoms: C_37  and  C_38
REMARK                            x       y       z     vdW  Elec       q    Type
REMARK                         _______ _______ _______ _____ _____    ______ ____
ROOT
ATOM      1  C   UNL     1       2.447   4.220   0.001  0.00  0.00    +0.103 C 
ATOM      2  C   UNL     1       2.528   5.073   1.237  0.00  0.00    +0.072 A 
ATOM      3  C   UNL     1       2.302   6.431   1.172  0.00  0.00    +0.141 A 
ATOM      4  C   UNL     1       2.386   7.195   2.354  0.00  0.00    +0.068 A 
ATOM      5  C   UNL     1       2.685   6.590   3.524  0.00  0.00    +0.022 A 
ATOM      6  N   UNL     1       2.906   5.251   3.580  0.00  0.00    -0.312 N 
ATOM      7  C   UNL     1       2.835   4.489   2.473  0.00  0.00    +0.259 A 
ATOM      8  O   UNL     1       3.037   3.287   2.545  0.00  0.00    -0.267 OA
ATOM      9  C   UNL     1       2.774   7.412   4.784  0.00  0.00    +0.064 C 
ATOM     10  O   UNL     1       2.003   7.034   0.001  0.00  0.00    -0.441 OA
ATOM     11  C   UNL     1       2.283   6.417  -1.161  0.00  0.00    +0.199 C 
ATOM     12  C   UNL     1       2.503   5.086  -1.227  0.00  0.00    +0.098 C 
ENDROOT
BRANCH   1  16
ATOM     13  C   UNL     1      -1.230   2.037   0.019  0.00  0.00    +0.162 A 
ATOM     14  C   UNL     1      -1.243   3.422   0.032  0.00  0.00    +0.050 A 
ATOM     15  C   UNL     1      -0.053   4.125   0.025  0.00  0.00    +0.008 A 
ATOM     16  C   UNL     1       1.153   3.449   0.010  0.00  0.00    -0.031 A 
ATOM     17  C   UNL     1       1.173   2.066   0.002  0.00  0.00    +0.054 A 
ATOM     18  C   UNL     1      -0.016   1.356   0.009  0.00  0.00    +0.162 A 
BRANCH  13  19
ATOM     19  O   UNL     1      -2.400   1.344   0.021  0.00  0.00    -0.489 OA
BRANCH  19  21
ATOM     20  C   UNL     1      -4.810   1.163   0.031  0.00  0.00    +0.048 C 
ATOM     21  C   UNL     1      -3.607   2.109   0.031  0.00  0.00    +0.226 C 
ENDBRANCH  19  21
ENDBRANCH  13  19
BRANCH  18  22
ATOM     22  O   UNL     1       0.002  -0.004   0.002  0.00  0.00    -0.489 OA
BRANCH  22  23
ATOM     23  C   UNL     1       1.284  -0.635  -0.014  0.00  0.00    +0.226 C 
ATOM     24  C   UNL     1       1.104  -2.155  -0.020  0.00  0.00    +0.048 C 
ENDBRANCH  22  23
ENDBRANCH  18  22
ENDBRANCH   1  16
BRANCH  11  25
ATOM     25  N   UNL     1       2.346   7.162  -2.312  0.00  0.00    -0.328 N 
ATOM     26  H   UNL     1       2.189   8.119  -2.279  0.00  0.00    +0.145 HD
ATOM     27  H   UNL     1       2.547   6.732  -3.158  0.00  0.00    +0.145 HD
ENDBRANCH  11  25
BRANCH  12  28
ATOM     28  C   UNL     1       2.796   4.489  -2.495  0.00  0.00    +0.101 C 
ATOM     29  N   UNL     1       3.029   4.015  -3.501  0.00  0.00    -0.191 NA
ENDBRANCH  12  28
BRANCH   6  30
ATOM     30  C   UNL     1       3.227   4.626   4.865  0.00  0.00    +0.130 C 
BRANCH  30  31
ATOM     31  C   UNL     1       1.935   4.187   5.556  0.00  0.00    +0.057 C 
BRANCH  31  32
ATOM     32  C   UNL     1       2.265   3.545   6.879  0.00  0.00    -0.042 A 
ATOM     33  C   UNL     1       2.486   2.182   6.947  0.00  0.00    +0.007 A 
ATOM     34  C   UNL     1       2.795   1.588   8.157  0.00  0.00    +0.049 A 
ATOM     35  C   UNL     1       2.873   2.358   9.307  0.00  0.00    +0.161 A 
ATOM     36  C   UNL     1       2.644   3.729   9.239  0.00  0.00    +0.162 A 
ATOM     37  C   UNL     1       2.341   4.319   8.022  0.00  0.00    +0.053 A 
BRANCH  36  38
ATOM     38  O   UNL     1       2.720   4.489  10.364  0.00  0.00    -0.491 OA
ATOM     39  C   UNL     1       2.474   5.890  10.219  0.00  0.00    +0.277 C 
ENDBRANCH  36  38
BRANCH  35  40
ATOM     40  O   UNL     1       3.171   1.776  10.499  0.00  0.00    -0.491 OA
ATOM     41  C   UNL     1       3.393   0.364  10.493  0.00  0.00    +0.277 C 
ENDBRANCH  35  40
ENDBRANCH  31  32
ENDBRANCH  30  31
ENDBRANCH   6  30
TORSDOF 12
