REMARK  Name = ZINC54437864
REMARK  11 active torsions:
REMARK  status: ('A' for Active; 'I' for Inactive)
REMARK    1  A    between atoms: C_1  and  C_2
REMARK    2  A    between atoms: C_2  and  O_3
REMARK    3  A    between atoms: O_3  and  C_4
REMARK    4  A    between atoms: C_6  and  C_28
REMARK    5  A    between atoms: C_9  and  N_10
REMARK    6  A    between atoms: N_13  and  C_14
REMARK    7  A    between atoms: C_14  and  C_16
REMARK    8  A    between atoms: C_14  and  C_17
REMARK    9  A    between atoms: C_20  and  S_23
REMARK   10  A    between atoms: S_23  and  N_26
REMARK   11  A    between atoms: N_26  and  C_27
REMARK                            x       y       z     vdW  Elec       q    Type
REMARK                         _______ _______ _______ _____ _____    ______ ____
ROOT
ATOM      1  N   UNL     1      -3.903  -1.565   0.031  0.00  0.00    -0.266 N 
ATOM      2  C   UNL     1      -5.138  -2.097  -0.062  0.00  0.00    +0.304 C 
ATOM      3  O   UNL     1      -5.281  -3.304  -0.067  0.00  0.00    -0.252 OA
ATOM      4  N   UNL     1      -6.214  -1.290  -0.149  0.00  0.00    -0.293 N 
ATOM      5  H   UNL     1      -3.793  -0.606   0.118  0.00  0.00    +0.156 HD
ATOM      6  H   UNL     1      -6.100  -0.327  -0.144  0.00  0.00    +0.151 HD
ENDROOT
BRANCH   1  12
ATOM      7  C   UNL     1      -1.583  -1.982   0.585  0.00  0.00    +0.142 A 
ATOM      8  C   UNL     1      -0.475  -2.813   0.559  0.00  0.00    +0.051 A 
ATOM      9  C   UNL     1      -0.553  -4.051  -0.050  0.00  0.00    -0.047 A 
ATOM     10  C   UNL     1      -1.737  -4.464  -0.635  0.00  0.00    +0.005 A 
ATOM     11  C   UNL     1      -2.847  -3.641  -0.612  0.00  0.00    +0.027 A 
ATOM     12  C   UNL     1      -2.777  -2.400   0.002  0.00  0.00    +0.077 A 
ATOM     13  C   UNL     1       0.653  -4.953  -0.078  0.00  0.00    +0.044 C 
BRANCH   7  14
ATOM     14  O   UNL     1      -1.507  -0.763   1.184  0.00  0.00    -0.490 OA
BRANCH  14  16
ATOM     15  C   UNL     1      -0.358   0.993   2.382  0.00  0.00    +0.048 C 
ATOM     16  C   UNL     1      -0.251  -0.401   1.761  0.00  0.00    +0.226 C 
ENDBRANCH  14  16
ENDBRANCH   7  14
ENDBRANCH   1  12
BRANCH   4  17
ATOM     17  C   UNL     1      -7.556  -1.868  -0.249  0.00  0.00    +0.102 C 
ATOM     18  C   UNL     1      -8.085  -2.178   1.153  0.00  0.00    +0.033 C 
BRANCH  17  19
ATOM     19  C   UNL     1      -8.476  -0.886  -0.927  0.00  0.00    -0.027 A 
ATOM     20  C   UNL     1      -8.383   0.463  -0.637  0.00  0.00    +0.007 A 
ATOM     21  C   UNL     1      -9.227   1.364  -1.259  0.00  0.00    +0.029 A 
ATOM     22  C   UNL     1     -10.164   0.917  -2.171  0.00  0.00    +0.105 A 
ATOM     23  C   UNL     1     -10.257  -0.432  -2.462  0.00  0.00    +0.029 A 
ATOM     24  C   UNL     1      -9.410  -1.332  -1.843  0.00  0.00    +0.007 A 
BRANCH  22  25
ATOM     25  S   UNL     1     -11.241   2.065  -2.963  0.00  0.00    +0.058 S 
ATOM     26  O   UNL     1     -12.391   1.333  -3.365  0.00  0.00    -0.153 OA
ATOM     27  O   UNL     1     -11.319   3.201  -2.113  0.00  0.00    -0.153 OA
BRANCH  25  28
ATOM     28  N   UNL     1     -10.489   2.564  -4.351  0.00  0.00    -0.193 NA
ATOM     29  C   UNL     1     -10.232   1.607  -5.431  0.00  0.00    +0.127 C 
ATOM     30  H   UNL     1     -10.218   3.490  -4.450  0.00  0.00    +0.148 HD
ENDBRANCH  25  28
ENDBRANCH  22  25
ENDBRANCH  17  19
ENDBRANCH   4  17
TORSDOF 7
