REMARK  Name = ZINC17410431
REMARK  9 active torsions:
REMARK  status: ('A' for Active; 'I' for Inactive)
REMARK    1  A    between atoms: C_1  and  C_2
REMARK    2  A    between atoms: C_5  and  N_9
REMARK    3  A    between atoms: C_6  and  O_8
REMARK    4  A    between atoms: C_10  and  C_12
REMARK    5  A    between atoms: C_16  and  S_18
REMARK    6  A    between atoms: S_18  and  N_21
REMARK    7  A    between atoms: N_21  and  C_22
REMARK    8  A    between atoms: C_25  and  S_28
REMARK    9  A    between atoms: S_28  and  C_29
REMARK                            x       y       z     vdW  Elec       q    Type
REMARK                         _______ _______ _______ _____ _____    ______ ____
ROOT
ATOM      1  C   UNL     1      -0.134  -6.315  -1.202  0.00  0.00    +0.039 A 
ATOM      2  C   UNL     1      -0.125  -7.022   0.002  0.00  0.00    +0.013 A 
ATOM      3  C   UNL     1      -0.212  -8.398  -0.009  0.00  0.00    +0.003 A 
ATOM      4  C   UNL     1      -0.308  -9.079  -1.210  0.00  0.00    +0.029 A 
ATOM      5  C   UNL     1      -0.318  -8.385  -2.407  0.00  0.00    +0.111 A 
ATOM      6  C   UNL     1      -0.237  -7.008  -2.410  0.00  0.00    +0.042 A 
ENDROOT
BRANCH   1   8
ATOM      7  N   UNL     1       0.057  -4.174  -0.031  0.00  0.00    -0.279 N 
ATOM      8  C   UNL     1      -0.042  -4.840  -1.198  0.00  0.00    +0.248 C 
ATOM      9  O   UNL     1      -0.055  -4.227  -2.248  0.00  0.00    -0.270 OA
ATOM     10  H   UNL     1       0.149  -4.665   0.801  0.00  0.00    +0.155 HD
BRANCH   7  15
ATOM     11  C   UNL     1      -0.066   1.502   0.017  0.00  0.00    +0.044 C 
ATOM     12  C   UNL     1      -0.032  -0.005   0.006  0.00  0.00    -0.047 A 
ATOM     13  C   UNL     1      -0.622  -0.701  -1.033  0.00  0.00    +0.005 A 
ATOM     14  C   UNL     1      -0.594  -2.082  -1.048  0.00  0.00    +0.027 A 
ATOM     15  C   UNL     1       0.028  -2.774  -0.018  0.00  0.00    +0.076 A 
ATOM     16  C   UNL     1       0.622  -2.072   1.028  0.00  0.00    +0.138 A 
ATOM     17  C   UNL     1       0.594  -0.687   1.032  0.00  0.00    +0.050 A 
BRANCH  16  18
ATOM     18  O   UNL     1       1.233  -2.745   2.040  0.00  0.00    -0.505 OA
ATOM     19  H   UNL     1       2.171  -2.920   1.886  0.00  0.00    +0.292 HD
ENDBRANCH  16  18
ENDBRANCH   7  15
ENDBRANCH   1   8
BRANCH   5  20
ATOM     20  S   UNL     1      -0.439  -9.262  -3.930  0.00  0.00    +0.092 S 
ATOM     21  O   UNL     1       0.121  -8.421  -4.929  0.00  0.00    -0.148 OA
ATOM     22  O   UNL     1       0.043 -10.576  -3.683  0.00  0.00    -0.148 OA
BRANCH  20  23
ATOM     23  N   UNL     1      -2.051  -9.408  -4.284  0.00  0.00    -0.098 NA
BRANCH  23  24
ATOM     24  C   UNL     1      -2.454 -10.068  -5.451  0.00  0.00    +0.074 A 
ATOM     25  C   UNL     1      -1.504 -10.605  -6.309  0.00  0.00    +0.028 A 
ATOM     26  C   UNL     1      -1.902 -11.257  -7.459  0.00  0.00    +0.017 A 
ATOM     27  C   UNL     1      -3.253 -11.374  -7.758  0.00  0.00    +0.013 A 
ATOM     28  C   UNL     1      -4.204 -10.836  -6.900  0.00  0.00    +0.017 A 
ATOM     29  C   UNL     1      -3.805 -10.190  -5.747  0.00  0.00    +0.028 A 
BRANCH  27  30
ATOM     30  S   UNL     1      -3.761 -12.205  -9.227  0.00  0.00    -0.056 S 
BRANCH  30  31
ATOM     31  C   UNL     1      -5.572 -12.105  -9.184  0.00  0.00    +0.404 C 
ATOM     32  F   UNL     1      -6.046 -12.737  -8.029  0.00  0.00    -0.197 F 
ATOM     33  F   UNL     1      -5.965 -10.762  -9.175  0.00  0.00    -0.197 F 
ENDBRANCH  30  31
ENDBRANCH  27  30
ENDBRANCH  23  24
ENDBRANCH  20  23
ENDBRANCH   5  20
TORSDOF 8
