REMARK  Name = ZINC65279762
REMARK  9 active torsions:
REMARK  status: ('A' for Active; 'I' for Inactive)
REMARK    1  A    between atoms: C_1  and  O_2
REMARK    2  A    between atoms: O_2  and  C_3
REMARK    3  A    between atoms: C_6  and  C_9
REMARK    4  A    between atoms: C_12  and  C_14
REMARK    5  A    between atoms: C_14  and  S_15
REMARK    6  A    between atoms: S_15  and  C_16
REMARK    7  A    between atoms: C_19  and  C_24
REMARK    8  A    between atoms: N_20  and  C_21
REMARK    9  A    between atoms: C_21  and  C_22
REMARK                            x       y       z     vdW  Elec       q    Type
REMARK                         _______ _______ _______ _____ _____    ______ ____
ROOT
ATOM      1  C   UNL     1      -8.590  -2.802   0.057  0.00  0.00    +0.173 C 
ENDROOT
BRANCH   1   5
ATOM      2  C   UNL     1      -4.960  -2.618   0.036  0.00  0.00    +0.155 A 
ATOM      3  C   UNL     1      -5.167  -3.959   0.041  0.00  0.00    +0.161 A 
ATOM      4  N   UNL     1      -6.493  -4.163   0.050  0.00  0.00    -0.220 NA
ATOM      5  C   UNL     1      -7.098  -3.008   0.049  0.00  0.00    +0.206 A 
ATOM      6  O   UNL     1      -6.178  -2.033   0.046  0.00  0.00    -0.439 OA
BRANCH   2  10
ATOM      7  C   UNL     1      -1.200  -0.637   0.010  0.00  0.00    +0.120 A 
ATOM      8  C   UNL     1      -2.374   0.105   0.020  0.00  0.00    +0.046 A 
ATOM      9  C   UNL     1      -3.595  -0.534   0.028  0.00  0.00    +0.015 A 
ATOM     10  C   UNL     1      -3.652  -1.929   0.027  0.00  0.00    +0.019 A 
ATOM     11  C   UNL     1      -2.470  -2.671   0.017  0.00  0.00    +0.015 A 
ATOM     12  C   UNL     1      -1.252  -2.025   0.003  0.00  0.00    +0.046 A 
BRANCH   7  14
ATOM     13  C   UNL     1      -0.017   1.425   0.010  0.00  0.00    +0.277 C 
ATOM     14  O   UNL     1       0.002  -0.004   0.002  0.00  0.00    -0.495 OA
ENDBRANCH   7  14
ENDBRANCH   2  10
ENDBRANCH   1   5
BRANCH   1  15
ATOM     15  S   UNL     1      -9.180  -2.713   1.771  0.00  0.00    -0.077 S 
BRANCH  15  16
ATOM     16  C   UNL     1     -10.918  -2.473   1.612  0.00  0.00    +0.193 A 
ATOM     17  N   UNL     1     -11.593  -2.391   0.488  0.00  0.00    -0.122 NA
ATOM     18  N   UNL     1     -12.842  -2.215   0.734  0.00  0.00    -0.125 NA
ATOM     19  C   UNL     1     -13.042  -2.175   2.033  0.00  0.00    +0.201 A 
ATOM     20  N   UNL     1     -11.815  -2.345   2.635  0.00  0.00    -0.296 N 
BRANCH  19  21
ATOM     21  C   UNL     1     -14.333  -1.989   2.714  0.00  0.00    +0.172 A 
ATOM     22  C   UNL     1     -15.564  -2.118   2.145  0.00  0.00    +0.053 A 
ATOM     23  C   UNL     1     -16.508  -1.854   3.156  0.00  0.00    +0.042 A 
ATOM     24  C   UNL     1     -15.817  -1.580   4.281  0.00  0.00    +0.196 A 
ATOM     25  O   UNL     1     -14.504  -1.667   4.012  0.00  0.00    -0.460 OA
ENDBRANCH  19  21
BRANCH  20  26
ATOM     26  C   UNL     1     -11.530  -2.378   4.072  0.00  0.00    +0.152 C 
BRANCH  26  27
ATOM     27  C   UNL     1     -11.239  -0.981   4.558  0.00  0.00    -0.013 C 
ATOM     28  C   UNL     1     -11.925  -0.478   5.554  0.00  0.00    +0.005 C 
ENDBRANCH  26  27
ENDBRANCH  20  26
ENDBRANCH  15  16
ENDBRANCH   1  15
TORSDOF 8
