REMARK  Name = ZINC39686076
REMARK  11 active torsions:
REMARK  status: ('A' for Active; 'I' for Inactive)
REMARK    1  A    between atoms: C_1  and  C_2
REMARK    2  A    between atoms: C_4  and  C_11
REMARK    3  A    between atoms: N_5  and  C_7
REMARK    4  A    between atoms: C_7  and  C_8
REMARK    5  A    between atoms: C_7  and  C_9
REMARK    6  A    between atoms: C_7  and  C_10
REMARK    7  A    between atoms: C_15  and  C_24
REMARK    8  A    between atoms: N_26  and  C_27
REMARK    9  A    between atoms: C_33  and  C_35
REMARK   10  A    between atoms: C_35  and  C_36
REMARK   11  A    between atoms: C_35  and  C_37
REMARK                            x       y       z     vdW  Elec       q    Type
REMARK                         _______ _______ _______ _____ _____    ______ ____
ROOT
ATOM      1  C   UNL     1      -1.724  -1.551  -2.987  0.00  0.00    +0.265 C 
ATOM      2  O   UNL     1      -1.938  -1.561  -4.184  0.00  0.00    -0.268 OA
ATOM      3  N   UNL     1      -1.779  -2.699  -2.284  0.00  0.00    -0.295 N 
ATOM      4  C   UNL     1      -1.680  -2.870  -0.815  0.00  0.00    +0.121 C 
ATOM      5  C   UNL     1      -2.714  -3.969  -0.479  0.00  0.00    +0.100 C 
ATOM      6  C   UNL     1      -2.887  -4.758  -1.788  0.00  0.00    -0.004 C 
ATOM      7  C   UNL     1      -1.959  -4.076  -2.804  0.00  0.00    +0.115 C 
ATOM      8  C   UNL     1      -4.333  -4.676  -2.266  0.00  0.00    -0.010 C 
ATOM      9  C   UNL     1      -4.494  -5.515  -3.537  0.00  0.00    -0.082 C 
ATOM     10  N   UNL     1      -4.128  -6.909  -3.255  0.00  0.00    +0.379 N 
ATOM     11  C   UNL     1      -2.710  -6.989  -2.885  0.00  0.00    -0.082 C 
ATOM     12  C   UNL     1      -2.474  -6.213  -1.587  0.00  0.00    -0.010 C 
ATOM     13  H   UNL     1      -4.693  -7.256  -2.495  0.00  0.00    -0.086 HD
ATOM     14  H   UNL     1      -4.292  -7.471  -4.077  0.00  0.00    -0.086 HD
ENDROOT
BRANCH   1  18
ATOM     15  C   UNL     1      -0.358   1.932   0.437  0.00  0.00    +0.067 C 
ATOM     16  C   UNL     1      -0.811   1.245  -0.826  0.00  0.00    +0.061 A 
ATOM     17  C   UNL     1      -0.982  -0.130  -0.998  0.00  0.00    +0.057 A 
ATOM     18  C   UNL     1      -1.404  -0.286  -2.307  0.00  0.00    +0.124 A 
ATOM     19  N   UNL     1      -1.463   0.970  -2.841  0.00  0.00    -0.254 N 
ATOM     20  N   UNL     1      -1.118   1.832  -1.954  0.00  0.00    -0.175 NA
BRANCH  19  21
ATOM     21  C   UNL     1      -1.865   1.285  -4.214  0.00  0.00    +0.056 C 
ATOM     22  C   UNL     1      -3.245   0.686  -4.492  0.00  0.00    +0.036 C 
ATOM     23  C   UNL     1      -1.923   2.804  -4.392  0.00  0.00    +0.036 C 
ATOM     24  C   UNL     1      -0.847   0.696  -5.192  0.00  0.00    +0.036 C 
ENDBRANCH  19  21
ENDBRANCH   1  18
BRANCH   5  25
ATOM     25  C   UNL     1      -2.190  -4.866   0.612  0.00  0.00    +0.218 C 
ATOM     26  O   UNL     1      -0.994  -4.990   0.774  0.00  0.00    -0.275 OA
ATOM     27  N   UNL     1      -3.050  -5.532   1.408  0.00  0.00    -0.312 N 
ATOM     28  H   UNL     1      -4.003  -5.491   1.234  0.00  0.00    +0.149 HD
BRANCH  27  29
ATOM     29  C   UNL     1      -2.545  -6.317   2.537  0.00  0.00    +0.076 C 
ATOM     30  C   UNL     1      -2.144  -7.711   2.050  0.00  0.00    +0.041 C 
ATOM     31  C   UNL     1      -1.585  -8.518   3.226  0.00  0.00    +0.109 C 
ATOM     32  N   UNL     1      -2.575  -8.520   4.312  0.00  0.00    -0.301 N 
ATOM     33  C   UNL     1      -3.095  -7.233   4.795  0.00  0.00    +0.109 C 
ATOM     34  C   UNL     1      -3.638  -6.441   3.601  0.00  0.00    +0.041 C 
ATOM     35  C   UNL     1      -2.997  -9.679   4.854  0.00  0.00    +0.218 C 
ATOM     36  O   UNL     1      -3.872  -9.672   5.694  0.00  0.00    -0.275 OA
BRANCH  35  37
ATOM     37  C   UNL     1      -2.383 -10.983   4.416  0.00  0.00    +0.069 C 
ATOM     38  C   UNL     1      -0.936 -11.057   4.907  0.00  0.00    +0.017 C 
ATOM     39  C   UNL     1      -3.182 -12.147   5.007  0.00  0.00    +0.017 C 
ENDBRANCH  35  37
ENDBRANCH  27  29
ENDBRANCH   5  25
TORSDOF 5
