REMARK  Name = ZINC34681389
REMARK  5 active torsions:
REMARK  status: ('A' for Active; 'I' for Inactive)
REMARK    1  A    between atoms: C_4  and  S_7
REMARK    2  A    between atoms: S_7  and  N_10
REMARK    3  A    between atoms: C_20  and  N_23
REMARK    4  A    between atoms: N_26  and  C_27
REMARK    5  A    between atoms: C_30  and  C_33
REMARK                            x       y       z     vdW  Elec       q    Type
REMARK                         _______ _______ _______ _____ _____    ______ ____
ROOT
ATOM      1  N   UNL     1       4.371  -1.102   1.583  0.00  0.00    -0.175 NA
ATOM      2  C   UNL     1       5.165  -0.108   2.247  0.00  0.00    +0.111 C 
ATOM      3  C   UNL     1       6.643  -0.394   1.933  0.00  0.00    +0.036 C 
ATOM      4  C   UNL     1       7.172  -1.498   2.749  0.00  0.00    +0.108 C 
ATOM      5  N   UNL     1       6.380  -2.731   2.524  0.00  0.00    -0.315 N 
ATOM      6  C   UNL     1       5.095  -2.884   3.148  0.00  0.00    +0.123 C 
ATOM      7  C   UNL     1       3.935  -2.352   2.264  0.00  0.00    +0.128 C 
ATOM      8  C   UNL     1       6.882  -3.741   1.708  0.00  0.00    +0.099 A 
ATOM      9  C   UNL     1       6.181  -4.936   1.583  0.00  0.00    +0.043 A 
ATOM     10  C   UNL     1       6.688  -5.933   0.770  0.00  0.00    +0.028 A 
ATOM     11  C   UNL     1       7.889  -5.698   0.102  0.00  0.00    +0.051 A 
ATOM     12  C   UNL     1       8.532  -4.483   0.274  0.00  0.00    +0.107 A 
ATOM     13  N   UNL     1       8.017  -3.551   1.055  0.00  0.00    -0.348 N 
ATOM     14  H   UNL     1       8.485  -2.708   1.156  0.00  0.00    +0.167 HD
ENDROOT
BRANCH  11  15
ATOM     15  N   UNL     1       8.440  -6.681  -0.733  0.00  0.00    -0.268 N 
ATOM     16  C   UNL     1       7.632  -7.485  -1.451  0.00  0.00    +0.308 C 
ATOM     17  O   UNL     1       6.431  -7.296  -1.452  0.00  0.00    -0.252 OA
ATOM     18  N   UNL     1       8.155  -8.499  -2.169  0.00  0.00    -0.269 N 
ATOM     19  H   UNL     1       9.403  -6.782  -0.793  0.00  0.00    +0.156 HD
ATOM     20  H   UNL     1       9.117  -8.610  -2.221  0.00  0.00    +0.156 HD
BRANCH  18  21
ATOM     21  C   UNL     1       7.310  -9.392  -2.838  0.00  0.00    +0.035 A 
ATOM     22  C   UNL     1       7.655 -10.733  -2.938  0.00  0.00    +0.024 A 
ATOM     23  C   UNL     1       6.819 -11.612  -3.599  0.00  0.00    +0.014 A 
ATOM     24  C   UNL     1       5.639 -11.157  -4.160  0.00  0.00    +0.055 A 
ATOM     25  C   UNL     1       5.294  -9.822  -4.062  0.00  0.00    +0.014 A 
ATOM     26  C   UNL     1       6.123  -8.939  -3.398  0.00  0.00    +0.024 A 
BRANCH  24  27
ATOM     27  C   UNL     1       4.729 -12.118  -4.880  0.00  0.00    +0.417 C 
ATOM     28  F   UNL     1       3.814 -12.663  -3.973  0.00  0.00    -0.166 F 
ATOM     29  F   UNL     1       4.038 -11.439  -5.889  0.00  0.00    -0.166 F 
ATOM     30  F   UNL     1       5.491 -13.145  -5.448  0.00  0.00    -0.166 F 
ENDBRANCH  24  27
ENDBRANCH  18  21
ENDBRANCH  11  15
BRANCH   1  31
ATOM     31  S   UNL     1       3.919  -0.847   0.011  0.00  0.00    +0.061 S 
ATOM     32  O   UNL     1       3.661  -2.127  -0.551  0.00  0.00    -0.153 OA
ATOM     33  O   UNL     1       4.870   0.051  -0.545  0.00  0.00    -0.153 OA
BRANCH  31  37
ATOM     34  C   UNL     1      -0.038   1.350   0.092  0.00  0.00    +0.000 A 
ATOM     35  C   UNL     1       1.147   2.061   0.084  0.00  0.00    +0.002 A 
ATOM     36  C   UNL     1       2.355   1.390   0.059  0.00  0.00    +0.028 A 
ATOM     37  C   UNL     1       2.379   0.008   0.043  0.00  0.00    +0.105 A 
ATOM     38  C   UNL     1       1.193  -0.703   0.053  0.00  0.00    +0.028 A 
ATOM     39  C   UNL     1      -0.015  -0.032   0.076  0.00  0.00    +0.002 A 
ENDBRANCH  31  37
ENDBRANCH   1  31
TORSDOF 5
