REMARK  Name = ZINC62826103
REMARK  8 active torsions:
REMARK  status: ('A' for Active; 'I' for Inactive)
REMARK    1  A    between atoms: C_1  and  C_2
REMARK    2  A    between atoms: C_4  and  C_22
REMARK    3  A    between atoms: C_5  and  N_11
REMARK    4  A    between atoms: C_6  and  C_8
REMARK    5  A    between atoms: N_14  and  C_15
REMARK    6  A    between atoms: N_14  and  C_16
REMARK    7  A    between atoms: C_16  and  C_18
REMARK    8  A    between atoms: C_16  and  C_19
REMARK                            x       y       z     vdW  Elec       q    Type
REMARK                         _______ _______ _______ _____ _____    ______ ____
ROOT
ATOM      1  C   UNL     1       0.241   1.498   0.114  0.00  0.00    +0.044 C 
ATOM      2  C   UNL     1       0.090   0.003   0.006  0.00  0.00    -0.049 A 
ATOM      3  C   UNL     1       1.087  -0.828   0.494  0.00  0.00    +0.008 A 
ATOM      4  C   UNL     1       0.962  -2.199   0.401  0.00  0.00    -0.028 A 
ATOM      5  C   UNL     1      -0.167  -2.758  -0.183  0.00  0.00    +0.052 A 
ATOM      6  C   UNL     1      -1.179  -1.919  -0.678  0.00  0.00    +0.085 A 
ATOM      7  C   UNL     1      -1.040  -0.532  -0.572  0.00  0.00    +0.020 A 
ATOM      8  C   UNL     1       2.053  -3.092   0.935  0.00  0.00    +0.046 C 
ENDROOT
BRANCH   5   9
ATOM      9  N   UNL     1      -0.295  -4.140  -0.279  0.00  0.00    -0.268 N 
ATOM     10  C   UNL     1      -0.252  -4.899   0.834  0.00  0.00    +0.306 C 
ATOM     11  O   UNL     1      -0.001  -4.388   1.909  0.00  0.00    -0.252 OA
ATOM     12  N   UNL     1      -0.487  -6.223   0.756  0.00  0.00    -0.285 N 
ATOM     13  C   UNL     1      -0.790  -6.839  -0.538  0.00  0.00    +0.134 C 
ATOM     14  H   UNL     1      -0.415  -4.557  -1.146  0.00  0.00    +0.156 HD
BRANCH  12  15
ATOM     15  C   UNL     1      -0.440  -7.048   1.966  0.00  0.00    +0.077 C 
ATOM     16  C   UNL     1       0.635  -8.125   1.808  0.00  0.00    +0.028 C 
BRANCH  15  17
ATOM     17  C   UNL     1      -1.800  -7.715   2.182  0.00  0.00    +0.009 C 
ATOM     18  C   UNL     1      -2.631  -7.251   3.381  0.00  0.00    +0.005 C 
ATOM     19  C   UNL     1      -1.956  -8.624   3.403  0.00  0.00    +0.005 C 
ENDBRANCH  15  17
ENDBRANCH  12  15
ENDBRANCH   5   9
BRANCH   6  20
ATOM     20  C   UNL     1      -2.381  -2.497  -1.301  0.00  0.00    +0.388 C 
ATOM     21  O   UNL     1      -3.214  -1.766  -1.818  0.00  0.00    -0.241 OA
ATOM     22  O   UNL     1      -2.547  -3.709  -1.301  0.00  0.00    -0.241 OA
ENDBRANCH   6  20
TORSDOF 4
