REMARK  Name = ZINC09632493
REMARK  14 active torsions:
REMARK  status: ('A' for Active; 'I' for Inactive)
REMARK    1  A    between atoms: C_1  and  C_2
REMARK    2  A    between atoms: C_2  and  C_3
REMARK    3  A    between atoms: C_2  and  C_4
REMARK    4  A    between atoms: C_2  and  C_5
REMARK    5  A    between atoms: C_8  and  C_11
REMARK    6  A    between atoms: C_14  and  S_19
REMARK    7  A    between atoms: N_15  and  C_16
REMARK    8  A    between atoms: C_16  and  C_17
REMARK    9  A    between atoms: S_19  and  C_20
REMARK   10  A    between atoms: C_20  and  C_21
REMARK   11  A    between atoms: C_21  and  C_23
REMARK   12  A    between atoms: C_24  and  N_33
REMARK   13  A    between atoms: N_25  and  C_32
REMARK   14  A    between atoms: N_28  and  C_31
REMARK                            x       y       z     vdW  Elec       q    Type
REMARK                         _______ _______ _______ _____ _____    ______ ____
ROOT
ATOM      1  C   UNL     1      -1.880   2.542   1.452  0.00  0.00    +0.165 A 
ATOM      2  N   UNL     1      -2.474   2.052   2.515  0.00  0.00    -0.128 NA
ATOM      3  N   UNL     1      -3.054   0.944   2.222  0.00  0.00    -0.122 NA
ATOM      4  C   UNL     1      -2.871   0.660   0.952  0.00  0.00    +0.193 A 
ATOM      5  N   UNL     1      -2.114   1.664   0.418  0.00  0.00    -0.298 N 
ENDROOT
BRANCH   1   9
ATOM      6  C   UNL     1       0.343   6.155   1.240  0.00  0.00    -0.042 A 
ATOM      7  C   UNL     1      -0.543   5.952   2.283  0.00  0.00    +0.005 A 
ATOM      8  C   UNL     1      -1.268   4.780   2.358  0.00  0.00    +0.012 A 
ATOM      9  C   UNL     1      -1.106   3.800   1.378  0.00  0.00    +0.019 A 
ATOM     10  C   UNL     1      -0.207   4.009   0.332  0.00  0.00    +0.012 A 
ATOM     11  C   UNL     1       0.508   5.187   0.266  0.00  0.00    +0.005 A 
BRANCH   6  13
ATOM     12  C   UNL     1       1.996   7.578   2.421  0.00  0.00    +0.015 C 
ATOM     13  C   UNL     1       1.132   7.437   1.166  0.00  0.00    -0.013 C 
ATOM     14  C   UNL     1       2.031   7.411  -0.072  0.00  0.00    +0.015 C 
ATOM     15  C   UNL     1       0.170   8.623   1.073  0.00  0.00    +0.015 C 
ENDBRANCH   6  13
ENDBRANCH   1   9
BRANCH   5  16
ATOM     16  C   UNL     1      -1.651   1.784  -0.967  0.00  0.00    +0.152 C 
BRANCH  16  17
ATOM     17  C   UNL     1      -0.347   1.045  -1.127  0.00  0.00    -0.013 C 
ATOM     18  C   UNL     1       0.699   1.662  -1.616  0.00  0.00    +0.005 C 
ENDBRANCH  16  17
ENDBRANCH   5  16
BRANCH   4  19
ATOM     19  S   UNL     1      -3.486  -0.752   0.096  0.00  0.00    -0.078 S 
BRANCH  19  20
ATOM     20  C   UNL     1      -4.366  -1.578   1.446  0.00  0.00    +0.157 C 
BRANCH  20  21
ATOM     21  C   UNL     1      -4.992  -2.849   0.933  0.00  0.00    +0.182 C 
ATOM     22  O   UNL     1      -4.857  -3.166  -0.232  0.00  0.00    -0.291 OA
BRANCH  21  23
ATOM     23  C   UNL     1      -5.736  -3.671   1.806  0.00  0.00    +0.120 A 
ATOM     24  C   UNL     1      -6.234  -4.915   1.383  0.00  0.00    +0.116 A 
ATOM     25  N   UNL     1      -6.944  -5.678   2.266  0.00  0.00    -0.284 N 
ATOM     26  C   UNL     1      -7.180  -5.257   3.518  0.00  0.00    +0.333 A 
ATOM     27  O   UNL     1      -7.822  -5.971   4.264  0.00  0.00    -0.246 OA
ATOM     28  N   UNL     1      -6.734  -4.077   3.977  0.00  0.00    -0.263 N 
ATOM     29  C   UNL     1      -6.019  -3.252   3.185  0.00  0.00    +0.269 A 
ATOM     30  O   UNL     1      -5.616  -2.182   3.604  0.00  0.00    -0.267 OA
ATOM     31  C   UNL     1      -7.028  -3.679   5.356  0.00  0.00    +0.157 C 
ATOM     32  C   UNL     1      -7.464  -6.978   1.835  0.00  0.00    +0.155 C 
BRANCH  24  33
ATOM     33  N   UNL     1      -6.009  -5.355   0.115  0.00  0.00    -0.344 N 
ATOM     34  H   UNL     1      -5.413  -4.862  -0.471  0.00  0.00    +0.144 HD
ATOM     35  H   UNL     1      -6.445  -6.161  -0.203  0.00  0.00    +0.144 HD
ENDBRANCH  24  33
ENDBRANCH  21  23
ENDBRANCH  20  21
ENDBRANCH  19  20
ENDBRANCH   4  19
TORSDOF 9
