REMARK  Name = ZINC21872985
REMARK  9 active torsions:
REMARK  status: ('A' for Active; 'I' for Inactive)
REMARK    1  A    between atoms: C_1  and  C_2
REMARK    2  A    between atoms: C_2  and  C_3
REMARK    3  A    between atoms: C_2  and  C_4
REMARK    4  A    between atoms: C_4  and  C_5
REMARK    5  A    between atoms: C_5  and  C_7
REMARK    6  A    between atoms: C_5  and  N_22
REMARK    7  A    between atoms: N_9  and  C_10
REMARK    8  A    between atoms: C_10  and  C_11
REMARK    9  A    between atoms: C_23  and  C_25
REMARK                            x       y       z     vdW  Elec       q    Type
REMARK                         _______ _______ _______ _____ _____    ______ ____
ROOT
ATOM      1  C   UNL     1       2.473   1.035   0.372  0.00  0.00    +0.159 C 
ENDROOT
BRANCH   1   2
ATOM      2  C   UNL     1       3.492   1.971  -0.225  0.00  0.00    +0.233 C 
ATOM      3  O   UNL     1       3.129   2.957  -0.831  0.00  0.00    -0.274 OA
ATOM      4  N   UNL     1       4.808   1.712  -0.087  0.00  0.00    -0.310 N 
ATOM      5  H   UNL     1       5.137   0.817   0.463  0.00  0.00    +0.149 HD
BRANCH   4   6
ATOM      6  C   UNL     1       5.799   2.621  -0.668  0.00  0.00    +0.152 C 
BRANCH   6   7
ATOM      7  C   UNL     1       7.206   2.100  -0.368  0.00  0.00    +0.228 C 
ATOM      8  C   UNL     1       8.249   3.097  -0.892  0.00  0.00    +0.275 C 
ATOM      9  O   UNL     1       9.551   2.574  -0.608  0.00  0.00    -0.485 OA
ATOM     10  C   UNL     1       9.761   1.262  -0.906  0.00  0.00    +0.162 A 
ATOM     11  C   UNL     1      11.060   0.786  -0.999  0.00  0.00    +0.049 A 
ATOM     12  C   UNL     1      11.290  -0.544  -1.297  0.00  0.00    +0.004 A 
ATOM     13  C   UNL     1      10.226  -1.403  -1.503  0.00  0.00    +0.004 A 
ATOM     14  C   UNL     1       8.929  -0.933  -1.413  0.00  0.00    +0.049 A 
ATOM     15  C   UNL     1       8.691   0.400  -1.115  0.00  0.00    +0.163 A 
ATOM     16  O   UNL     1       7.409   0.848  -1.033  0.00  0.00    -0.480 OA
ENDBRANCH   6   7
ENDBRANCH   4   6
ENDBRANCH   1   2
BRANCH   1  17
ATOM     17  N   UNL     1       1.125   1.526   0.073  0.00  0.00    -0.300 N 
ATOM     18  C   UNL     1       0.080   0.675   0.086  0.00  0.00    +0.246 C 
ATOM     19  O   UNL     1       0.267  -0.514   0.255  0.00  0.00    -0.270 OA
ATOM     20  H   UNL     1       0.967   2.588  -0.163  0.00  0.00    +0.150 HD
BRANCH  18  21
ATOM     21  C   UNL     1      -1.291   1.187  -0.109  0.00  0.00    +0.055 A 
ATOM     22  C   UNL     1      -1.509   2.553  -0.303  0.00  0.00    +0.016 A 
ATOM     23  C   UNL     1      -2.791   3.025  -0.485  0.00  0.00    +0.021 A 
ATOM     24  C   UNL     1      -3.864   2.148  -0.477  0.00  0.00    +0.042 A 
ATOM     25  C   UNL     1      -3.656   0.793  -0.286  0.00  0.00    +0.040 A 
ATOM     26  C   UNL     1      -2.376   0.306  -0.107  0.00  0.00    +0.054 A 
ATOM     27 CL   UNL     1      -2.116  -1.394   0.126  0.00  0.00    -0.083 Cl
ATOM     28 CL   UNL     1      -5.475   2.751  -0.708  0.00  0.00    -0.083 Cl
ENDBRANCH  18  21
ENDBRANCH   1  17
BRANCH   1  29
ATOM     29  C   UNL     1       2.667   0.971   1.889  0.00  0.00    +0.034 C 
BRANCH  29  31
ATOM     30  C   UNL     1       2.343   2.217   4.030  0.00  0.00    +0.007 C 
ATOM     31  C   UNL     1       2.331   2.331   2.504  0.00  0.00    -0.015 C 
ATOM     32  C   UNL     1       3.370   3.362   2.061  0.00  0.00    +0.007 C 
ENDBRANCH  29  31
ENDBRANCH   1  29
TORSDOF 7
