REMARK  Name = ZINC39677423
REMARK  4 active torsions:
REMARK  status: ('A' for Active; 'I' for Inactive)
REMARK    1  A    between atoms: C_6  and  C_7
REMARK    2  A    between atoms: C_11  and  C_20
REMARK    3  A    between atoms: N_22  and  C_23
REMARK    4  A    between atoms: C_23  and  C_24
REMARK                            x       y       z     vdW  Elec       q    Type
REMARK                         _______ _______ _______ _____ _____    ______ ____
ROOT
ATOM      1  C   UNL     1      -1.551  -0.821   0.109  0.00  0.00    +0.247 C 
ATOM      2  O   UNL     1      -2.651  -0.327   0.257  0.00  0.00    -0.270 OA
ATOM      3  N   UNL     1      -1.425  -2.155  -0.036  0.00  0.00    -0.296 N 
ATOM      4  C   UNL     1      -0.175  -2.948  -0.096  0.00  0.00    +0.121 C 
ATOM      5  C   UNL     1      -0.487  -4.230   0.708  0.00  0.00    +0.100 C 
ATOM      6  C   UNL     1      -2.018  -4.365   0.653  0.00  0.00    -0.004 C 
ATOM      7  C   UNL     1      -2.506  -3.161  -0.166  0.00  0.00    +0.115 C 
ATOM      8  C   UNL     1      -2.604  -4.311   2.060  0.00  0.00    -0.010 C 
ATOM      9  C   UNL     1      -4.121  -4.504   1.984  0.00  0.00    -0.082 C 
ATOM     10  N   UNL     1      -4.421  -5.797   1.357  0.00  0.00    +0.379 N 
ATOM     11  C   UNL     1      -3.935  -5.806  -0.029  0.00  0.00    -0.082 C 
ATOM     12  C   UNL     1      -2.410  -5.668  -0.037  0.00  0.00    -0.010 C 
ATOM     13  H   UNL     1      -3.968  -6.534   1.875  0.00  0.00    -0.086 HD
ATOM     14  H   UNL     1      -5.418  -5.949   1.363  0.00  0.00    -0.086 HD
ENDROOT
BRANCH   1  20
ATOM     15  C   UNL     1       0.828  -0.413  -0.507  0.00  0.00    +0.014 A 
ATOM     16  C   UNL     1       1.945   0.396  -0.523  0.00  0.00    +0.021 A 
ATOM     17  C   UNL     1       1.899   1.657   0.048  0.00  0.00    +0.041 A 
ATOM     18  C   UNL     1       0.733   2.113   0.639  0.00  0.00    +0.021 A 
ATOM     19  C   UNL     1      -0.391   1.313   0.662  0.00  0.00    +0.014 A 
ATOM     20  C   UNL     1      -0.350   0.041   0.088  0.00  0.00    +0.037 A 
ATOM     21 CL   UNL     1       3.309   2.669   0.023  0.00  0.00    -0.084 Cl
ENDBRANCH   1  20
BRANCH   5  22
ATOM     22  C   UNL     1      -0.022  -4.082   2.133  0.00  0.00    +0.218 C 
ATOM     23  O   UNL     1      -0.004  -2.987   2.655  0.00  0.00    -0.275 OA
ATOM     24  N   UNL     1       0.375  -5.166   2.829  0.00  0.00    -0.311 N 
ATOM     25  H   UNL     1       0.361  -6.042   2.412  0.00  0.00    +0.149 HD
BRANCH  24  26
ATOM     26  C   UNL     1       0.827  -5.022   4.215  0.00  0.00    +0.139 C 
BRANCH  26  27
ATOM     27  C   UNL     1       1.211  -6.373   4.761  0.00  0.00    -0.027 A 
ATOM     28  C   UNL     1       0.263  -7.159   5.390  0.00  0.00    +0.009 A 
ATOM     29  C   UNL     1       0.612  -8.397   5.893  0.00  0.00    +0.050 A 
ATOM     30  C   UNL     1       1.915  -8.856   5.768  0.00  0.00    +0.162 A 
ATOM     31  C   UNL     1       2.868  -8.068   5.134  0.00  0.00    +0.162 A 
ATOM     32  C   UNL     1       2.510  -6.827   4.628  0.00  0.00    +0.054 A 
ATOM     33  O   UNL     1       4.150  -8.502   4.994  0.00  0.00    -0.485 OA
ATOM     34  C   UNL     1       4.557  -9.587   5.835  0.00  0.00    +0.270 C 
ATOM     35  C   UNL     1       3.462 -10.661   5.798  0.00  0.00    +0.270 C 
ATOM     36  O   UNL     1       2.244 -10.077   6.273  0.00  0.00    -0.485 OA
ENDBRANCH  26  27
ENDBRANCH  24  26
ENDBRANCH   5  22
TORSDOF 4
