REMARK  Name = ZINC20716372
REMARK  6 active torsions:
REMARK  status: ('A' for Active; 'I' for Inactive)
REMARK    1  A    between atoms: C_1  and  C_2
REMARK    2  A    between atoms: C_2  and  C_4
REMARK    3  A    between atoms: C_2  and  N_8
REMARK    4  A    between atoms: C_4  and  O_6
REMARK    5  A    between atoms: O_6  and  C_7
REMARK    6  A    between atoms: C_20  and  C_22
REMARK                            x       y       z     vdW  Elec       q    Type
REMARK                         _______ _______ _______ _____ _____    ______ ____
ROOT
ATOM      1  N   UNL     1      -1.401  -0.361   2.504  0.00  0.00    -0.286 N 
ATOM      2  C   UNL     1      -0.084  -0.608   2.364  0.00  0.00    +0.304 C 
ATOM      3  O   UNL     1       0.436  -0.527   1.268  0.00  0.00    -0.253 OA
ATOM      4  N   UNL     1       0.657  -0.944   3.438  0.00  0.00    -0.273 N 
ATOM      5  C   UNL     1       2.114  -1.112   3.327  0.00  0.00    +0.116 C 
ATOM      6  C   UNL     1       2.477  -2.573   3.621  0.00  0.00    +0.076 C 
ATOM      7  C   UNL     1       1.724  -3.024   4.848  0.00  0.00    +0.066 A 
ATOM      8  C   UNL     1       0.637  -2.399   5.348  0.00  0.00    +0.064 A 
ATOM      9  N   UNL     1       0.239  -3.097   6.446  0.00  0.00    -0.346 N 
ATOM     10  H   UNL     1      -0.517  -2.893   7.018  0.00  0.00    +0.167 HD
ATOM     11  C   UNL     1       1.100  -4.132   6.588  0.00  0.00    +0.197 A 
ATOM     12  N   UNL     1       1.984  -4.079   5.627  0.00  0.00    -0.240 NA
ATOM     13  C   UNL     1       0.028  -1.147   4.756  0.00  0.00    +0.159 C 
ATOM     14  H   UNL     1      -1.831  -0.495   3.363  0.00  0.00    +0.151 HD
ENDROOT
BRANCH  13  15
ATOM     15  C   UNL     1       0.309   0.036   5.647  0.00  0.00    +0.014 A 
ATOM     16  C   UNL     1       1.262  -0.060   6.644  0.00  0.00    +0.010 A 
ATOM     17  C   UNL     1       1.520   1.024   7.460  0.00  0.00    +0.016 A 
ATOM     18  C   UNL     1       0.826   2.207   7.281  0.00  0.00    +0.021 A 
ATOM     19  C   UNL     1      -0.127   2.305   6.285  0.00  0.00    +0.054 A 
ATOM     20  C   UNL     1      -0.382   1.221   5.462  0.00  0.00    +0.130 A 
ATOM     21  F   UNL     1      -1.310   1.317   4.485  0.00  0.00    -0.205 F 
ATOM     22 BR   UNL     1       1.181   3.690   8.400  0.00  0.00    -0.050 Br
ENDBRANCH  13  15
BRANCH   1  24
ATOM     23  C   UNL     1      -2.647  -1.089   0.529  0.00  0.00    +0.040 C 
ATOM     24  C   UNL     1      -2.184   0.111   1.359  0.00  0.00    +0.180 C 
BRANCH  24  25
ATOM     25  C   UNL     1      -3.387   0.873   1.852  0.00  0.00    +0.327 C 
ATOM     26  O   UNL     1      -3.571   1.010   3.039  0.00  0.00    -0.249 OA
BRANCH  25  27
ATOM     27  O   UNL     1      -4.253   1.402   0.974  0.00  0.00    -0.467 OA
ATOM     28  C   UNL     1      -5.370   2.112   1.512  0.00  0.00    +0.280 C 
ENDBRANCH  25  27
ENDBRANCH  24  25
ENDBRANCH   1  24
TORSDOF 4
