REMARK  Name = ZINC46570940
REMARK  6 active torsions:
REMARK  status: ('A' for Active; 'I' for Inactive)
REMARK    1  A    between atoms: C_3  and  C_8
REMARK    2  A    between atoms: C_10  and  C_13
REMARK    3  A    between atoms: N_15  and  N_16
REMARK    4  A    between atoms: N_16  and  C_17
REMARK    5  A    between atoms: C_17  and  N_19
REMARK    6  A    between atoms: N_19  and  C_20
REMARK                            x       y       z     vdW  Elec       q    Type
REMARK                         _______ _______ _______ _____ _____    ______ ____
ROOT
ATOM      1  C   UNL     1       7.291   2.122  -0.067  0.00  0.00    +0.279 C 
ATOM      2  O   UNL     1       8.198   2.932  -0.070  0.00  0.00    -0.267 OA
ATOM      3  N   UNL     1       7.566   0.802  -0.083  0.00  0.00    -0.230 N 
ATOM      4  H   UNL     1       6.843   0.156  -0.080  0.00  0.00    +0.173 HD
ENDROOT
BRANCH   1   7
ATOM      5  C   UNL     1       3.657   2.163  -0.022  0.00  0.00    +0.109 A 
ATOM      6  N   UNL     1       4.896   1.707  -0.041  0.00  0.00    -0.234 NA
ATOM      7  C   UNL     1       5.892   2.582  -0.045  0.00  0.00    +0.135 A 
ATOM      8  C   UNL     1       5.601   3.921  -0.029  0.00  0.00    +0.080 A 
ATOM      9  S   UNL     1       3.918   3.928  -0.016  0.00  0.00    -0.075 S 
BRANCH   5  12
ATOM     10  C   UNL     1      -0.017   1.379   0.010  0.00  0.00    +0.002 A 
ATOM     11  C   UNL     1       1.167   2.088   0.002  0.00  0.00    +0.010 A 
ATOM     12  C   UNL     1       2.385   1.408  -0.013  0.00  0.00    +0.009 A 
ATOM     13  C   UNL     1       2.398   0.013  -0.021  0.00  0.00    +0.030 A 
ATOM     14  C   UNL     1       1.207  -0.686  -0.013  0.00  0.00    +0.042 A 
ATOM     15  C   UNL     1       0.002  -0.004   0.002  0.00  0.00    +0.020 A 
ATOM     16 CL   UNL     1       1.221  -2.422  -0.022  0.00  0.00    -0.084 Cl
ENDBRANCH   5  12
ENDBRANCH   1   7
BRANCH   3  17
ATOM     17  N   UNL     1       8.897   0.365  -0.103  0.00  0.00    -0.246 N 
ATOM     18  H   UNL     1       9.620   1.011  -0.105  0.00  0.00    +0.172 HD
BRANCH  17  19
ATOM     19  C   UNL     1       9.172  -0.955  -0.119  0.00  0.00    +0.147 C 
ATOM     20  S   UNL     1      10.798  -1.490  -0.144  0.00  0.00    -0.017 S 
BRANCH  19  21
ATOM     21  N   UNL     1       8.167  -1.853  -0.116  0.00  0.00    -0.323 N 
ATOM     22  H   UNL     1       7.245  -1.550  -0.102  0.00  0.00    +0.148 HD
BRANCH  21  23
ATOM     23  C   UNL     1       8.466  -3.287  -0.133  0.00  0.00    +0.072 C 
ATOM     24  C   UNL     1       8.610  -3.779  -1.588  0.00  0.00    +0.022 C 
ATOM     25  C   UNL     1       7.978  -5.193  -1.575  0.00  0.00    +0.002 C 
ATOM     26  C   UNL     1       6.774  -5.021  -0.617  0.00  0.00    +0.002 C 
ATOM     27  C   UNL     1       7.298  -4.076   0.484  0.00  0.00    +0.022 C 
ENDBRANCH  21  23
ENDBRANCH  19  21
ENDBRANCH  17  19
ENDBRANCH   3  17
TORSDOF 6
