REMARK  Name = ZINC63340094
REMARK  8 active torsions:
REMARK  status: ('A' for Active; 'I' for Inactive)
REMARK    1  A    between atoms: C_1  and  C_2
REMARK    2  A    between atoms: C_4  and  N_18
REMARK    3  A    between atoms: C_6  and  C_17
REMARK    4  A    between atoms: N_8  and  C_10
REMARK    5  A    between atoms: C_10  and  C_11
REMARK    6  A    between atoms: C_19  and  C_21
REMARK    7  A    between atoms: C_21  and  S_22
REMARK    8  A    between atoms: S_22  and  C_23
REMARK                            x       y       z     vdW  Elec       q    Type
REMARK                         _______ _______ _______ _____ _____    ______ ____
ROOT
ATOM      1  N   UNL     1      -1.680  -1.433  -1.108  0.00  0.00    -0.309 N 
ATOM      2  C   UNL     1      -2.091  -0.909  -2.280  0.00  0.00    +0.223 C 
ATOM      3  O   UNL     1      -2.261   0.287  -2.384  0.00  0.00    -0.275 OA
ATOM      4  H   UNL     1      -1.544  -2.389  -1.026  0.00  0.00    +0.149 HD
ENDROOT
BRANCH   1   7
ATOM      5  C   UNL     1      -0.019   1.526   0.010  0.00  0.00    +0.027 C 
ATOM      6  C   UNL     1       0.002  -0.004   0.002  0.00  0.00    +0.088 C 
ATOM      7  C   UNL     1      -1.437  -0.556   0.040  0.00  0.00    +0.109 C 
ATOM      8  C   UNL     1      -1.509  -1.359   1.359  0.00  0.00    +0.092 C 
ATOM      9  N   UNL     1      -0.423  -0.767   2.185  0.00  0.00    -0.234 NA
ATOM     10  N   UNL     1       0.662  -0.513   1.226  0.00  0.00    -0.249 NA
ATOM     11  C   UNL     1      -2.869  -1.167   2.034  0.00  0.00    +0.027 C 
ATOM     12  H   UNL     1       1.180  -1.357   1.033  0.00  0.00    +0.141 HD
BRANCH   9  13
ATOM     13  C   UNL     1       0.009  -1.700   3.234  0.00  0.00    +0.137 C 
BRANCH  13  14
ATOM     14  C   UNL     1       1.020  -1.023   4.123  0.00  0.00    -0.032 A 
ATOM     15  C   UNL     1       2.366  -1.095   3.819  0.00  0.00    +0.005 A 
ATOM     16  C   UNL     1       3.293  -0.474   4.635  0.00  0.00    +0.000 A 
ATOM     17  C   UNL     1       2.873   0.220   5.755  0.00  0.00    +0.000 A 
ATOM     18  C   UNL     1       1.527   0.292   6.059  0.00  0.00    +0.000 A 
ATOM     19  C   UNL     1       0.600  -0.325   5.240  0.00  0.00    +0.005 A 
ENDBRANCH  13  14
ENDBRANCH   9  13
ENDBRANCH   1   7
BRANCH   2  20
ATOM     20  C   UNL     1      -2.341  -1.811  -3.462  0.00  0.00    +0.168 C 
BRANCH  20  21
ATOM     21  S   UNL     1      -2.880  -0.815  -4.879  0.00  0.00    -0.106 S 
BRANCH  21  22
ATOM     22  C   UNL     1      -3.135  -2.032  -6.199  0.00  0.00    +0.236 C 
ATOM     23  N   UNL     1      -4.117  -3.038  -5.775  0.00  0.00    -0.355 N 
ATOM     24  C   UNL     1      -3.523  -4.195  -5.789  0.00  0.00    +0.061 A 
ATOM     25  C   UNL     1      -3.979  -5.556  -5.469  0.00  0.00    +0.030 A 
ATOM     26  C   UNL     1      -3.120  -6.588  -5.577  0.00  0.00    +0.040 A 
ATOM     27  C   UNL     1      -1.782  -6.422  -5.989  0.00  0.00    +0.125 A 
ATOM     28  C   UNL     1      -1.263  -5.215  -6.306  0.00  0.00    +0.065 A 
ATOM     29  C   UNL     1      -2.110  -4.019  -6.224  0.00  0.00    +0.064 A 
ATOM     30  N   UNL     1      -1.885  -2.757  -6.464  0.00  0.00    -0.355 N 
ATOM     31  F   UNL     1      -0.988  -7.511  -6.070  0.00  0.00    -0.205 F 
ATOM     32  H   UNL     1      -5.040  -2.870  -5.529  0.00  0.00    +0.162 HD
ATOM     33  H   UNL     1      -1.048  -2.369  -6.761  0.00  0.00    +0.162 HD
ENDBRANCH  21  22
ENDBRANCH  20  21
ENDBRANCH   2  20
TORSDOF 6
