REMARK  Name = ZINC19805185
REMARK  5 active torsions:
REMARK  status: ('A' for Active; 'I' for Inactive)
REMARK    1  A    between atoms: C_1  and  C_2
REMARK    2  A    between atoms: C_3  and  C_23
REMARK    3  A    between atoms: C_4  and  C_14
REMARK    4  A    between atoms: C_23  and  O_25
REMARK    5  A    between atoms: O_25  and  C_26
REMARK                            x       y       z     vdW  Elec       q    Type
REMARK                         _______ _______ _______ _____ _____    ______ ____
ROOT
ATOM      1  C   UNL     1       2.362  -0.232   0.197  0.00  0.00    +0.061 C 
ATOM      2  C   UNL     1       2.365   1.271   0.094  0.00  0.00    +0.016 C 
ATOM      3  C   UNL     1       1.219   1.925  -0.162  0.00  0.00    +0.065 C 
ATOM      4  C   UNL     1       1.185   3.421  -0.273  0.00  0.00    +0.092 C 
ATOM      5  C   UNL     1       2.417   4.038   0.339  0.00  0.00    +0.024 C 
ATOM      6  C   UNL     1       3.520   3.293   0.566  0.00  0.00    +0.015 C 
ATOM      7  N   UNL     1       3.534   1.960   0.256  0.00  0.00    -0.321 N 
ATOM      8  C   UNL     1       4.763   3.908   1.161  0.00  0.00    +0.051 C 
ATOM      9  C   UNL     1       4.372   5.056   2.094  0.00  0.00    +0.014 C 
ATOM     10  C   UNL     1       3.572   6.086   1.289  0.00  0.00    +0.080 C 
ATOM     11  C   UNL     1       2.384   5.404   0.666  0.00  0.00    +0.162 C 
ATOM     12  O   UNL     1       1.377   6.047   0.443  0.00  0.00    -0.292 OA
ATOM     13  H   UNL     1       4.498   1.443   0.137  0.00  0.00    +0.152 HD
ENDROOT
BRANCH   4  14
ATOM     14  C   UNL     1       1.110   3.808  -1.728  0.00  0.00    -0.032 A 
ATOM     15  C   UNL     1       2.116   3.426  -2.596  0.00  0.00    +0.008 A 
ATOM     16  C   UNL     1       2.052   3.778  -3.931  0.00  0.00    +0.050 A 
ATOM     17  C   UNL     1       0.977   4.514  -4.403  0.00  0.00    +0.166 A 
ATOM     18  C   UNL     1      -0.037   4.899  -3.529  0.00  0.00    +0.167 A 
ATOM     19  C   UNL     1       0.032   4.538  -2.193  0.00  0.00    +0.054 A 
ATOM     20  O   UNL     1      -0.971   5.606  -4.229  0.00  0.00    -0.453 OA
ATOM     21  C   UNL     1      -0.725   5.302  -5.614  0.00  0.00    +0.466 C 
ATOM     22  O   UNL     1       0.678   4.981  -5.651  0.00  0.00    -0.453 OA
ENDBRANCH   4  14
BRANCH   3  23
ATOM     23  C   UNL     1       0.022   1.190  -0.325  0.00  0.00    +0.338 C 
ATOM     24  O   UNL     1      -0.817   1.191   0.556  0.00  0.00    -0.245 OA
BRANCH  23  25
ATOM     25  O   UNL     1      -0.187   0.482  -1.455  0.00  0.00    -0.458 OA
BRANCH  25  26
ATOM     26  C   UNL     1      -1.415  -0.242  -1.549  0.00  0.00    +0.177 C 
ATOM     27  C   UNL     1      -1.223  -1.649  -0.979  0.00  0.00    +0.044 C 
ATOM     28  C   UNL     1      -2.538  -2.425  -1.080  0.00  0.00    +0.004 C 
ATOM     29  C   UNL     1      -2.962  -2.522  -2.547  0.00  0.00    +0.000 C 
ATOM     30  C   UNL     1      -3.155  -1.115  -3.116  0.00  0.00    +0.004 C 
ATOM     31  C   UNL     1      -1.839  -0.339  -3.016  0.00  0.00    +0.044 C 
ENDBRANCH  25  26
ENDBRANCH  23  25
ENDBRANCH   3  23
TORSDOF 4
