REMARK  Name = ZINC20190844
REMARK  13 active torsions:
REMARK  status: ('A' for Active; 'I' for Inactive)
REMARK    1  A    between atoms: C_1  and  C_2
REMARK    2  A    between atoms: C_2  and  S_3
REMARK    3  A    between atoms: S_3  and  C_4
REMARK    4  A    between atoms: C_4  and  C_5
REMARK    5  A    between atoms: C_5  and  O_6
REMARK    6  A    between atoms: O_6  and  C_7
REMARK    7  A    between atoms: C_7  and  C_9
REMARK    8  A    between atoms: C_10  and  C_36
REMARK    9  A    between atoms: C_14  and  C_16
REMARK   10  A    between atoms: C_26  and  C_32
REMARK   11  A    between atoms: C_28  and  C_31
REMARK   12  A    between atoms: C_32  and  O_34
REMARK   13  A    between atoms: O_34  and  C_35
REMARK                            x       y       z     vdW  Elec       q    Type
REMARK                         _______ _______ _______ _____ _____    ______ ____
ROOT
ATOM      1  C   UNL     1      -2.664   5.379  -1.182  0.00  0.00    +0.065 C 
ATOM      2  C   UNL     1      -2.454   6.705  -1.134  0.00  0.00    +0.016 C 
ATOM      3  N   UNL     1      -2.148   7.315   0.051  0.00  0.00    -0.321 N 
ATOM      4  C   UNL     1      -2.428   6.704   1.243  0.00  0.00    +0.016 C 
ATOM      5  C   UNL     1      -2.642   5.372   1.297  0.00  0.00    +0.025 C 
ATOM      6  C   UNL     1      -2.562   4.528   0.050  0.00  0.00    +0.094 C 
ATOM      7  C   UNL     1      -2.945   4.734   2.513  0.00  0.00    +0.176 C 
ATOM      8  O   UNL     1      -3.122   3.532   2.528  0.00  0.00    -0.291 OA
ATOM      9  C   UNL     1      -3.056   5.513   3.795  0.00  0.00    +0.171 C 
ATOM     10  C   UNL     1      -3.497   6.944   3.472  0.00  0.00    +0.013 C 
ATOM     11  C   UNL     1      -2.494   7.552   2.489  0.00  0.00    +0.055 C 
ATOM     12  C   UNL     1      -3.527   7.775   4.756  0.00  0.00    +0.009 C 
ATOM     13  C   UNL     1      -2.558   7.526  -2.393  0.00  0.00    +0.061 C 
ATOM     14  H   UNL     1      -1.671   8.306   0.051  0.00  0.00    +0.152 HD
ENDROOT
BRANCH   6  15
ATOM     15  C   UNL     1      -1.247   3.791   0.034  0.00  0.00    -0.015 A 
ATOM     16  C   UNL     1      -0.059   4.497   0.026  0.00  0.00    +0.006 A 
ATOM     17  C   UNL     1       1.147   3.822   0.011  0.00  0.00    +0.002 A 
ATOM     18  C   UNL     1       1.167   2.440   0.004  0.00  0.00    +0.021 A 
ATOM     19  C   UNL     1      -0.021   1.732   0.012  0.00  0.00    +0.060 A 
ATOM     20  C   UNL     1      -1.230   2.408   0.021  0.00  0.00    +0.063 A 
ATOM     21 CL   UNL     1      -2.722   1.521   0.023  0.00  0.00    -0.082 Cl
ATOM     22 CL   UNL     1       0.002  -0.004   0.002  0.00  0.00    -0.082 Cl
ENDBRANCH   6  15
BRANCH   1  23
ATOM     23  C   UNL     1      -2.987   4.774  -2.419  0.00  0.00    +0.338 C 
ATOM     24  O   UNL     1      -3.073   5.453  -3.425  0.00  0.00    -0.245 OA
BRANCH  23  25
ATOM     25  O   UNL     1      -3.200   3.443  -2.484  0.00  0.00    -0.460 OA
BRANCH  25  26
ATOM     26  C   UNL     1      -3.522   2.899  -3.765  0.00  0.00    +0.243 C 
BRANCH  26  27
ATOM     27  C   UNL     1      -3.726   1.388  -3.641  0.00  0.00    +0.110 C 
BRANCH  27  28
ATOM     28  S   UNL     1      -4.135   0.697  -5.268  0.00  0.00    -0.158 S 
BRANCH  28  30
ATOM     29  C   UNL     1      -4.695  -1.790  -6.259  0.00  0.00    +0.015 C 
ATOM     30  C   UNL     1      -4.343  -1.077  -4.952  0.00  0.00    +0.066 C 
ENDBRANCH  28  30
ENDBRANCH  27  28
ENDBRANCH  26  27
ENDBRANCH  25  26
ENDBRANCH  23  25
ENDBRANCH   1  23
BRANCH   9  31
ATOM     31  C   UNL     1      -4.074   4.862   4.694  0.00  0.00    +0.318 C 
ATOM     32  O   UNL     1      -5.050   5.480   5.050  0.00  0.00    -0.250 OA
BRANCH  31  33
ATOM     33  O   UNL     1      -3.899   3.595   5.100  0.00  0.00    -0.467 OA
ATOM     34  C   UNL     1      -4.920   3.032   5.966  0.00  0.00    +0.280 C 
ENDBRANCH  31  33
ENDBRANCH   9  31
TORSDOF 9
