REMARK  Name = ZINC20941372
REMARK  8 active torsions:
REMARK  status: ('A' for Active; 'I' for Inactive)
REMARK    1  A    between atoms: C_1  and  C_2
REMARK    2  A    between atoms: C_5  and  N_9
REMARK    3  A    between atoms: C_6  and  C_8
REMARK    4  A    between atoms: C_10  and  C_28
REMARK    5  A    between atoms: C_11  and  C_14
REMARK    6  A    between atoms: N_16  and  C_17
REMARK    7  A    between atoms: C_20  and  O_23
REMARK    8  A    between atoms: O_23  and  C_24
REMARK                            x       y       z     vdW  Elec       q    Type
REMARK                         _______ _______ _______ _____ _____    ______ ____
ROOT
ATOM      1  N   UNL     1       0.459   1.723  -3.775  0.00  0.00    -0.235 N 
ATOM      2  C   UNL     1       0.124   1.035  -2.668  0.00  0.00    +0.060 A 
ATOM      3  C   UNL     1       0.241  -0.308  -2.965  0.00  0.00    +0.078 A 
ATOM      4  C   UNL     1       0.670  -0.402  -4.308  0.00  0.00    +0.148 A 
ATOM      5  N   UNL     1       0.799   0.808  -4.778  0.00  0.00    -0.174 NA
ENDROOT
BRANCH   1  10
ATOM      6  C   UNL     1       0.497   7.375  -4.285  0.00  0.00    +0.044 C 
ATOM      7  C   UNL     1       0.487   5.874  -4.150  0.00  0.00    -0.050 A 
ATOM      8  C   UNL     1      -0.621   5.236  -3.624  0.00  0.00    +0.005 A 
ATOM      9  C   UNL     1      -0.634   3.861  -3.498  0.00  0.00    +0.028 A 
ATOM     10  C   UNL     1       0.468   3.118  -3.901  0.00  0.00    +0.069 A 
ATOM     11  C   UNL     1       1.582   3.762  -4.425  0.00  0.00    -0.025 A 
ATOM     12  C   UNL     1       1.586   5.138  -4.552  0.00  0.00    +0.008 A 
ATOM     13  C   UNL     1       2.782   2.960  -4.857  0.00  0.00    +0.046 C 
ENDBRANCH   1  10
BRANCH   2  14
ATOM     14  C   UNL     1      -0.306   1.623  -1.349  0.00  0.00    +0.035 C 
ATOM     15  C   UNL     1       0.630   1.134  -0.240  0.00  0.00    -0.010 C 
ATOM     16  C   UNL     1       0.153   1.685   1.105  0.00  0.00    -0.082 C 
ATOM     17  N   UNL     1      -1.220   1.229   1.362  0.00  0.00    +0.379 N 
ATOM     18  C   UNL     1      -2.146   1.727   0.337  0.00  0.00    -0.082 C 
ATOM     19  C   UNL     1      -1.736   1.177  -1.032  0.00  0.00    -0.010 C 
ATOM     20  H   UNL     1      -1.248   0.130   1.357  0.00  0.00    -0.086 HD
ATOM     21  H   UNL     1      -1.551   1.600   2.344  0.00  0.00    -0.086 HD
ENDBRANCH   2  14
BRANCH   3  22
ATOM     22  C   UNL     1      -0.031  -1.433  -2.052  0.00  0.00    +0.252 C 
ATOM     23  O   UNL     1      -0.495  -1.222  -0.948  0.00  0.00    -0.270 OA
ATOM     24  N   UNL     1       0.234  -2.696  -2.442  0.00  0.00    -0.281 N 
ATOM     25  H   UNL     1       0.725  -2.882  -3.408  0.00  0.00    +0.155 HD
BRANCH  24  26
ATOM     26  C   UNL     1      -0.115  -3.771  -1.615  0.00  0.00    +0.034 A 
ATOM     27  C   UNL     1      -0.024  -3.645  -0.235  0.00  0.00    +0.027 A 
ATOM     28  C   UNL     1      -0.374  -4.704   0.579  0.00  0.00    +0.048 A 
ATOM     29  C   UNL     1      -0.804  -5.897   0.019  0.00  0.00    +0.130 A 
ATOM     30  C   UNL     1      -0.890  -6.026  -1.359  0.00  0.00    +0.048 A 
ATOM     31  C   UNL     1      -0.546  -4.966  -2.175  0.00  0.00    +0.027 A 
BRANCH  29  32
ATOM     32  O   UNL     1      -1.143  -6.941   0.822  0.00  0.00    -0.406 OA
BRANCH  32  33
ATOM     33  C   UNL     1      -1.031  -6.739   2.232  0.00  0.00    +0.575 C 
ATOM     34  F   UNL     1      -1.862  -5.682   2.619  0.00  0.00    -0.133 F 
ATOM     35  F   UNL     1      -1.416  -7.905   2.902  0.00  0.00    -0.133 F 
ATOM     36  F   UNL     1       0.295  -6.432   2.554  0.00  0.00    -0.133 F 
ENDBRANCH  32  33
ENDBRANCH  29  32
ENDBRANCH  24  26
ENDBRANCH   3  22
TORSDOF 6
