REMARK  Name = ZINC09473835
REMARK  8 active torsions:
REMARK  status: ('A' for Active; 'I' for Inactive)
REMARK    1  A    between atoms: N_9  and  C_21
REMARK    2  A    between atoms: C_10  and  S_12
REMARK    3  A    between atoms: S_12  and  C_13
REMARK    4  A    between atoms: C_13  and  C_14
REMARK    5  A    between atoms: C_21  and  C_22
REMARK    6  A    between atoms: C_25  and  C_28
REMARK    7  A    between atoms: N_30  and  C_31
REMARK    8  A    between atoms: C_31  and  C_32
REMARK                            x       y       z     vdW  Elec       q    Type
REMARK                         _______ _______ _______ _____ _____    ______ ____
ROOT
ATOM      1  C   UNL     1       1.323  -8.993   0.601  0.00  0.00    +0.001 A 
ATOM      2  C   UNL     1       1.321  -8.075   1.643  0.00  0.00    +0.002 A 
ATOM      3  C   UNL     1       1.300  -6.731   1.397  0.00  0.00    +0.028 A 
ATOM      4  C   UNL     1       1.281  -6.270   0.077  0.00  0.00    +0.079 A 
ATOM      5  C   UNL     1       1.284  -7.207  -0.981  0.00  0.00    +0.065 A 
ATOM      6  C   UNL     1       1.305  -8.573  -0.701  0.00  0.00    +0.015 A 
ATOM      7  C   UNL     1       1.264  -6.698  -2.359  0.00  0.00    +0.263 A 
ATOM      8  O   UNL     1       1.264  -7.455  -3.312  0.00  0.00    -0.267 OA
ATOM      9  N   UNL     1       1.244  -5.355  -2.529  0.00  0.00    -0.283 N 
ATOM     10  C   UNL     1       1.244  -4.521  -1.448  0.00  0.00    +0.173 A 
ATOM     11  N   UNL     1       1.266  -4.953  -0.211  0.00  0.00    -0.223 NA
ENDROOT
BRANCH  10  12
ATOM     12  S   UNL     1       1.219  -2.782  -1.729  0.00  0.00    -0.083 S 
BRANCH  12  13
ATOM     13  C   UNL     1       1.227  -2.186  -0.020  0.00  0.00    +0.112 C 
BRANCH  13  14
ATOM     14  C   UNL     1       1.208  -0.679  -0.013  0.00  0.00    -0.037 A 
ATOM     15  C   UNL     1       0.002  -0.004   0.002  0.00  0.00    +0.007 A 
ATOM     16  C   UNL     1      -0.017   1.378   0.010  0.00  0.00    +0.038 A 
ATOM     17  C   UNL     1       1.173   2.086   0.002  0.00  0.00    +0.123 A 
ATOM     18  C   UNL     1       2.381   1.408  -0.013  0.00  0.00    +0.038 A 
ATOM     19  C   UNL     1       2.397   0.026  -0.020  0.00  0.00    +0.007 A 
ATOM     20  F   UNL     1       1.156   3.437   0.009  0.00  0.00    -0.205 F 
ENDBRANCH  13  14
ENDBRANCH  12  13
ENDBRANCH  10  12
BRANCH   9  21
ATOM     21  C   UNL     1       1.223  -4.793  -3.882  0.00  0.00    +0.162 C 
BRANCH  21  22
ATOM     22  C   UNL     1       2.637  -4.582  -4.359  0.00  0.00    -0.028 A 
ATOM     23  C   UNL     1       3.271  -3.375  -4.122  0.00  0.00    +0.006 A 
ATOM     24  C   UNL     1       4.567  -3.178  -4.552  0.00  0.00    +0.013 A 
ATOM     25  C   UNL     1       5.234  -4.194  -5.237  0.00  0.00    +0.037 A 
ATOM     26  C   UNL     1       4.587  -5.407  -5.478  0.00  0.00    +0.013 A 
ATOM     27  C   UNL     1       3.293  -5.594  -5.038  0.00  0.00    +0.006 A 
BRANCH  25  28
ATOM     28  C   UNL     1       6.621  -3.986  -5.706  0.00  0.00    +0.244 C 
ATOM     29  O   UNL     1       7.200  -4.873  -6.303  0.00  0.00    -0.270 OA
ATOM     30  N   UNL     1       7.244  -2.814  -5.472  0.00  0.00    -0.309 N 
ATOM     31  H   UNL     1       6.782  -2.107  -4.995  0.00  0.00    +0.149 HD
BRANCH  30  32
ATOM     32  C   UNL     1       8.618  -2.609  -5.937  0.00  0.00    +0.136 C 
BRANCH  32  33
ATOM     33  C   UNL     1       9.084  -1.205  -5.545  0.00  0.00    +0.135 C 
ATOM     34  C   UNL     1      10.484  -0.920  -6.133  0.00  0.00    +0.035 C 
ATOM     35  C   UNL     1      11.194  -0.101  -5.031  0.00  0.00    +0.031 C 
ATOM     36  C   UNL     1      10.139   0.012  -3.909  0.00  0.00    +0.160 C 
ATOM     37  O   UNL     1       9.259  -1.115  -4.114  0.00  0.00    -0.375 OA
ENDBRANCH  32  33
ENDBRANCH  30  32
ENDBRANCH  25  28
ENDBRANCH  21  22
ENDBRANCH   9  21
TORSDOF 8
