REMARK  Name = ZINC04895348
REMARK  8 active torsions:
REMARK  status: ('A' for Active; 'I' for Inactive)
REMARK    1  A    between atoms: C_1  and  C_2
REMARK    2  A    between atoms: C_2  and  C_3
REMARK    3  A    between atoms: C_6  and  N_9
REMARK    4  A    between atoms: C_13  and  S_15
REMARK    5  A    between atoms: S_15  and  C_16
REMARK    6  A    between atoms: C_16  and  C_18
REMARK    7  A    between atoms: C_16  and  C_19
REMARK    8  A    between atoms: N_24  and  C_25
REMARK                            x       y       z     vdW  Elec       q    Type
REMARK                         _______ _______ _______ _____ _____    ______ ____
ROOT
ATOM      1  N   UNL     1      -8.819  -0.966  -1.256  0.00  0.00    -0.292 N 
ATOM      2  C   UNL     1      -7.590  -0.452  -0.857  0.00  0.00    +0.187 A 
ATOM      3  N   UNL     1      -6.545  -1.081  -0.355  0.00  0.00    -0.125 NA
ATOM      4  N   UNL     1      -5.412  -0.372  -0.028  0.00  0.00    -0.133 NA
ATOM      5  C   UNL     1      -5.380   0.935  -0.209  0.00  0.00    +0.161 A 
ATOM      6  S   UNL     1      -7.005   1.236  -0.886  0.00  0.00    -0.024 S 
ATOM      7  H   UNL     1      -9.467  -0.390  -1.691  0.00  0.00    +0.154 HD
ENDROOT
BRANCH   1  11
ATOM      8  C   UNL     1      -9.715  -4.977  -0.587  0.00  0.00    -0.048 A 
ATOM      9  C   UNL     1      -8.807  -4.328   0.229  0.00  0.00    +0.005 A 
ATOM     10  C   UNL     1      -8.507  -2.998   0.010  0.00  0.00    +0.023 A 
ATOM     11  C   UNL     1      -9.119  -2.312  -1.032  0.00  0.00    +0.033 A 
ATOM     12  C   UNL     1     -10.036  -2.966  -1.846  0.00  0.00    +0.023 A 
ATOM     13  C   UNL     1     -10.326  -4.297  -1.625  0.00  0.00    +0.005 A 
BRANCH   8  15
ATOM     14  C   UNL     1     -11.220  -6.534   0.622  0.00  0.00    +0.009 C 
ATOM     15  C   UNL     1     -10.039  -6.429  -0.345  0.00  0.00    +0.032 C 
ENDBRANCH   8  15
ENDBRANCH   1  11
BRANCH   5  16
ATOM     16  S   UNL     1      -4.079   2.076   0.122  0.00  0.00    -0.084 S 
BRANCH  16  17
ATOM     17  C   UNL     1      -2.749   1.043   0.796  0.00  0.00    +0.136 C 
ATOM     18  C   UNL     1      -3.196   0.443   2.131  0.00  0.00    +0.029 C 
BRANCH  17  19
ATOM     19  C   UNL     1      -1.519   1.886   1.011  0.00  0.00    +0.233 C 
ATOM     20  O   UNL     1      -1.625   3.081   1.183  0.00  0.00    -0.274 OA
ATOM     21  N   UNL     1      -0.300   1.311   1.013  0.00  0.00    -0.239 N 
ATOM     22  C   UNL     1       0.801   2.065   1.200  0.00  0.00    +0.306 C 
ATOM     23  O   UNL     1       0.695   3.264   1.372  0.00  0.00    -0.252 OA
ATOM     24  N   UNL     1       2.020   1.490   1.197  0.00  0.00    -0.302 N 
ATOM     25  C   UNL     1       3.217   2.311   1.400  0.00  0.00    +0.129 C 
ATOM     26  H   UNL     1      -0.215   0.354   0.876  0.00  0.00    +0.159 HD
ATOM     27  H   UNL     1       2.105   0.534   1.060  0.00  0.00    +0.150 HD
ENDBRANCH  17  19
ENDBRANCH  16  17
ENDBRANCH   5  16
TORSDOF 5
