REMARK  Name = ZINC02244858
REMARK  11 active torsions:
REMARK  status: ('A' for Active; 'I' for Inactive)
REMARK    1  A    between atoms: C_1  and  C_2
REMARK    2  A    between atoms: C_2  and  C_37
REMARK    3  A    between atoms: C_9  and  C_22
REMARK    4  A    between atoms: C_9  and  N_26
REMARK    5  A    between atoms: N_12  and  C_13
REMARK    6  A    between atoms: C_13  and  C_14
REMARK    7  A    between atoms: C_17  and  O_20
REMARK    8  A    between atoms: O_20  and  C_21
REMARK    9  A    between atoms: C_27  and  C_29
REMARK   10  A    between atoms: C_33  and  O_35
REMARK   11  A    between atoms: O_35  and  C_36
REMARK                            x       y       z     vdW  Elec       q    Type
REMARK                         _______ _______ _______ _____ _____    ______ ____
ROOT
ATOM      1  C   UNL     1      -3.714  -5.679   0.283  0.00  0.00    +0.011 C 
ATOM      2  C   UNL     1      -4.556  -4.713  -0.553  0.00  0.00    -0.023 C 
ATOM      3  C   UNL     1      -3.748  -4.263  -1.776  0.00  0.00    +0.058 C 
ATOM      4  C   UNL     1      -2.550  -3.476  -1.285  0.00  0.00    +0.024 C 
ATOM      5  C   UNL     1      -2.576  -2.806  -0.101  0.00  0.00    +0.053 C 
ATOM      6  C   UNL     1      -3.691  -2.778   0.750  0.00  0.00    +0.164 C 
ATOM      7  O   UNL     1      -3.655  -2.189   1.812  0.00  0.00    -0.292 OA
ATOM      8  C   UNL     1      -4.940  -3.505   0.303  0.00  0.00    +0.086 C 
ATOM      9  C   UNL     1      -1.230  -2.156   0.060  0.00  0.00    +0.237 C 
ATOM     10  C   UNL     1      -0.492  -2.569  -1.201  0.00  0.00    +0.257 C 
ATOM     11  O   UNL     1       0.642  -2.274  -1.511  0.00  0.00    -0.272 OA
ATOM     12  N   UNL     1      -1.352  -3.330  -1.907  0.00  0.00    -0.268 N 
ATOM     13  C   UNL     1      -5.826  -5.427  -1.020  0.00  0.00    +0.011 C 
ENDROOT
BRANCH   9  14
ATOM     14  C   UNL     1      -0.518  -2.688   1.305  0.00  0.00    +0.424 C 
ATOM     15  F   UNL     1      -1.206  -2.270   2.450  0.00  0.00    -0.167 F 
ATOM     16  F   UNL     1      -0.490  -4.087   1.264  0.00  0.00    -0.167 F 
ATOM     17  F   UNL     1       0.790  -2.196   1.341  0.00  0.00    -0.167 F 
ENDBRANCH   9  14
BRANCH   9  18
ATOM     18  N   UNL     1      -1.364  -0.699   0.126  0.00  0.00    -0.287 N 
ATOM     19  C   UNL     1      -1.958  -0.030  -0.882  0.00  0.00    +0.245 C 
ATOM     20  O   UNL     1      -2.307  -0.624  -1.883  0.00  0.00    -0.270 OA
ATOM     21  H   UNL     1      -1.025  -0.215   0.896  0.00  0.00    +0.151 HD
BRANCH  19  22
ATOM     22  C   UNL     1      -2.186   1.427  -0.769  0.00  0.00    +0.040 A 
ATOM     23  C   UNL     1      -1.792   2.111   0.382  0.00  0.00    +0.013 A 
ATOM     24  C   UNL     1      -2.001   3.471   0.481  0.00  0.00    +0.004 A 
ATOM     25  C   UNL     1      -2.611   4.158  -0.552  0.00  0.00    +0.045 A 
ATOM     26  C   UNL     1      -3.012   3.486  -1.698  0.00  0.00    +0.121 A 
ATOM     27  C   UNL     1      -2.801   2.121  -1.811  0.00  0.00    +0.058 A 
BRANCH  26  28
ATOM     28  O   UNL     1      -3.610   4.166  -2.711  0.00  0.00    -0.495 OA
ATOM     29  C   UNL     1      -3.795   5.571  -2.528  0.00  0.00    +0.277 C 
ENDBRANCH  26  28
ENDBRANCH  19  22
ENDBRANCH   9  18
BRANCH  12  30
ATOM     30  C   UNL     1      -1.029  -3.934  -3.203  0.00  0.00    +0.148 C 
BRANCH  30  31
ATOM     31  C   UNL     1      -1.403  -2.982  -4.309  0.00  0.00    -0.029 A 
ATOM     32  C   UNL     1      -2.667  -3.033  -4.866  0.00  0.00    +0.009 A 
ATOM     33  C   UNL     1      -3.014  -2.157  -5.876  0.00  0.00    +0.046 A 
ATOM     34  C   UNL     1      -2.089  -1.232  -6.339  0.00  0.00    +0.120 A 
ATOM     35  C   UNL     1      -0.819  -1.187  -5.782  0.00  0.00    +0.046 A 
ATOM     36  C   UNL     1      -0.479  -2.061  -4.768  0.00  0.00    +0.009 A 
BRANCH  34  37
ATOM     37  O   UNL     1      -2.426  -0.374  -7.337  0.00  0.00    -0.495 OA
ATOM     38  C   UNL     1      -3.751  -0.478  -7.863  0.00  0.00    +0.277 C 
ENDBRANCH  34  37
ENDBRANCH  30  31
ENDBRANCH  12  30
TORSDOF 7
