REMARK  Name = ZINC63144215
REMARK  5 active torsions:
REMARK  status: ('A' for Active; 'I' for Inactive)
REMARK    1  A    between atoms: C_1  and  C_2
REMARK    2  A    between atoms: C_5  and  C_8
REMARK    3  A    between atoms: C_8  and  N_9
REMARK    4  A    between atoms: C_10  and  C_12
REMARK    5  A    between atoms: C_17  and  N_18
REMARK                            x       y       z     vdW  Elec       q    Type
REMARK                         _______ _______ _______ _____ _____    ______ ____
ROOT
ATOM      1  N   UNL     1      -1.456  -0.599   4.956  0.00  0.00    -0.311 N 
ATOM      2  C   UNL     1      -1.941  -0.325   6.184  0.00  0.00    +0.246 C 
ATOM      3  O   UNL     1      -2.900   0.411   6.309  0.00  0.00    -0.270 OA
ATOM      4  H   UNL     1      -0.691  -1.186   4.856  0.00  0.00    +0.149 HD
ENDROOT
BRANCH   2   5
ATOM      5  C   UNL     1      -1.307  -0.919   7.375  0.00  0.00    +0.060 A 
ATOM      6  C   UNL     1      -0.285  -1.861   7.232  0.00  0.00    +0.053 A 
ATOM      7  C   UNL     1       0.304  -2.412   8.351  0.00  0.00    +0.124 A 
ATOM      8  C   UNL     1      -0.114  -2.035   9.620  0.00  0.00    +0.040 A 
ATOM      9  C   UNL     1      -1.122  -1.107   9.775  0.00  0.00    +0.026 A 
ATOM     10  C   UNL     1      -1.723  -0.537   8.660  0.00  0.00    +0.037 A 
ATOM     11  F   UNL     1       1.292  -3.323   8.211  0.00  0.00    -0.205 F 
BRANCH  10  12
ATOM     12  N   UNL     1      -2.735   0.403   8.815  0.00  0.00    -0.357 N 
ATOM     13  H   UNL     1      -3.209   0.738   8.038  0.00  0.00    +0.142 HD
ATOM     14  H   UNL     1      -2.966   0.725   9.701  0.00  0.00    +0.142 HD
ENDBRANCH  10  12
ENDBRANCH   2   5
BRANCH   1  15
ATOM     15  C   UNL     1      -2.086  -0.009   3.772  0.00  0.00    +0.108 C 
BRANCH  15  20
ATOM     16  C   UNL     1       0.047   1.646   0.059  0.00  0.00    +0.007 C 
ATOM     17  C   UNL     1       0.086   0.116   0.031  0.00  0.00    -0.014 C 
ATOM     18  C   UNL     1      -1.342  -0.431   0.018  0.00  0.00    +0.003 C 
ATOM     19  C   UNL     1      -2.080   0.037   1.274  0.00  0.00    +0.005 C 
ATOM     20  C   UNL     1      -1.349  -0.477   2.516  0.00  0.00    +0.006 C 
ATOM     21  C   UNL     1       0.080   0.070   2.529  0.00  0.00    +0.005 C 
ATOM     22  C   UNL     1       0.818  -0.398   1.273  0.00  0.00    +0.003 C 
ENDBRANCH  15  20
ENDBRANCH   1  15
TORSDOF 4
