REMARK  Name = ZINC17157520
REMARK  7 active torsions:
REMARK  status: ('A' for Active; 'I' for Inactive)
REMARK    1  A    between atoms: C_1  and  C_2
REMARK    2  A    between atoms: C_5  and  S_9
REMARK    3  A    between atoms: C_6  and  C_8
REMARK    4  A    between atoms: S_9  and  N_12
REMARK    5  A    between atoms: C_15  and  C_18
REMARK    6  A    between atoms: N_20  and  N_21
REMARK    7  A    between atoms: C_22  and  C_24
REMARK                            x       y       z     vdW  Elec       q    Type
REMARK                         _______ _______ _______ _____ _____    ______ ____
ROOT
ATOM      1  C   UNL     1       0.135   1.528   0.236  0.00  0.00    +0.232 C 
ATOM      2  O   UNL     1       0.158   0.332   0.039  0.00  0.00    -0.274 OA
ATOM      3  N   UNL     1       1.286   2.201   0.432  0.00  0.00    -0.234 N 
ATOM      4  H   UNL     1       1.268   3.158   0.590  0.00  0.00    +0.173 HD
ENDROOT
BRANCH   1   8
ATOM      5  N   UNL     1      -3.779   2.790   1.240  0.00  0.00    -0.177 NA
ATOM      6  C   UNL     1      -3.653   2.031  -0.012  0.00  0.00    +0.110 C 
ATOM      7  C   UNL     1      -2.321   1.275   0.002  0.00  0.00    +0.030 C 
ATOM      8  C   UNL     1      -1.181   2.263   0.256  0.00  0.00    +0.079 C 
ATOM      9  C   UNL     1      -1.373   2.928   1.621  0.00  0.00    +0.030 C 
ATOM     10  C   UNL     1      -2.694   3.703   1.625  0.00  0.00    +0.110 C 
BRANCH   5  11
ATOM     11  S   UNL     1      -5.119   2.619   2.199  0.00  0.00    +0.061 S 
ATOM     12  O   UNL     1      -5.283   3.850   2.890  0.00  0.00    -0.153 OA
ATOM     13  O   UNL     1      -6.138   2.064   1.379  0.00  0.00    -0.153 OA
BRANCH  11  18
ATOM     14  C   UNL     1      -3.810  -1.539   6.370  0.00  0.00    +0.044 C 
ATOM     15  C   UNL     1      -4.136  -0.500   5.328  0.00  0.00    -0.050 A 
ATOM     16  C   UNL     1      -4.320   0.818   5.701  0.00  0.00    +0.005 A 
ATOM     17  C   UNL     1      -4.620   1.771   4.745  0.00  0.00    +0.029 A 
ATOM     18  C   UNL     1      -4.736   1.405   3.417  0.00  0.00    +0.108 A 
ATOM     19  C   UNL     1      -4.557   0.086   3.046  0.00  0.00    -0.024 A 
ATOM     20  C   UNL     1      -4.252  -0.866   4.000  0.00  0.00    +0.008 A 
ATOM     21  C   UNL     1      -4.689  -0.314   1.599  0.00  0.00    +0.046 C 
ENDBRANCH  11  18
ENDBRANCH   5  11
ENDBRANCH   1   8
BRANCH   3  22
ATOM     22  N   UNL     1       2.509   1.518   0.409  0.00  0.00    -0.234 N 
ATOM     23  C   UNL     1       3.660   2.191   0.605  0.00  0.00    +0.235 C 
ATOM     24  O   UNL     1       3.637   3.387   0.802  0.00  0.00    -0.274 OA
ATOM     25  H   UNL     1       2.527   0.561   0.251  0.00  0.00    +0.173 HD
BRANCH  23  26
ATOM     26  C   UNL     1       4.976   1.456   0.579  0.00  0.00    +0.049 C 
ATOM     27  C   UNL     1       4.983   0.385   1.671  0.00  0.00    +0.019 C 
ATOM     28  C   UNL     1       6.319  -0.361   1.645  0.00  0.00    -0.009 C 
ATOM     29  C   UNL     1       7.460   0.628   1.893  0.00  0.00    +0.007 C 
ATOM     30  C   UNL     1       7.453   1.700   0.801  0.00  0.00    -0.009 C 
ATOM     31  C   UNL     1       6.117   2.445   0.827  0.00  0.00    +0.019 C 
ATOM     32  C   UNL     1       7.640   1.037  -0.565  0.00  0.00    +0.007 C 
ATOM     33  C   UNL     1       6.499   0.048  -0.813  0.00  0.00    -0.009 C 
ATOM     34  C   UNL     1       6.507  -1.024   0.279  0.00  0.00    +0.007 C 
ATOM     35  C   UNL     1       5.163   0.793  -0.787  0.00  0.00    +0.019 C 
ENDBRANCH  23  26
ENDBRANCH   3  22
TORSDOF 5
