REMARK  Name = ZINC40323057
REMARK  9 active torsions:
REMARK  status: ('A' for Active; 'I' for Inactive)
REMARK    1  A    between atoms: C_1  and  N_2
REMARK    2  A    between atoms: N_2  and  C_3
REMARK    3  A    between atoms: N_2  and  C_4
REMARK    4  A    between atoms: C_4  and  C_6
REMARK    5  A    between atoms: C_4  and  C_25
REMARK    6  A    between atoms: C_6  and  N_7
REMARK    7  A    between atoms: C_8  and  C_10
REMARK    8  A    between atoms: C_13  and  S_15
REMARK    9  A    between atoms: S_15  and  C_18
REMARK                            x       y       z     vdW  Elec       q    Type
REMARK                         _______ _______ _______ _____ _____    ______ ____
ROOT
ATOM      1  N   UNL     1      -1.702   1.302  -1.405  0.00  0.00    -0.310 N 
ATOM      2  C   UNL     1      -2.076   1.923  -2.541  0.00  0.00    +0.279 C 
ATOM      3  O   UNL     1      -2.647   1.300  -3.416  0.00  0.00    -0.267 OA
ATOM      4  H   UNL     1      -1.246   1.799  -0.708  0.00  0.00    +0.149 HD
ENDROOT
BRANCH   2   5
ATOM      5  C   UNL     1      -1.794   3.351  -2.723  0.00  0.00    +0.192 A 
ATOM      6  C   UNL     1      -2.122   4.101  -3.816  0.00  0.00    +0.056 A 
ATOM      7  C   UNL     1      -1.667   5.404  -3.562  0.00  0.00    +0.070 A 
ATOM      8  C   UNL     1      -1.089   5.393  -2.341  0.00  0.00    +0.246 A 
ATOM      9  O   UNL     1      -1.172   4.155  -1.836  0.00  0.00    -0.433 OA
BRANCH   8  10
ATOM     10  S   UNL     1      -0.351   6.780  -1.542  0.00  0.00    +0.058 S 
ATOM     11  O   UNL     1       0.585   6.260  -0.608  0.00  0.00    -0.161 OA
ATOM     12  O   UNL     1       0.021   7.689  -2.568  0.00  0.00    -0.161 OA
BRANCH  10  13
ATOM     13  C   UNL     1      -1.614   7.571  -0.601  0.00  0.00    +0.097 A 
ATOM     14  C   UNL     1      -2.384   8.564  -1.177  0.00  0.00    +0.028 A 
ATOM     15  C   UNL     1      -3.375   9.185  -0.439  0.00  0.00    +0.017 A 
ATOM     16  C   UNL     1      -3.596   8.812   0.874  0.00  0.00    +0.018 A 
ATOM     17  C   UNL     1      -2.825   7.818   1.449  0.00  0.00    +0.017 A 
ATOM     18  C   UNL     1      -1.838   7.194   0.710  0.00  0.00    +0.028 A 
ATOM     19 BR   UNL     1      -4.951   9.661   1.883  0.00  0.00    -0.050 Br
ENDBRANCH  10  13
ENDBRANCH   8  10
ENDBRANCH   2   5
BRANCH   1  20
ATOM     20  C   UNL     1      -1.983  -0.125  -1.224  0.00  0.00    +0.094 C 
BRANCH  20  21
ATOM     21  C   UNL     1      -1.353  -0.606   0.085  0.00  0.00    -0.020 C 
BRANCH  21  22
ATOM     22  C   UNL     1       0.147  -0.502  -0.012  0.00  0.00    -0.041 A 
ATOM     23  C   UNL     1       0.805   0.566   0.570  0.00  0.00    +0.003 A 
ATOM     24  C   UNL     1       2.181   0.661   0.481  0.00  0.00    +0.000 A 
ATOM     25  C   UNL     1       2.901  -0.311  -0.189  0.00  0.00    +0.001 A 
ATOM     26  C   UNL     1       2.244  -1.379  -0.770  0.00  0.00    +0.020 A 
ATOM     27  C   UNL     1       0.868  -1.478  -0.677  0.00  0.00    +0.043 A 
ATOM     28 CL   UNL     1       0.043  -2.823  -1.402  0.00  0.00    -0.083 Cl
ENDBRANCH  21  22
BRANCH  21  30
ATOM     29  C   UNL     1      -3.300   0.231   1.207  0.00  0.00    -0.096 C 
ATOM     30  N   UNL     1      -1.831   0.228   1.195  0.00  0.00    +0.382 N 
ATOM     31  C   UNL     1      -1.332  -0.314   2.465  0.00  0.00    -0.096 C 
ATOM     32  H   UNL     1      -1.494   1.172   1.076  0.00  0.00    -0.082 HD
ENDBRANCH  21  30
ENDBRANCH  20  21
ENDBRANCH   1  20
TORSDOF 7
