REMARK  Name = ZINC03875340
REMARK  5 active torsions:
REMARK  status: ('A' for Active; 'I' for Inactive)
REMARK    1  A    between atoms: C_1  and  C_2
REMARK    2  A    between atoms: C_10  and  O_24
REMARK    3  A    between atoms: C_21  and  O_23
REMARK    4  A    between atoms: O_24  and  C_25
REMARK    5  A    between atoms: C_25  and  C_27
REMARK                            x       y       z     vdW  Elec       q    Type
REMARK                         _______ _______ _______ _____ _____    ______ ____
ROOT
ATOM      1  C   UNL     1      -2.963   1.125   0.580  0.00  0.00    +0.014 C 
ATOM      2  C   UNL     1      -1.862   2.173   0.757  0.00  0.00    -0.003 C 
ATOM      3  C   UNL     1      -2.398   3.342   1.556  0.00  0.00    +0.010 C 
ATOM      4  C   UNL     1      -3.647   3.873   0.828  0.00  0.00    +0.009 C 
ATOM      5  C   UNL     1      -3.310   4.261  -0.604  0.00  0.00    +0.023 C 
ATOM      6  C   UNL     1      -4.508   4.785  -1.341  0.00  0.00    -0.041 A 
ATOM      7  C   UNL     1      -5.446   5.521  -0.630  0.00  0.00    +0.008 A 
ATOM      8  C   UNL     1      -6.560   6.034  -1.260  0.00  0.00    +0.046 A 
ATOM      9  C   UNL     1      -6.744   5.814  -2.618  0.00  0.00    +0.132 A 
ATOM     10  C   UNL     1      -5.811   5.077  -3.325  0.00  0.00    +0.050 A 
ATOM     11  C   UNL     1      -4.692   4.556  -2.689  0.00  0.00    -0.040 A 
ATOM     12  C   UNL     1      -3.732   3.744  -3.518  0.00  0.00    +0.036 C 
ATOM     13  C   UNL     1      -2.398   3.556  -2.796  0.00  0.00    +0.009 C 
ATOM     14  C   UNL     1      -2.687   3.086  -1.371  0.00  0.00    +0.000 C 
ATOM     15  C   UNL     1      -1.420   2.703  -0.636  0.00  0.00    +0.001 C 
ATOM     16  C   UNL     1      -0.655   1.498  -1.194  0.00  0.00    +0.007 C 
ATOM     17  C   UNL     1       0.157   1.002   0.034  0.00  0.00    +0.032 C 
ATOM     18  C   UNL     1      -0.604   1.494   1.290  0.00  0.00    +0.121 C 
ENDROOT
BRANCH  18  19
ATOM     19  O   UNL     1       0.194   2.429   2.018  0.00  0.00    -0.391 OA
ATOM     20  H   UNL     1       1.027   2.064   2.346  0.00  0.00    +0.210 HD
ENDBRANCH  18  19
BRANCH   9  21
ATOM     21  O   UNL     1      -7.837   6.318  -3.249  0.00  0.00    -0.422 OA
BRANCH  21  22
ATOM     22  C   UNL     1      -8.823   5.452  -3.552  0.00  0.00    +0.344 C 
ATOM     23  O   UNL     1      -8.755   4.299  -3.176  0.00  0.00    -0.245 OA
BRANCH  22  24
ATOM     24  C   UNL     1      -9.986   5.904  -4.342  0.00  0.00    +0.059 A 
ATOM     25  C   UNL     1     -10.070   7.230  -4.771  0.00  0.00    +0.015 A 
ATOM     26  C   UNL     1     -11.157   7.644  -5.514  0.00  0.00    +0.001 A 
ATOM     27  C   UNL     1     -12.168   6.751  -5.823  0.00  0.00    +0.000 A 
ATOM     28  C   UNL     1     -12.094   5.437  -5.396  0.00  0.00    +0.001 A 
ATOM     29  C   UNL     1     -11.010   5.008  -4.658  0.00  0.00    +0.015 A 
ENDBRANCH  22  24
ENDBRANCH  21  22
ENDBRANCH   9  21
TORSDOF 4
