REMARK  Name = ZINC18029977
REMARK  3 active torsions:
REMARK  status: ('A' for Active; 'I' for Inactive)
REMARK    1  A    between atoms: C_1  and  C_2
REMARK    2  A    between atoms: C_5  and  C_26
REMARK    3  A    between atoms: C_5  and  C_27
REMARK                            x       y       z     vdW  Elec       q    Type
REMARK                         _______ _______ _______ _____ _____    ______ ____
ROOT
ATOM      1  C   UNL     1      -0.019   1.526   0.010  0.00  0.00    +0.012 C 
ATOM      2  C   UNL     1       0.002  -0.004   0.002  0.00  0.00    +0.020 C 
ATOM      3  C   UNL     1      -1.436  -0.533   0.011  0.00  0.00    +0.033 C 
ATOM      4  C   UNL     1      -1.478  -2.065   0.072  0.00  0.00    +0.037 C 
ATOM      5  N   UNL     1      -0.719  -2.503   1.256  0.00  0.00    -0.262 N 
ATOM      6  C   UNL     1       0.316  -1.718   1.755  0.00  0.00    +0.048 A 
ATOM      7  C   UNL     1       0.730  -0.500   1.217  0.00  0.00    -0.023 A 
ATOM      8  C   UNL     1       1.771   0.136   1.850  0.00  0.00    +0.006 A 
ATOM      9  C   UNL     1       2.367  -0.427   2.969  0.00  0.00    +0.001 A 
ATOM     10  C   UNL     1       1.954  -1.645   3.505  0.00  0.00    +0.010 A 
ATOM     11  C   UNL     1       0.912  -2.285   2.873  0.00  0.00    +0.025 A 
ATOM     12  C   UNL     1       0.176  -3.565   3.104  0.00  0.00    +0.206 C 
ATOM     13  C   UNL     1      -0.865  -3.614   1.995  0.00  0.00    +0.267 C 
ATOM     14  O   UNL     1      -1.677  -4.495   1.812  0.00  0.00    -0.271 OA
ATOM     15  N   UNL     1       1.072  -4.716   2.978  0.00  0.00    -0.312 N 
ATOM     16  C   UNL     1       1.867  -5.066   4.064  0.00  0.00    +0.041 A 
ATOM     17  C   UNL     1       3.088  -5.697   3.902  0.00  0.00    +0.024 A 
ATOM     18  C   UNL     1       3.842  -6.022   5.013  0.00  0.00    +0.002 A 
ATOM     19  C   UNL     1       3.386  -5.722   6.287  0.00  0.00    +0.001 A 
ATOM     20  C   UNL     1       2.171  -5.095   6.466  0.00  0.00    +0.015 A 
ATOM     21  C   UNL     1       1.400  -4.761   5.355  0.00  0.00    +0.058 A 
ATOM     22  C   UNL     1       0.091  -4.097   5.492  0.00  0.00    +0.248 C 
ATOM     23  O   UNL     1      -0.454  -4.032   6.577  0.00  0.00    -0.270 OA
ATOM     24  N   UNL     1      -0.495  -3.560   4.401  0.00  0.00    -0.279 N 
ATOM     25  C   UNL     1      -0.845  -2.649  -1.192  0.00  0.00    +0.032 C 
ATOM     26  C   UNL     1      -2.930  -2.535   0.187  0.00  0.00    +0.032 C 
ATOM     27  H   UNL     1       1.109  -5.225   2.153  0.00  0.00    +0.149 HD
ATOM     28  H   UNL     1      -1.377  -3.164   4.481  0.00  0.00    +0.152 HD
ENDROOT
TORSDOF 0
