REMARK  Name = ZINC02793668
REMARK  10 active torsions:
REMARK  status: ('A' for Active; 'I' for Inactive)
REMARK    1  A    between atoms: C_1  and  C_2
REMARK    2  A    between atoms: C_2  and  N_3
REMARK    3  A    between atoms: C_4  and  C_14
REMARK    4  A    between atoms: C_7  and  S_8
REMARK    5  A    between atoms: S_8  and  C_9
REMARK    6  A    between atoms: C_9  and  C_10
REMARK    7  A    between atoms: C_10  and  O_12
REMARK    8  A    between atoms: O_12  and  C_13
REMARK    9  A    between atoms: C_17  and  O_20
REMARK   10  A    between atoms: O_20  and  C_21
REMARK                            x       y       z     vdW  Elec       q    Type
REMARK                         _______ _______ _______ _____ _____    ______ ____
ROOT
ATOM      1  N   UNL     1       1.354  -1.505  -1.984  0.00  0.00    -0.302 N 
ATOM      2  C   UNL     1       1.989  -1.188  -3.163  0.00  0.00    +0.165 A 
ATOM      3  N   UNL     1       1.812   0.098  -3.362  0.00  0.00    -0.128 NA
ATOM      4  N   UNL     1       1.116   0.599  -2.405  0.00  0.00    -0.122 NA
ATOM      5  C   UNL     1       0.806  -0.337  -1.536  0.00  0.00    +0.192 A 
ENDROOT
BRANCH   2   6
ATOM      6  C   UNL     1       2.735  -2.118  -4.037  0.00  0.00    +0.020 A 
ATOM      7  C   UNL     1       3.649  -1.622  -4.968  0.00  0.00    +0.015 A 
ATOM      8  C   UNL     1       4.346  -2.493  -5.778  0.00  0.00    +0.046 A 
ATOM      9  C   UNL     1       4.132  -3.861  -5.676  0.00  0.00    +0.127 A 
ATOM     10  C   UNL     1       3.220  -4.358  -4.755  0.00  0.00    +0.046 A 
ATOM     11  C   UNL     1       2.523  -3.494  -3.938  0.00  0.00    +0.015 A 
BRANCH   9  12
ATOM     12  O   UNL     1       4.817  -4.715  -6.480  0.00  0.00    -0.434 OA
BRANCH  12  13
ATOM     13  C   UNL     1       5.740  -4.137  -7.405  0.00  0.00    +0.541 C 
ATOM     14  F   UNL     1       5.056  -3.275  -8.269  0.00  0.00    -0.166 F 
ATOM     15  F   UNL     1       6.714  -3.418  -6.704  0.00  0.00    -0.166 F 
ENDBRANCH  12  13
ENDBRANCH   9  12
ENDBRANCH   2   6
BRANCH   1  17
ATOM     16  C   UNL     1      -0.004  -3.529  -1.784  0.00  0.00    +0.027 C 
ATOM     17  C   UNL     1       1.279  -2.821  -1.345  0.00  0.00    +0.122 C 
ENDBRANCH   1  17
BRANCH   5  18
ATOM     18  S   UNL     1      -0.137  -0.123  -0.062  0.00  0.00    -0.075 S 
BRANCH  18  19
ATOM     19  C   UNL     1      -0.484   1.651  -0.166  0.00  0.00    +0.197 C 
BRANCH  19  20
ATOM     20  C   UNL     1      -1.304   2.072   1.026  0.00  0.00    +0.317 C 
ATOM     21  O   UNL     1      -1.621   1.258   1.860  0.00  0.00    -0.250 OA
BRANCH  20  22
ATOM     22  O   UNL     1      -1.682   3.353   1.161  0.00  0.00    -0.467 OA
ATOM     23  C   UNL     1      -2.470   3.688   2.334  0.00  0.00    +0.280 C 
ENDBRANCH  20  22
ENDBRANCH  19  20
ENDBRANCH  18  19
ENDBRANCH   5  18
TORSDOF 8
