REMARK  Name = ZINC63375961
REMARK  6 active torsions:
REMARK  status: ('A' for Active; 'I' for Inactive)
REMARK    1  A    between atoms: C_1  and  C_2
REMARK    2  A    between atoms: C_13  and  C_16
REMARK    3  A    between atoms: C_16  and  C_17
REMARK    4  A    between atoms: N_28  and  C_31
REMARK    5  A    between atoms: C_34  and  O_37
REMARK    6  A    between atoms: O_37  and  C_38
REMARK                            x       y       z     vdW  Elec       q    Type
REMARK                         _______ _______ _______ _____ _____    ______ ____
ROOT
ATOM      1  C   UNL     1       1.026   1.547   0.468  0.00  0.00    +0.044 C 
ATOM      2  C   UNL     1       0.955   0.043   0.398  0.00  0.00    -0.050 A 
ATOM      3  C   UNL     1       1.156  -0.605  -0.807  0.00  0.00    +0.005 A 
ATOM      4  C   UNL     1       1.091  -1.981  -0.877  0.00  0.00    +0.024 A 
ATOM      5  C   UNL     1       0.824  -2.729   0.267  0.00  0.00    +0.039 A 
ATOM      6  C   UNL     1       0.624  -2.066   1.474  0.00  0.00    +0.004 A 
ATOM      7  C   UNL     1       0.694  -0.692   1.540  0.00  0.00    +0.011 A 
ATOM      8  C   UNL     1       0.364  -3.138   2.494  0.00  0.00    +0.136 C 
ATOM      9  C   UNL     1      -1.007  -2.961   3.158  0.00  0.00    +0.123 C 
ATOM     10  C   UNL     1      -0.788  -3.405   4.631  0.00  0.00    +0.107 C 
ATOM     11  C   UNL     1       0.690  -3.840   4.699  0.00  0.00    +0.072 C 
ATOM     12  N   UNL     1       1.353  -3.096   3.587  0.00  0.00    -0.295 NA
ATOM     13  C   UNL     1      -0.986  -2.127   5.414  0.00  0.00    +0.232 C 
ATOM     14  O   UNL     1      -0.891  -2.021   6.618  0.00  0.00    -0.274 OA
ATOM     15  N   UNL     1      -1.281  -1.130   4.571  0.00  0.00    -0.210 N 
ATOM     16  C   UNL     1      -1.330  -1.487   3.267  0.00  0.00    +0.233 C 
ATOM     17  O   UNL     1      -1.587  -0.756   2.335  0.00  0.00    -0.274 OA
ATOM     18  C   UNL     1       0.442  -4.432   1.730  0.00  0.00    +0.243 C 
ATOM     19  O   UNL     1       0.292  -5.548   2.179  0.00  0.00    -0.273 OA
ATOM     20  N   UNL     1       0.710  -4.109   0.450  0.00  0.00    -0.283 N 
ATOM     21  H   UNL     1       2.212  -3.550   3.315  0.00  0.00    +0.124 HD
ATOM     22  H   UNL     1       0.812  -4.760  -0.263  0.00  0.00    +0.155 HD
ENDROOT
BRANCH  15  23
ATOM     23  C   UNL     1      -1.526   0.182   5.004  0.00  0.00    +0.044 A 
ATOM     24  C   UNL     1      -0.497   0.936   5.553  0.00  0.00    +0.027 A 
ATOM     25  C   UNL     1      -0.739   2.227   5.978  0.00  0.00    +0.047 A 
ATOM     26  C   UNL     1      -2.009   2.771   5.856  0.00  0.00    +0.120 A 
ATOM     27  C   UNL     1      -3.038   2.018   5.309  0.00  0.00    +0.047 A 
ATOM     28  C   UNL     1      -2.795   0.729   4.878  0.00  0.00    +0.027 A 
BRANCH  26  29
ATOM     29  O   UNL     1      -2.247   4.043   6.275  0.00  0.00    -0.495 OA
ATOM     30  C   UNL     1      -3.578   4.539   6.120  0.00  0.00    +0.277 C 
ENDBRANCH  26  29
ENDBRANCH  15  23
BRANCH  11  31
ATOM     31  C   UNL     1       1.306  -3.428   6.038  0.00  0.00    +0.052 C 
BRANCH  31  32
ATOM     32  C   UNL     1       2.709  -3.968   6.133  0.00  0.00    -0.040 C 
ATOM     33  C   UNL     1       3.854  -3.317   5.824  0.00  0.00    -0.001 A 
ATOM     34  C   UNL     1       4.124  -1.964   5.324  0.00  0.00    +0.010 A 
ATOM     35  C   UNL     1       5.405  -1.590   5.104  0.00  0.00    +0.001 A 
ATOM     36  C   UNL     1       6.478  -2.461   5.339  0.00  0.00    +0.002 A 
ATOM     37  C   UNL     1       6.309  -3.719   5.798  0.00  0.00    +0.026 A 
ATOM     38  C   UNL     1       5.004  -4.218   6.065  0.00  0.00    +0.043 A 
ATOM     39  N   UNL     1       4.587  -5.379   6.506  0.00  0.00    -0.380 N 
ATOM     40  C   UNL     1       3.123  -5.346   6.601  0.00  0.00    +0.144 C 
ATOM     41  H   UNL     1       5.152  -6.134   6.736  0.00  0.00    +0.160 HD
ENDBRANCH  31  32
ENDBRANCH  11  31
TORSDOF 4
