REMARK  Name = ZINC35523026
REMARK  6 active torsions:
REMARK  status: ('A' for Active; 'I' for Inactive)
REMARK    1  A    between atoms: C_5  and  C_7
REMARK    2  A    between atoms: N_16  and  C_17
REMARK    3  A    between atoms: C_17  and  C_18
REMARK    4  A    between atoms: N_20  and  C_21
REMARK    5  A    between atoms: C_21  and  C_22
REMARK    6  A    between atoms: C_22  and  C_23
REMARK                            x       y       z     vdW  Elec       q    Type
REMARK                         _______ _______ _______ _____ _____    ______ ____
ROOT
ATOM      1  C   UNL     1       1.229  -2.186  -0.022  0.00  0.00    +0.012 C 
ATOM      2  C   UNL     1       1.453  -2.684  -1.429  0.00  0.00    +0.009 A 
ATOM      3  C   UNL     1       2.326  -2.234  -2.341  0.00  0.00    +0.021 A 
ATOM      4  C   UNL     1       2.158  -3.014  -3.505  0.00  0.00    +0.019 A 
ATOM      5  C   UNL     1       1.184  -3.915  -3.252  0.00  0.00    +0.086 A 
ATOM      6  N   UNL     1       0.749  -3.722  -1.982  0.00  0.00    -0.353 N 
ATOM      7  C   UNL     1      -0.291  -4.461  -1.255  0.00  0.00    +0.103 C 
ATOM      8  C   UNL     1      -0.133  -4.155   0.239  0.00  0.00    -0.055 C 
ATOM      9  N   UNL     1      -0.068  -2.703   0.448  0.00  0.00    +0.395 N 
ATOM     10  H   UNL     1      -0.813  -2.258  -0.066  0.00  0.00    -0.080 HD
ENDROOT
BRANCH   1  15
ATOM     11  C   UNL     1      -0.017   1.378   0.010  0.00  0.00    +0.000 A 
ATOM     12  C   UNL     1       1.171   2.086   0.002  0.00  0.00    +0.001 A 
ATOM     13  C   UNL     1       2.377   1.412  -0.013  0.00  0.00    +0.020 A 
ATOM     14  C   UNL     1       2.397   0.029  -0.021  0.00  0.00    +0.043 A 
ATOM     15  C   UNL     1       1.208  -0.679  -0.013  0.00  0.00    -0.037 A 
ATOM     16  C   UNL     1       0.002  -0.004   0.002  0.00  0.00    +0.004 A 
ATOM     17 CL   UNL     1       3.912  -0.818  -0.041  0.00  0.00    -0.083 Cl
ENDBRANCH   1  15
BRANCH   9  18
ATOM     18  C   UNL     1      -0.221  -2.408   1.879  0.00  0.00    +0.020 C 
BRANCH  18  19
ATOM     19  C   UNL     1      -1.595  -2.826   2.334  0.00  0.00    +0.197 C 
ATOM     20  O   UNL     1      -2.371  -3.321   1.544  0.00  0.00    -0.278 OA
ATOM     21  N   UNL     1      -1.963  -2.649   3.619  0.00  0.00    -0.317 N 
ATOM     22  H   UNL     1      -1.342  -2.253   4.251  0.00  0.00    +0.149 HD
BRANCH  21  23
ATOM     23  C   UNL     1      -3.299  -3.056   4.061  0.00  0.00    +0.109 C 
BRANCH  23  24
ATOM     24  C   UNL     1      -3.458  -2.748   5.551  0.00  0.00    +0.055 C 
BRANCH  24  25
ATOM     25  C   UNL     1      -4.833  -3.166   6.006  0.00  0.00    -0.027 A 
ATOM     26  C   UNL     1      -5.861  -2.242   6.038  0.00  0.00    +0.006 A 
ATOM     27  C   UNL     1      -7.122  -2.625   6.455  0.00  0.00    +0.020 A 
ATOM     28  C   UNL     1      -7.356  -3.933   6.841  0.00  0.00    +0.042 A 
ATOM     29  C   UNL     1      -6.328  -4.858   6.810  0.00  0.00    +0.040 A 
ATOM     30  C   UNL     1      -5.067  -4.475   6.387  0.00  0.00    +0.046 A 
ATOM     31 CL   UNL     1      -3.777  -5.636   6.342  0.00  0.00    -0.083 Cl
ATOM     32 CL   UNL     1      -8.939  -4.413   7.366  0.00  0.00    -0.083 Cl
ENDBRANCH  24  25
ENDBRANCH  23  24
ENDBRANCH  21  23
ENDBRANCH  18  19
ENDBRANCH   9  18
TORSDOF 6
