REMARK  Name = ZINC25570750
REMARK  12 active torsions:
REMARK  status: ('A' for Active; 'I' for Inactive)
REMARK    1  A    between atoms: C_1  and  C_2
REMARK    2  A    between atoms: C_4  and  C_13
REMARK    3  A    between atoms: C_5  and  C_12
REMARK    4  A    between atoms: C_13  and  C_15
REMARK    5  A    between atoms: C_15  and  S_16
REMARK    6  A    between atoms: S_16  and  C_17
REMARK    7  A    between atoms: C_20  and  C_23
REMARK    8  A    between atoms: N_21  and  N_22
REMARK    9  A    between atoms: C_23  and  O_24
REMARK   10  A    between atoms: O_24  and  C_25
REMARK   11  A    between atoms: C_29  and  O_31
REMARK   12  A    between atoms: O_31  and  C_32
REMARK                            x       y       z     vdW  Elec       q    Type
REMARK                         _______ _______ _______ _____ _____    ______ ____
ROOT
ATOM      1  C   UNL     1       0.044  -4.627  -5.421  0.00  0.00    +0.209 A 
ATOM      2  N   UNL     1       0.031  -3.454  -6.012  0.00  0.00    -0.121 NA
ATOM      3  N   UNL     1       0.026  -3.607  -7.288  0.00  0.00    -0.128 NA
ATOM      4  C   UNL     1       0.035  -4.876  -7.586  0.00  0.00    +0.189 A 
ATOM      5  N   UNL     1       0.053  -5.571  -6.408  0.00  0.00    -0.225 N 
ENDROOT
BRANCH   5   6
ATOM      6  N   UNL     1       0.072  -6.928  -6.251  0.00  0.00    -0.295 N 
ATOM      7  H   UNL     1      -0.865  -7.300  -6.206  0.00  0.00    +0.163 HD
ATOM      8  H   UNL     1       0.602  -7.369  -6.987  0.00  0.00    +0.163 HD
ENDBRANCH   5   6
BRANCH   1   9
ATOM      9  S   UNL     1       0.055  -4.925  -3.685  0.00  0.00    -0.077 S 
BRANCH   9  10
ATOM     10  C   UNL     1       0.035  -3.265  -2.954  0.00  0.00    +0.157 C 
BRANCH  10  11
ATOM     11  C   UNL     1       0.043  -3.378  -1.451  0.00  0.00    +0.175 C 
ATOM     12  O   UNL     1       0.060  -4.471  -0.925  0.00  0.00    -0.291 OA
BRANCH  11  16
ATOM     13  C   UNL     1      -0.018   1.503   0.010  0.00  0.00    +0.064 C 
ATOM     14  C   UNL     1       0.002  -0.004   0.002  0.00  0.00    +0.023 A 
ATOM     15  C   UNL     1       0.008  -0.777  -1.097  0.00  0.00    +0.034 A 
ATOM     16  C   UNL     1       0.029  -2.169  -0.626  0.00  0.00    +0.039 A 
ATOM     17  C   UNL     1       0.035  -2.103   0.754  0.00  0.00    +0.033 A 
ATOM     18  N   UNL     1       0.024  -0.803   1.112  0.00  0.00    -0.296 N 
ATOM     19  C   UNL     1       0.030  -0.339   2.426  0.00  0.00    +0.178 A 
ATOM     20  N   UNL     1       0.056  -1.039   3.539  0.00  0.00    -0.231 NA
ATOM     21  C   UNL     1       0.059  -0.447   4.718  0.00  0.00    +0.121 A 
ATOM     22  C   UNL     1       0.033   0.910   4.726  0.00  0.00    +0.068 A 
ATOM     23  S   UNL     1       0.013   1.252   2.974  0.00  0.00    -0.058 S 
ATOM     24  C   UNL     1       0.054  -3.279   1.696  0.00  0.00    +0.064 C 
ENDBRANCH  11  16
ENDBRANCH  10  11
ENDBRANCH   9  10
ENDBRANCH   1   9
BRANCH   4  25
ATOM     25  C   UNL     1       0.033  -5.468  -8.972  0.00  0.00    +0.306 C 
BRANCH  25  26
ATOM     26  O   UNL     1       1.380  -5.644  -9.416  0.00  0.00    -0.484 OA
BRANCH  26  27
ATOM     27  C   UNL     1       1.556  -6.172 -10.656  0.00  0.00    +0.125 A 
ATOM     28  C   UNL     1       0.455  -6.508 -11.431  0.00  0.00    +0.046 A 
ATOM     29  C   UNL     1       0.634  -7.044 -12.691  0.00  0.00    +0.007 A 
ATOM     30  C   UNL     1       1.909  -7.248 -13.184  0.00  0.00    +0.046 A 
ATOM     31  C   UNL     1       3.013  -6.915 -12.413  0.00  0.00    +0.124 A 
ATOM     32  C   UNL     1       2.836  -6.370 -11.150  0.00  0.00    +0.091 A 
BRANCH  31  33
ATOM     33  O   UNL     1       4.267  -7.116 -12.897  0.00  0.00    -0.495 OA
ATOM     34  C   UNL     1       4.373  -7.675 -14.208  0.00  0.00    +0.277 C 
ENDBRANCH  31  33
ENDBRANCH  26  27
ENDBRANCH  25  26
ENDBRANCH   4  25
TORSDOF 9
