REMARK  Name = ZINC09067027
REMARK  13 active torsions:
REMARK  status: ('A' for Active; 'I' for Inactive)
REMARK    1  A    between atoms: C_1  and  C_2
REMARK    2  A    between atoms: C_2  and  C_3
REMARK    3  A    between atoms: C_3  and  N_61
REMARK    4  A    between atoms: C_10  and  C_22
REMARK    5  A    between atoms: C_12  and  C_18
REMARK    6  A    between atoms: C_12  and  C_20
REMARK    7  A    between atoms: C_14  and  C_15
REMARK    8  A    between atoms: C_25  and  O_31
REMARK    9  A    between atoms: C_27  and  O_28
REMARK   10  A    between atoms: O_28  and  C_29
REMARK   11  A    between atoms: C_29  and  C_30
REMARK   12  A    between atoms: O_31  and  C_32
REMARK   13  A    between atoms: C_32  and  C_33
REMARK                            x       y       z     vdW  Elec       q    Type
REMARK                         _______ _______ _______ _____ _____    ______ ____
ROOT
ATOM      1  C   UNL     1       2.300   5.441   0.391  0.00  0.00    -0.051 C 
ATOM      2  C   UNL     1       2.262   3.948   0.172  0.00  0.00    -0.044 C 
ATOM      3  C   UNL     1       1.111   3.303   0.226  0.00  0.00    -0.051 C 
ATOM      4  C   UNL     1      -0.190   3.979   0.553  0.00  0.00    +0.010 C 
ATOM      5  C   UNL     1      -0.100   5.486   0.613  0.00  0.00    -0.070 C 
ATOM      6  C   UNL     1      -1.238   3.503  -0.455  0.00  0.00    +0.068 C 
ATOM      7  C   UNL     1      -1.438   1.997  -0.286  0.00  0.00    +0.188 C 
ATOM      8  C   UNL     1      -0.134   1.257  -0.295  0.00  0.00    +0.065 C 
ATOM      9  C   UNL     1       1.064   1.845  -0.047  0.00  0.00    +0.163 C 
ATOM     10  N   UNL     1      -0.153  -0.082  -0.568  0.00  0.00    -0.304 NA
ATOM     11  H   UNL     1       0.676  -0.585  -0.584  0.00  0.00    +0.186 HD
ATOM     12  N   UNL     1       1.043   5.991  -0.164  0.00  0.00    +0.382 N 
ATOM     13  H   UNL     1       0.946   5.687  -1.140  0.00  0.00    -0.081 HD
ENDROOT
BRANCH   6  14
ATOM     14  C   UNL     1      -2.540   4.219  -0.204  0.00  0.00    +0.001 A 
ATOM     15  C   UNL     1      -3.089   4.230   1.064  0.00  0.00    +0.011 A 
ATOM     16  C   UNL     1      -4.282   4.886   1.297  0.00  0.00    +0.046 A 
ATOM     17  C   UNL     1      -4.933   5.535   0.258  0.00  0.00    +0.124 A 
ATOM     18  C   UNL     1      -4.385   5.526  -1.015  0.00  0.00    +0.091 A 
ATOM     19  C   UNL     1      -3.184   4.872  -1.246  0.00  0.00    +0.127 A 
BRANCH  19  20
ATOM     20  O   UNL     1      -2.641   4.865  -2.491  0.00  0.00    -0.492 OA
BRANCH  20  21
ATOM     21  C   UNL     1      -3.359   5.557  -3.515  0.00  0.00    +0.225 C 
ATOM     22  C   UNL     1      -2.599   5.441  -4.838  0.00  0.00    +0.048 C 
ENDBRANCH  20  21
ENDBRANCH  19  20
BRANCH  17  23
ATOM     23  O   UNL     1      -6.107   6.180   0.488  0.00  0.00    -0.492 OA
BRANCH  23  24
ATOM     24  C   UNL     1      -6.614   6.148   1.823  0.00  0.00    +0.225 C 
ATOM     25  C   UNL     1      -7.933   6.921   1.887  0.00  0.00    +0.048 C 
ENDBRANCH  23  24
ENDBRANCH  17  23
ENDBRANCH   6  14
BRANCH   9  26
ATOM     26  C   UNL     1       2.267   1.068  -0.048  0.00  0.00    +0.076 C 
ATOM     27  N   UNL     1       3.221   0.452  -0.049  0.00  0.00    -0.196 NA
ENDBRANCH   9  26
BRANCH   7  28
ATOM     28  C   UNL     1      -2.279   1.499  -1.387  0.00  0.00    +0.091 C 
ATOM     29  N   UNL     1      -2.928   1.115  -2.236  0.00  0.00    -0.195 NA
ENDBRANCH   7  28
BRANCH   7  30
ATOM     30  C   UNL     1      -2.124   1.744   0.991  0.00  0.00    +0.091 C 
ATOM     31  N   UNL     1      -2.654   1.549   1.977  0.00  0.00    -0.195 NA
ENDBRANCH   7  30
BRANCH  12  32
ATOM     32  C   UNL     1       1.074   7.469  -0.122  0.00  0.00    -0.079 C 
BRANCH  32  34
ATOM     33  C   UNL     1       2.170   9.503  -1.073  0.00  0.00    +0.002 C 
ATOM     34  C   UNL     1       2.141   7.973  -1.096  0.00  0.00    -0.022 C 
ENDBRANCH  32  34
ENDBRANCH  12  32
TORSDOF 10
