REMARK  Name = ZINC39277187
REMARK  3 active torsions:
REMARK  status: ('A' for Active; 'I' for Inactive)
REMARK    1  A    between atoms: C_5  and  C_7
REMARK    2  A    between atoms: C_7  and  N_9
REMARK    3  A    between atoms: C_13  and  C_16
REMARK                            x       y       z     vdW  Elec       q    Type
REMARK                         _______ _______ _______ _____ _____    ______ ____
ROOT
ATOM      1  N   UNL     1       0.098  -2.855  -0.015  0.00  0.00    -0.149 NA
ATOM      2  C   UNL     1       0.123  -4.176  -0.023  0.00  0.00    +0.204 C 
ATOM      3  N   UNL     1      -0.930  -5.065  -0.023  0.00  0.00    -0.129 NA
ATOM      4  N   UNL     1      -0.811  -6.270  -0.031  0.00  0.00    -0.170 NA
ATOM      5  C   UNL     1       0.554  -6.845  -0.040  0.00  0.00    +0.199 C 
ATOM      6  S   UNL     1       1.533  -5.281  -0.043  0.00  0.00    -0.058 S 
ENDROOT
BRANCH   5   7
ATOM      7  C   UNL     1       0.819  -7.676   1.217  0.00  0.00    +0.005 C 
ATOM      8  C   UNL     1       0.639  -6.798   2.457  0.00  0.00    +0.013 C 
ATOM      9  C   UNL     1       0.904  -7.630   3.713  0.00  0.00    -0.010 C 
ATOM     10  C   UNL     1      -0.081  -8.799   3.769  0.00  0.00    +0.007 C 
ATOM     11  C   UNL     1       0.099  -9.677   2.529  0.00  0.00    -0.010 C 
ATOM     12  C   UNL     1      -0.166  -8.845   1.272  0.00  0.00    +0.013 C 
ATOM     13  C   UNL     1       1.530 -10.218   2.490  0.00  0.00    +0.007 C 
ATOM     14  C   UNL     1       2.515  -9.049   2.435  0.00  0.00    -0.010 C 
ATOM     15  C   UNL     1       2.335  -8.171   3.675  0.00  0.00    +0.007 C 
ATOM     16  C   UNL     1       2.250  -8.217   1.178  0.00  0.00    +0.013 C 
ENDBRANCH   5   7
BRANCH   1  17
ATOM     17  C   UNL     1       1.249  -2.162  -0.022  0.00  0.00    +0.272 C 
ATOM     18  O   UNL     1       2.315  -2.751  -0.036  0.00  0.00    -0.268 OA
BRANCH  17  23
ATOM     19  C   UNL     1      -0.017   1.374   0.010  0.00  0.00    +0.001 A 
ATOM     20  C   UNL     1       1.170   2.087   0.002  0.00  0.00    +0.003 A 
ATOM     21  C   UNL     1       2.383   1.424  -0.013  0.00  0.00    +0.039 A 
ATOM     22  C   UNL     1       2.417   0.041  -0.021  0.00  0.00    +0.136 A 
ATOM     23  C   UNL     1       1.222  -0.683  -0.013  0.00  0.00    +0.074 A 
ATOM     24  C   UNL     1       0.002  -0.004   0.002  0.00  0.00    +0.016 A 
ATOM     25  F   UNL     1       3.603  -0.607  -0.036  0.00  0.00    -0.205 F 
ENDBRANCH  17  23
ENDBRANCH   1  17
TORSDOF 3
