REMARK  Name = ZINC20757186
REMARK  5 active torsions:
REMARK  status: ('A' for Active; 'I' for Inactive)
REMARK    1  A    between atoms: C_5  and  O_7
REMARK    2  A    between atoms: O_7  and  C_8
REMARK    3  A    between atoms: C_8  and  C_9
REMARK    4  A    between atoms: C_16  and  C_25
REMARK    5  A    between atoms: C_28  and  N_31
REMARK                            x       y       z     vdW  Elec       q    Type
REMARK                         _______ _______ _______ _____ _____    ______ ____
ROOT
ATOM      1  C   UNL     1      -1.194   3.566   0.016  0.00  0.00    +0.004 A 
ATOM      2  C   UNL     1      -1.202   2.184   0.020  0.00  0.00    +0.006 A 
ATOM      3  C   UNL     1      -0.018   1.475   0.010  0.00  0.00    -0.016 A 
ATOM      4  C   UNL     1       1.208   2.143   0.002  0.00  0.00    +0.074 A 
ATOM      5  C   UNL     1       1.202   3.543  -0.011  0.00  0.00    +0.142 A 
ATOM      6  C   UNL     1       0.011   4.244  -0.003  0.00  0.00    +0.047 A 
ATOM      7  N   UNL     1       2.448   1.503   0.015  0.00  0.00    -0.334 N 
ATOM      8  C   UNL     1       2.435   0.033  -0.051  0.00  0.00    +0.105 C 
ATOM      9  C   UNL     1       1.272  -0.440   0.797  0.00  0.00    +0.029 C 
ATOM     10  C   UNL     1       0.002  -0.004   0.002  0.00  0.00    +0.049 C 
ATOM     11  C   UNL     1      -1.074  -0.822   0.614  0.00  0.00    -0.023 C 
ATOM     12  C   UNL     1      -0.538  -1.946   1.077  0.00  0.00    -0.030 C 
ATOM     13  C   UNL     1       0.973  -1.943   0.834  0.00  0.00    +0.033 C 
ATOM     14  H   UNL     1       3.405   2.042   0.072  0.00  0.00    +0.147 HD
ENDROOT
BRANCH   8  15
ATOM     15  C   UNL     1       3.727  -0.520   0.493  0.00  0.00    -0.027 A 
ATOM     16  C   UNL     1       4.333   0.083   1.579  0.00  0.00    +0.008 A 
ATOM     17  C   UNL     1       5.516  -0.427   2.081  0.00  0.00    +0.033 A 
ATOM     18  C   UNL     1       6.097  -1.534   1.492  0.00  0.00    +0.126 A 
ATOM     19  C   UNL     1       5.493  -2.134   0.402  0.00  0.00    +0.033 A 
ATOM     20  C   UNL     1       4.308  -1.627  -0.097  0.00  0.00    +0.008 A 
BRANCH  18  21
ATOM     21  N   UNL     1       7.366  -2.077   2.026  0.00  0.00    +0.056 N 
ATOM     22  O   UNL     1       7.878  -3.052   1.507  0.00  0.00    -0.126 OA
ATOM     23  O   UNL     1       7.898  -1.549   2.986  0.00  0.00    -0.126 OA
ENDBRANCH  18  21
ENDBRANCH   8  15
BRANCH   5  24
ATOM     24  O   UNL     1       2.381   4.221  -0.031  0.00  0.00    -0.488 OA
BRANCH  24  25
ATOM     25  C   UNL     1       2.309   5.648  -0.043  0.00  0.00    +0.260 C 
BRANCH  25  26
ATOM     26  C   UNL     1       3.724   6.230  -0.065  0.00  0.00    +0.156 C 
ATOM     27  C   UNL     1       3.657   7.764  -0.197  0.00  0.00    +0.037 C 
ATOM     28  C   UNL     1       4.399   8.285   1.058  0.00  0.00    +0.031 C 
ATOM     29  C   UNL     1       5.254   7.057   1.463  0.00  0.00    +0.160 C 
ATOM     30  O   UNL     1       4.394   5.933   1.171  0.00  0.00    -0.373 OA
ENDBRANCH  25  26
ENDBRANCH  24  25
ENDBRANCH   5  24
TORSDOF 5
