REMARK  Name = ZINC63409058
REMARK  8 active torsions:
REMARK  status: ('A' for Active; 'I' for Inactive)
REMARK    1  A    between atoms: C_1  and  C_2
REMARK    2  A    between atoms: C_6  and  C_8
REMARK    3  A    between atoms: C_8  and  C_9
REMARK    4  A    between atoms: C_8  and  C_10
REMARK    5  A    between atoms: C_8  and  C_11
REMARK    6  A    between atoms: C_11  and  N_12
REMARK    7  A    between atoms: C_19  and  C_21
REMARK    8  A    between atoms: C_21  and  O_22
REMARK                            x       y       z     vdW  Elec       q    Type
REMARK                         _______ _______ _______ _____ _____    ______ ____
ROOT
ATOM      1  N   UNL     1       0.089  -5.086   3.465  0.00  0.00    -0.298 N 
ATOM      2  C   UNL     1       0.105  -6.434   3.458  0.00  0.00    +0.302 C 
ATOM      3  O   UNL     1       0.015  -7.037   2.406  0.00  0.00    -0.253 OA
ATOM      4  N   UNL     1       0.222  -7.113   4.616  0.00  0.00    -0.285 N 
ATOM      5  C   UNL     1       0.214  -6.404   5.903  0.00  0.00    +0.109 C 
ATOM      6  C   UNL     1       1.462  -6.808   6.696  0.00  0.00    +0.019 C 
ATOM      7  C   UNL     1       1.512  -8.332   6.818  0.00  0.00    +0.009 C 
ATOM      8  C   UNL     1       1.603  -8.955   5.423  0.00  0.00    +0.032 C 
ATOM      9  C   UNL     1       0.352  -8.576   4.617  0.00  0.00    +0.115 C 
ATOM     10  H   UNL     1       0.086  -4.606   4.308  0.00  0.00    +0.150 HD
ENDROOT
BRANCH   1  11
ATOM     11  C   UNL     1       0.074  -4.347   2.200  0.00  0.00    +0.116 C 
BRANCH  11  12
ATOM     12  C   UNL     1       0.057  -2.845   2.488  0.00  0.00    +0.006 C 
ATOM     13  C   UNL     1       1.305  -2.464   3.287  0.00  0.00    +0.017 C 
ATOM     14  C   UNL     1      -1.193  -2.494   3.298  0.00  0.00    +0.017 C 
BRANCH  12  20
ATOM     15  C   UNL     1      -0.010   1.503   0.010  0.00  0.00    +0.044 C 
ATOM     16  C   UNL     1       0.009  -0.004   0.002  0.00  0.00    -0.050 A 
ATOM     17  C   UNL     1       0.013  -0.689  -1.200  0.00  0.00    +0.003 A 
ATOM     18  C   UNL     1       0.031  -2.071  -1.207  0.00  0.00    +0.001 A 
ATOM     19  C   UNL     1       0.045  -2.769  -0.013  0.00  0.00    +0.004 A 
ATOM     20  C   UNL     1       0.042  -2.084   1.187  0.00  0.00    -0.040 A 
ATOM     21  C   UNL     1       0.029  -0.702   1.195  0.00  0.00    +0.007 A 
ENDBRANCH  12  20
ENDBRANCH  11  12
ENDBRANCH   1  11
BRANCH   8  22
ATOM     22  C   UNL     1       1.687 -10.478   5.548  0.00  0.00    +0.160 C 
BRANCH  22  23
ATOM     23  O   UNL     1       1.889 -11.052   4.255  0.00  0.00    -0.395 OA
ATOM     24  H   UNL     1       1.951 -12.017   4.258  0.00  0.00    +0.209 HD
ENDBRANCH  22  23
ENDBRANCH   8  22
TORSDOF 5
