REMARK  Name = ZINC13450202
REMARK  5 active torsions:
REMARK  status: ('A' for Active; 'I' for Inactive)
REMARK    1  A    between atoms: C_4  and  C_7
REMARK    2  A    between atoms: C_10  and  O_13
REMARK    3  A    between atoms: O_13  and  C_14
REMARK    4  A    between atoms: C_14  and  C_16
REMARK    5  A    between atoms: CA_23  and  C_32
REMARK                            x       y       z     vdW  Elec       q    Type
REMARK                         _______ _______ _______ _____ _____    ______ ____
ROOT
ATOM      1  C   UNL     1       2.413   0.057   0.015  0.00  0.00    +0.080 A 
ATOM      2  C   UNL     1       2.377   1.450  -0.021  0.00  0.00    +0.017 A 
ATOM      3  C   UNL     1       1.168   2.110   0.002  0.00  0.00    +0.001 A 
ATOM      4  C   UNL     1      -0.012   1.386   0.053  0.00  0.00    +0.006 A 
ATOM      5  C   UNL     1       0.004   0.010   0.090  0.00  0.00    -0.019 A 
ATOM      6  C   UNL     1       1.216  -0.687   0.083  0.00  0.00    +0.046 A 
ATOM      7  N   UNL     1       1.322  -2.066   0.149  0.00  0.00    -0.330 N 
ATOM      8  CA  UNL     1       0.066  -2.832   0.127  0.00  0.00    +0.189 C 
ATOM      9  C   UNL     1      -0.938  -2.064   0.962  0.00  0.00    +0.035 C 
ATOM     10  C   UNL     1      -1.245  -0.782   0.126  0.00  0.00    +0.049 C 
ATOM     11  C   UNL     1      -2.498  -0.275   0.737  0.00  0.00    -0.023 C 
ATOM     12  C   UNL     1      -3.167  -1.305   1.244  0.00  0.00    -0.030 C 
ATOM     13  C   UNL     1      -2.373  -2.597   1.035  0.00  0.00    +0.033 C 
ATOM     14  H   UNL     1       1.904  -2.348   0.924  0.00  0.00    +0.147 HD
ENDROOT
BRANCH   8  15
ATOM     15  C   UNL     1       0.286  -4.200   0.719  0.00  0.00    +0.376 C 
ATOM     16  O   UNL     1       1.260  -4.413   1.403  0.00  0.00    -0.244 OA
ATOM     17  OXT UNL     1      -0.599  -5.182   0.487  0.00  0.00    -0.244 OA
ENDBRANCH   8  15
BRANCH   1  18
ATOM     18  C   UNL     1       3.709  -0.643  -0.018  0.00  0.00    +0.346 C 
ATOM     19  O   UNL     1       3.745  -1.857   0.013  0.00  0.00    -0.244 OA
BRANCH  18  20
ATOM     20  O   UNL     1       4.854   0.064  -0.083  0.00  0.00    -0.422 OA
BRANCH  20  24
ATOM     21  C   UNL     1       8.385  -2.064   0.147  0.00  0.00    -0.018 A 
ATOM     22  C   UNL     1       7.654  -2.050  -1.040  0.00  0.00    +0.012 A 
ATOM     23  C   UNL     1       6.475  -1.339  -1.113  0.00  0.00    +0.047 A 
ATOM     24  C   UNL     1       6.016  -0.636  -0.007  0.00  0.00    +0.132 A 
ATOM     25  C   UNL     1       6.745  -0.643   1.174  0.00  0.00    +0.047 A 
ATOM     26  C   UNL     1       7.922  -1.358   1.256  0.00  0.00    +0.012 A 
BRANCH  21  30
ATOM     27  C   UNL     1      12.023  -4.254   0.383  0.00  0.00    +0.000 A 
ATOM     28  C   UNL     1      11.566  -3.554   1.486  0.00  0.00    +0.001 A 
ATOM     29  C   UNL     1      10.386  -2.842   1.415  0.00  0.00    +0.008 A 
ATOM     30  C   UNL     1       9.655  -2.828   0.229  0.00  0.00    -0.018 A 
ATOM     31  C   UNL     1      10.116  -3.538  -0.877  0.00  0.00    +0.008 A 
ATOM     32  C   UNL     1      11.300  -4.243  -0.796  0.00  0.00    +0.001 A 
ENDBRANCH  21  30
ENDBRANCH  20  24
ENDBRANCH  18  20
ENDBRANCH   1  18
TORSDOF 5
