REMARK  Name = ZINC22752593
REMARK  15 active torsions:
REMARK  status: ('A' for Active; 'I' for Inactive)
REMARK    1  A    between atoms: C_1  and  C_2
REMARK    2  A    between atoms: C_2  and  N_3
REMARK    3  A    between atoms: N_3  and  C_4
REMARK    4  A    between atoms: N_3  and  C_6
REMARK    5  A    between atoms: C_4  and  C_5
REMARK    6  A    between atoms: C_6  and  C_8
REMARK    7  A    between atoms: C_6  and  C_28
REMARK    8  A    between atoms: C_8  and  N_9
REMARK    9  A    between atoms: C_10  and  C_12
REMARK   10  A    between atoms: C_12  and  N_13
REMARK   11  A    between atoms: C_14  and  C_16
REMARK   12  A    between atoms: C_20  and  S_22
REMARK   13  A    between atoms: S_22  and  N_25
REMARK   14  A    between atoms: N_25  and  C_26
REMARK   15  A    between atoms: N_25  and  C_27
REMARK                            x       y       z     vdW  Elec       q    Type
REMARK                         _______ _______ _______ _____ _____    ______ ____
ROOT
ATOM      1  N   UNL     1       0.054   4.845  -0.940  0.00  0.00    -0.315 N 
ATOM      2  C   UNL     1       1.028   5.196  -1.803  0.00  0.00    +0.230 C 
ATOM      3  O   UNL     1       1.701   4.341  -2.338  0.00  0.00    -0.274 OA
ATOM      4  H   UNL     1      -0.556   5.620  -0.454  0.00  0.00    +0.149 HD
ENDROOT
BRANCH   1   5
ATOM      5  C   UNL     1      -0.190   3.430  -0.647  0.00  0.00    +0.093 C 
BRANCH   5   6
ATOM      6  C   UNL     1      -1.339   3.308   0.356  0.00  0.00    -0.020 C 
BRANCH   6   7
ATOM      7  C   UNL     1      -1.471   1.872   0.796  0.00  0.00    -0.059 A 
ATOM      8  C   UNL     1      -0.483   1.294   1.571  0.00  0.00    +0.002 A 
ATOM      9  C   UNL     1      -0.606  -0.022   1.978  0.00  0.00    +0.000 A 
ATOM     10  C   UNL     1      -1.712  -0.761   1.603  0.00  0.00    +0.000 A 
ATOM     11  C   UNL     1      -2.698  -0.183   0.824  0.00  0.00    +0.000 A 
ATOM     12  C   UNL     1      -2.577   1.133   0.420  0.00  0.00    +0.002 A 
ENDBRANCH   6   7
BRANCH   6  13
ATOM     13  N   UNL     1      -1.062   4.155   1.524  0.00  0.00    +0.385 N 
ATOM     14  H   UNL     1      -0.730   5.137   1.157  0.00  0.00    -0.081 HD
BRANCH  13  16
ATOM     15  C   UNL     1      -3.290   5.172   1.518  0.00  0.00    -0.017 C 
ATOM     16  C   UNL     1      -2.276   4.359   2.325  0.00  0.00    -0.081 C 
ENDBRANCH  13  16
BRANCH  13  17
ATOM     17  C   UNL     1       0.019   3.588   2.340  0.00  0.00    -0.081 C 
ATOM     18  C   UNL     1       1.312   3.554   1.522  0.00  0.00    -0.017 C 
ENDBRANCH  13  17
ENDBRANCH   6  13
ENDBRANCH   5   6
ENDBRANCH   1   5
BRANCH   2  19
ATOM     19  C   UNL     1       1.279   6.651  -2.104  0.00  0.00    +0.200 C 
BRANCH  19  20
ATOM     20  N   UNL     1       2.379   6.768  -3.064  0.00  0.00    -0.303 N 
ATOM     21  C   UNL     1       2.782   7.985  -3.482  0.00  0.00    +0.245 C 
ATOM     22  O   UNL     1       2.232   8.984  -3.062  0.00  0.00    -0.270 OA
ATOM     23  H   UNL     1       2.877   5.864  -3.444  0.00  0.00    +0.150 HD
BRANCH  21  24
ATOM     24  C   UNL     1       3.892   8.103  -4.451  0.00  0.00    +0.039 A 
ATOM     25  C   UNL     1       4.529   6.957  -4.931  0.00  0.00    +0.013 A 
ATOM     26  C   UNL     1       5.562   7.074  -5.838  0.00  0.00    +0.003 A 
ATOM     27  C   UNL     1       5.973   8.325  -6.265  0.00  0.00    +0.028 A 
ATOM     28  C   UNL     1       5.349   9.464  -5.790  0.00  0.00    +0.106 A 
ATOM     29  C   UNL     1       4.312   9.361  -4.886  0.00  0.00    +0.041 A 
BRANCH  28  30
ATOM     30  S   UNL     1       5.880  11.051  -6.341  0.00  0.00    +0.060 S 
ATOM     31  O   UNL     1       6.506  10.855  -7.601  0.00  0.00    -0.153 OA
ATOM     32  O   UNL     1       4.778  11.932  -6.166  0.00  0.00    -0.153 OA
BRANCH  30  33
ATOM     33  N   UNL     1       7.063  11.561  -5.299  0.00  0.00    -0.183 NA
ATOM     34  C   UNL     1       8.466  11.238  -5.570  0.00  0.00    +0.131 C 
ATOM     35  C   UNL     1       6.705  12.334  -4.107  0.00  0.00    +0.131 C 
ENDBRANCH  30  33
ENDBRANCH  28  30
ENDBRANCH  21  24
ENDBRANCH  19  20
ENDBRANCH   2  19
TORSDOF 11
