REMARK  Name = ZINC13981439
REMARK  9 active torsions:
REMARK  status: ('A' for Active; 'I' for Inactive)
REMARK    1  A    between atoms: C_1  and  C_2
REMARK    2  A    between atoms: C_4  and  O_9
REMARK    3  A    between atoms: O_9  and  C_10
REMARK    4  A    between atoms: C_10  and  C_11
REMARK    5  A    between atoms: N_13  and  N_14
REMARK    6  A    between atoms: N_14  and  C_15
REMARK    7  A    between atoms: C_15  and  N_17
REMARK    8  A    between atoms: C_18  and  C_20
REMARK    9  A    between atoms: C_21  and  C_22
REMARK                            x       y       z     vdW  Elec       q    Type
REMARK                         _______ _______ _______ _____ _____    ______ ____
ROOT
ATOM      1  N   UNL     1       0.066  -6.611  -5.192  0.00  0.00    -0.245 N 
ATOM      2  H   UNL     1       0.054  -6.017  -5.958  0.00  0.00    +0.172 HD
ENDROOT
BRANCH   1   5
ATOM      3  C   UNL     1       0.048  -4.746  -3.712  0.00  0.00    +0.267 C 
ATOM      4  O   UNL     1       0.033  -4.003  -4.671  0.00  0.00    -0.271 OA
ATOM      5  N   UNL     1       0.065  -6.082  -3.895  0.00  0.00    -0.232 N 
ATOM      6  H   UNL     1       0.077  -6.676  -3.128  0.00  0.00    +0.173 HD
BRANCH   3   7
ATOM      7  C   UNL     1       0.047  -4.176  -2.317  0.00  0.00    +0.326 C 
BRANCH   7   8
ATOM      8  O   UNL     1       0.028  -2.749  -2.386  0.00  0.00    -0.483 OA
BRANCH   8  12
ATOM      9  C   UNL     1      -0.018   1.503   0.010  0.00  0.00    +0.045 C 
ATOM     10  C   UNL     1       0.002  -0.004   0.002  0.00  0.00    -0.029 A 
ATOM     11  C   UNL     1       0.006  -0.688  -1.199  0.00  0.00    +0.050 A 
ATOM     12  C   UNL     1       0.025  -2.075  -1.206  0.00  0.00    +0.122 A 
ATOM     13  C   UNL     1       0.040  -2.773  -0.007  0.00  0.00    +0.047 A 
ATOM     14  C   UNL     1       0.036  -2.086   1.192  0.00  0.00    +0.024 A 
ATOM     15  C   UNL     1       0.023  -0.702   1.196  0.00  0.00    +0.044 A 
ATOM     16 CL   UNL     1       0.025   0.160   2.704  0.00  0.00    -0.083 Cl
ENDBRANCH   8  12
ENDBRANCH   7   8
ENDBRANCH   3   7
ENDBRANCH   1   5
BRANCH   1  17
ATOM     17  C   UNL     1       0.083  -7.947  -5.374  0.00  0.00    +0.153 C 
ATOM     18  S   UNL     1       0.084  -8.594  -6.959  0.00  0.00    -0.017 S 
BRANCH  17  19
ATOM     19  N   UNL     1       0.100  -8.772  -4.309  0.00  0.00    -0.263 N 
ATOM     20  C   UNL     1       0.117 -10.107  -4.491  0.00  0.00    +0.242 C 
ATOM     21  O   UNL     1       0.117 -10.568  -5.618  0.00  0.00    -0.270 OA
ATOM     22  H   UNL     1       0.099  -8.405  -3.411  0.00  0.00    +0.157 HD
BRANCH  20  23
ATOM     23  C   UNL     1       0.135 -11.003  -3.335  0.00  0.00    +0.068 C 
ATOM     24  C   UNL     1       0.152 -12.340  -3.518  0.00  0.00    +0.014 C 
BRANCH  24  25
ATOM     25  C   UNL     1       0.170 -13.241  -2.355  0.00  0.00    -0.007 A 
ATOM     26  C   UNL     1       0.164 -12.716  -1.059  0.00  0.00    +0.009 A 
ATOM     27  C   UNL     1       0.181 -13.567   0.026  0.00  0.00    +0.001 A 
ATOM     28  C   UNL     1       0.204 -14.938  -0.165  0.00  0.00    +0.001 A 
ATOM     29  C   UNL     1       0.211 -15.467  -1.443  0.00  0.00    +0.020 A 
ATOM     30  C   UNL     1       0.188 -14.629  -2.540  0.00  0.00    +0.048 A 
ATOM     31 CL   UNL     1       0.190 -15.293  -4.144  0.00  0.00    -0.083 Cl
ENDBRANCH  24  25
ENDBRANCH  20  23
ENDBRANCH  17  19
ENDBRANCH   1  17
TORSDOF 8
