REMARK  Name = ZINC23453801
REMARK  12 active torsions:
REMARK  status: ('A' for Active; 'I' for Inactive)
REMARK    1  A    between atoms: C_1  and  C_2
REMARK    2  A    between atoms: C_5  and  C_7
REMARK    3  A    between atoms: C_9  and  C_32
REMARK    4  A    between atoms: N_10  and  C_12
REMARK    5  A    between atoms: C_16  and  C_18
REMARK    6  A    between atoms: N_20  and  C_21
REMARK    7  A    between atoms: C_21  and  C_23
REMARK    8  A    between atoms: C_21  and  C_24
REMARK    9  A    between atoms: C_24  and  C_25
REMARK   10  A    between atoms: C_25  and  C_26
REMARK   11  A    between atoms: C_32  and  C_33
REMARK   12  A    between atoms: C_32  and  C_34
REMARK                            x       y       z     vdW  Elec       q    Type
REMARK                         _______ _______ _______ _____ _____    ______ ____
ROOT
ATOM      1  C   UNL     1      -0.896   1.983  -0.608  0.00  0.00    +0.066 A 
ATOM      2  C   UNL     1      -0.939   3.371  -0.556  0.00  0.00    +0.028 A 
ATOM      3  C   UNL     1       0.166   4.115  -0.926  0.00  0.00    +0.003 A 
ATOM      4  C   UNL     1       1.320   3.484  -1.344  0.00  0.00    +0.013 A 
ATOM      5  C   UNL     1       1.375   2.091  -1.395  0.00  0.00    +0.039 A 
ATOM      6  C   UNL     1       0.260   1.340  -1.021  0.00  0.00    +0.040 A 
ENDROOT
BRANCH   1  10
ATOM      7  C   UNL     1      -3.258  -0.342   0.678  0.00  0.00    +0.149 A 
ATOM      8  C   UNL     1      -4.091   0.551  -0.028  0.00  0.00    +0.058 A 
ATOM      9  C   UNL     1      -3.308   1.504  -0.577  0.00  0.00    +0.048 A 
ATOM     10  N   UNL     1      -2.020   1.233  -0.237  0.00  0.00    -0.236 N 
ATOM     11  N   UNL     1      -2.013   0.070   0.544  0.00  0.00    -0.161 NA
BRANCH   7  16
ATOM     12  C   UNL     1      -3.312  -4.495   3.482  0.00  0.00    +0.111 C 
ATOM     13  C   UNL     1      -3.730  -3.321   2.635  0.00  0.00    +0.215 A 
ATOM     14  N   UNL     1      -4.949  -3.020   2.284  0.00  0.00    -0.112 NA
ATOM     15  N   UNL     1      -4.939  -1.951   1.568  0.00  0.00    -0.106 NA
ATOM     16  C   UNL     1      -3.702  -1.534   1.430  0.00  0.00    +0.268 A 
ATOM     17  O   UNL     1      -2.913  -2.393   2.107  0.00  0.00    -0.419 OA
ENDBRANCH   7  16
BRANCH   9  18
ATOM     18  C   UNL     1      -3.778   2.663  -1.418  0.00  0.00    +0.032 C 
ATOM     19  C   UNL     1      -4.927   2.205  -2.319  0.00  0.00    +0.014 C 
ATOM     20  C   UNL     1      -4.264   3.791  -0.506  0.00  0.00    +0.014 C 
ENDBRANCH   9  18
ENDBRANCH   1  10
BRANCH   5  21
ATOM     21  C   UNL     1       2.610   1.412  -1.843  0.00  0.00    +0.244 C 
ATOM     22  O   UNL     1       2.655   0.198  -1.886  0.00  0.00    -0.270 OA
ATOM     23  N   UNL     1       3.685   2.140  -2.203  0.00  0.00    -0.309 N 
ATOM     24  H   UNL     1       3.644   3.238  -2.164  0.00  0.00    +0.149 HD
BRANCH  23  25
ATOM     25  C   UNL     1       4.909   1.468  -2.647  0.00  0.00    +0.070 C 
ATOM     26  C   UNL     1       5.755   1.091  -1.429  0.00  0.00    +0.028 C 
BRANCH  25  27
ATOM     27  C   UNL     1       5.708   2.408  -3.551  0.00  0.00    +0.026 C 
BRANCH  27  28
ATOM     28  C   UNL     1       4.912   2.686  -4.829  0.00  0.00    +0.037 C 
BRANCH  28  29
ATOM     29  C   UNL     1       5.699   3.612  -5.720  0.00  0.00    -0.047 A 
ATOM     30  C   UNL     1       5.541   4.980  -5.606  0.00  0.00    +0.003 A 
ATOM     31  C   UNL     1       6.266   5.830  -6.419  0.00  0.00    +0.000 A 
ATOM     32  C   UNL     1       7.143   5.311  -7.354  0.00  0.00    +0.000 A 
ATOM     33  C   UNL     1       7.297   3.942  -7.472  0.00  0.00    +0.000 A 
ATOM     34  C   UNL     1       6.576   3.093  -6.654  0.00  0.00    +0.003 A 
ENDBRANCH  28  29
ENDBRANCH  27  28
ENDBRANCH  25  27
ENDBRANCH  23  25
ENDBRANCH   5  21
TORSDOF 8
