REMARK  Name = ZINC40815545
REMARK  7 active torsions:
REMARK  status: ('A' for Active; 'I' for Inactive)
REMARK    1  A    between atoms: C_1  and  C_2
REMARK    2  A    between atoms: C_6  and  C_7
REMARK    3  A    between atoms: N_9  and  C_10
REMARK    4  A    between atoms: N_21  and  N_22
REMARK    5  A    between atoms: C_23  and  C_25
REMARK    6  A    between atoms: C_25  and  C_26
REMARK    7  A    between atoms: C_25  and  C_32
REMARK                            x       y       z     vdW  Elec       q    Type
REMARK                         _______ _______ _______ _____ _____    ______ ____
ROOT
ATOM      1  C   UNL     1       0.381   1.647   0.433  0.00  0.00    +0.048 C 
ATOM      2  C   UNL     1       0.520   0.148   0.514  0.00  0.00    +0.009 A 
ATOM      3  C   UNL     1       0.555  -0.751  -0.559  0.00  0.00    +0.042 A 
ATOM      4  C   UNL     1       0.691  -2.015  -0.034  0.00  0.00    +0.115 A 
ATOM      5  O   UNL     1       0.742  -1.906   1.292  0.00  0.00    -0.454 OA
ATOM      6  C   UNL     1       0.645  -0.605   1.648  0.00  0.00    +0.193 A 
ATOM      7  C   UNL     1       0.760  -3.255  -0.888  0.00  0.00    +0.075 C 
ATOM      8  C   UNL     1       0.158  -2.959  -2.264  0.00  0.00    +0.014 C 
ATOM      9  C   UNL     1       0.812  -1.720  -2.885  0.00  0.00    +0.058 C 
ATOM     10  C   UNL     1       0.473  -0.517  -2.018  0.00  0.00    +0.070 C 
ATOM     11  N   UNL     1       0.136   0.631  -2.521  0.00  0.00    -0.184 NA
ENDROOT
BRANCH   6  12
ATOM     12  C   UNL     1       0.666  -0.089   3.021  0.00  0.00    +0.284 C 
ATOM     13  O   UNL     1       0.568   1.107   3.223  0.00  0.00    -0.266 OA
ATOM     14  N   UNL     1       0.795  -0.939   4.059  0.00  0.00    -0.278 N 
ATOM     15  H   UNL     1       0.790  -1.897   3.904  0.00  0.00    +0.155 HD
BRANCH  14  16
ATOM     16  C   UNL     1       0.934  -0.441   5.358  0.00  0.00    +0.052 A 
ATOM     17  C   UNL     1       1.447   0.833   5.564  0.00  0.00    +0.025 A 
ATOM     18  C   UNL     1       1.584   1.323   6.848  0.00  0.00    +0.002 A 
ATOM     19  C   UNL     1       1.211   0.546   7.929  0.00  0.00    +0.002 A 
ATOM     20  C   UNL     1       0.700  -0.723   7.729  0.00  0.00    +0.022 A 
ATOM     21  C   UNL     1       0.554  -1.217   6.446  0.00  0.00    +0.062 A 
ATOM     22 CL   UNL     1      -0.094  -2.808   6.195  0.00  0.00    -0.082 Cl
ENDBRANCH  14  16
ENDBRANCH   6  12
BRANCH  11  23
ATOM     23  N   UNL     1       0.074   0.796  -3.910  0.00  0.00    -0.206 N 
ATOM     24  C   UNL     1      -0.276   1.988  -4.433  0.00  0.00    +0.244 C 
ATOM     25  O   UNL     1      -0.538   2.918  -3.699  0.00  0.00    -0.273 OA
ATOM     26  H   UNL     1       0.284   0.052  -4.497  0.00  0.00    +0.177 HD
BRANCH  24  27
ATOM     27  C   UNL     1      -0.342   2.165  -5.928  0.00  0.00    +0.136 C 
BRANCH  27  28
ATOM     28  C   UNL     1      -1.351   1.205  -6.503  0.00  0.00    -0.031 A 
ATOM     29  C   UNL     1      -2.500   0.904  -5.797  0.00  0.00    +0.005 A 
ATOM     30  C   UNL     1      -3.425   0.024  -6.325  0.00  0.00    +0.000 A 
ATOM     31  C   UNL     1      -3.202  -0.556  -7.560  0.00  0.00    +0.000 A 
ATOM     32  C   UNL     1      -2.053  -0.254  -8.267  0.00  0.00    +0.000 A 
ATOM     33  C   UNL     1      -1.129   0.630  -7.741  0.00  0.00    +0.005 A 
ENDBRANCH  27  28
BRANCH  27  34
ATOM     34  C   UNL     1      -0.754   3.579  -6.248  0.00  0.00    -0.031 A 
ATOM     35  C   UNL     1      -2.009   4.032  -5.885  0.00  0.00    +0.005 A 
ATOM     36  C   UNL     1      -2.387   5.329  -6.179  0.00  0.00    +0.000 A 
ATOM     37  C   UNL     1      -1.510   6.173  -6.835  0.00  0.00    +0.000 A 
ATOM     38  C   UNL     1      -0.255   5.720  -7.197  0.00  0.00    +0.000 A 
ATOM     39  C   UNL     1       0.125   4.425  -6.899  0.00  0.00    +0.005 A 
ENDBRANCH  27  34
ENDBRANCH  24  27
ENDBRANCH  11  23
TORSDOF 6
