REMARK  Name = ZINC58914307
REMARK  11 active torsions:
REMARK  status: ('A' for Active; 'I' for Inactive)
REMARK    1  A    between atoms: C_1  and  C_2
REMARK    2  A    between atoms: C_4  and  C_15
REMARK    3  A    between atoms: C_5  and  C_14
REMARK    4  A    between atoms: N_6  and  C_7
REMARK    5  A    between atoms: N_16  and  N_17
REMARK    6  A    between atoms: C_18  and  C_20
REMARK    7  A    between atoms: C_20  and  N_21
REMARK    8  A    between atoms: N_21  and  C_22
REMARK    9  A    between atoms: N_21  and  S_28
REMARK   10  A    between atoms: C_22  and  C_23
REMARK   11  A    between atoms: S_28  and  C_31
REMARK                            x       y       z     vdW  Elec       q    Type
REMARK                         _______ _______ _______ _____ _____    ______ ____
ROOT
ATOM      1  N   UNL     1      -0.046  -4.629   0.496  0.00  0.00    -0.206 N 
ATOM      2  C   UNL     1      -0.095  -5.848   1.068  0.00  0.00    +0.248 C 
ATOM      3  O   UNL     1      -0.150  -6.842   0.374  0.00  0.00    -0.273 OA
ATOM      4  H   UNL     1      -0.002  -3.834   1.051  0.00  0.00    +0.177 HD
ENDROOT
BRANCH   1   6
ATOM      5  C   UNL     1      -0.128  -3.335  -1.449  0.00  0.00    +0.140 C 
ATOM      6  N   UNL     1      -0.059  -4.509  -0.900  0.00  0.00    -0.188 NA
BRANCH   5  10
ATOM      7  C   UNL     1      -1.584  -0.316   2.401  0.00  0.00    +0.064 C 
ATOM      8  C   UNL     1      -1.035  -0.829   1.095  0.00  0.00    +0.022 A 
ATOM      9  C   UNL     1      -0.998  -2.119   0.714  0.00  0.00    +0.032 A 
ATOM     10  C   UNL     1      -0.385  -2.145  -0.618  0.00  0.00    +0.016 A 
ATOM     11  C   UNL     1      -0.100  -0.848  -0.933  0.00  0.00    +0.030 A 
ATOM     12  N   UNL     1      -0.500  -0.060   0.101  0.00  0.00    -0.317 N 
ATOM     13  C   UNL     1       0.541  -0.370  -2.211  0.00  0.00    +0.064 C 
BRANCH  12  14
ATOM     14  C   UNL     1      -0.378   1.336   0.143  0.00  0.00    +0.047 A 
ATOM     15  C   UNL     1      -1.095   2.124  -0.747  0.00  0.00    +0.027 A 
ATOM     16  C   UNL     1      -0.973   3.499  -0.704  0.00  0.00    +0.022 A 
ATOM     17  C   UNL     1      -0.135   4.092   0.225  0.00  0.00    +0.041 A 
ATOM     18  C   UNL     1       0.581   3.308   1.113  0.00  0.00    +0.022 A 
ATOM     19  C   UNL     1       0.457   1.933   1.078  0.00  0.00    +0.027 A 
ATOM     20 CL   UNL     1       0.017   5.820   0.276  0.00  0.00    -0.084 Cl
ENDBRANCH  12  14
ENDBRANCH   5  10
ENDBRANCH   1   6
BRANCH   2  21
ATOM     21  C   UNL     1      -0.081  -5.978   2.570  0.00  0.00    +0.207 C 
BRANCH  21  22
ATOM     22  N   UNL     1      -0.141  -7.394   2.938  0.00  0.00    -0.160 NA
BRANCH  22  23
ATOM     23  S   UNL     1      -1.599  -8.097   3.287  0.00  0.00    +0.062 S 
ATOM     24  O   UNL     1      -1.322  -9.219   4.114  0.00  0.00    -0.153 OA
ATOM     25  O   UNL     1      -2.469  -7.049   3.692  0.00  0.00    -0.153 OA
BRANCH  23  26
ATOM     26  C   UNL     1      -2.246  -8.732   1.776  0.00  0.00    +0.106 A 
ATOM     27  C   UNL     1      -3.046  -7.936   0.978  0.00  0.00    +0.028 A 
ATOM     28  C   UNL     1      -3.554  -8.435  -0.207  0.00  0.00    +0.002 A 
ATOM     29  C   UNL     1      -3.260  -9.729  -0.595  0.00  0.00    +0.000 A 
ATOM     30  C   UNL     1      -2.459 -10.524   0.203  0.00  0.00    +0.002 A 
ATOM     31  C   UNL     1      -1.948 -10.024   1.386  0.00  0.00    +0.028 A 
ENDBRANCH  23  26
ENDBRANCH  22  23
BRANCH  22  32
ATOM     32  C   UNL     1       1.088  -8.188   2.999  0.00  0.00    +0.184 C 
BRANCH  32  33
ATOM     33  C   UNL     1       1.734  -8.013   4.349  0.00  0.00    +0.120 A 
ATOM     34  C   UNL     1       1.507  -8.775   5.434  0.00  0.00    +0.046 A 
ATOM     35  C   UNL     1       2.317  -8.261   6.473  0.00  0.00    +0.041 A 
ATOM     36  C   UNL     1       2.990  -7.215   5.960  0.00  0.00    +0.195 A 
ATOM     37  O   UNL     1       2.638  -7.074   4.672  0.00  0.00    -0.466 OA
ENDBRANCH  32  33
ENDBRANCH  22  32
ENDBRANCH  21  22
ENDBRANCH   2  21
TORSDOF 9
