REMARK  Name = ZINC45632499
REMARK  6 active torsions:
REMARK  status: ('A' for Active; 'I' for Inactive)
REMARK    1  A    between atoms: C_1  and  S_2
REMARK    2  A    between atoms: S_2  and  C_3
REMARK    3  A    between atoms: C_6  and  N_9
REMARK    4  A    between atoms: C_10  and  C_12
REMARK    5  A    between atoms: C_12  and  N_13
REMARK    6  A    between atoms: C_16  and  N_19
REMARK                            x       y       z     vdW  Elec       q    Type
REMARK                         _______ _______ _______ _____ _____    ______ ____
ROOT
ATOM      1  N   UNL     1       4.125  -4.455  -6.607  0.00  0.00    +0.386 N 
ATOM      2  C   UNL     1       2.817  -5.086  -6.822  0.00  0.00    -0.076 C 
ATOM      3  C   UNL     1       2.976  -6.608  -6.833  0.00  0.00    +0.006 C 
ATOM      4  C   UNL     1       3.930  -7.008  -7.962  0.00  0.00    +0.089 C 
ATOM      5  C   UNL     1       5.266  -6.287  -7.768  0.00  0.00    +0.006 C 
ATOM      6  C   UNL     1       5.023  -4.777  -7.723  0.00  0.00    -0.076 C 
ATOM      7  H   UNL     1       4.524  -4.799  -5.746  0.00  0.00    -0.081 HD
ENDROOT
BRANCH   4   8
ATOM      8  N   UNL     1       4.146  -8.457  -7.930  0.00  0.00    -0.289 N 
ATOM      9  C   UNL     1       3.852  -9.348  -8.959  0.00  0.00    +0.070 A 
ATOM     10  C   UNL     1       3.314  -9.193 -10.228  0.00  0.00    +0.028 A 
ATOM     11  C   UNL     1       3.139 -10.296 -11.040  0.00  0.00    +0.002 A 
ATOM     12  C   UNL     1       3.497 -11.556 -10.592  0.00  0.00    +0.002 A 
ATOM     13  C   UNL     1       4.032 -11.721  -9.330  0.00  0.00    +0.028 A 
ATOM     14  C   UNL     1       4.213 -10.619  -8.508  0.00  0.00    +0.067 A 
ATOM     15  N   UNL     1       4.715 -10.461  -7.218  0.00  0.00    -0.306 N 
ATOM     16  H   UNL     1       5.047 -11.172  -6.647  0.00  0.00    +0.170 HD
ATOM     17  C   UNL     1       4.667  -9.153  -6.902  0.00  0.00    +0.328 A 
ATOM     18  O   UNL     1       5.036  -8.674  -5.846  0.00  0.00    -0.247 OA
ENDBRANCH   4   8
BRANCH   1  19
ATOM     19  C   UNL     1       3.957  -2.999  -6.520  0.00  0.00    +0.019 C 
BRANCH  19  21
ATOM     20  N   UNL     1       2.851  -1.373  -5.019  0.00  0.00    -0.287 N 
ATOM     21  C   UNL     1       3.136  -2.660  -5.303  0.00  0.00    +0.201 C 
ATOM     22  O   UNL     1       2.731  -3.545  -4.579  0.00  0.00    -0.278 OA
ATOM     23  H   UNL     1       3.109  -0.672  -5.637  0.00  0.00    +0.155 HD
BRANCH  20  27
ATOM     24  C   UNL     1       0.865  -0.409  -1.480  0.00  0.00    +0.008 A 
ATOM     25  C   UNL     1       1.745  -1.484  -1.512  0.00  0.00    +0.016 A 
ATOM     26  C   UNL     1       2.402  -1.803  -2.684  0.00  0.00    +0.024 A 
ATOM     27  C   UNL     1       2.184  -1.049  -3.830  0.00  0.00    +0.033 A 
ATOM     28  C   UNL     1       1.305   0.025  -3.798  0.00  0.00    +0.024 A 
ATOM     29  C   UNL     1       0.643   0.341  -2.628  0.00  0.00    +0.016 A 
BRANCH  24  31
ATOM     30  C   UNL     1       0.626  -1.232   1.204  0.00  0.00    +0.090 C 
ATOM     31  S   UNL     1       0.026  -0.001   0.015  0.00  0.00    -0.129 S 
ENDBRANCH  24  31
ENDBRANCH  20  27
ENDBRANCH  19  21
ENDBRANCH   1  19
TORSDOF 5
