REMARK  Name = ZINC22926647
REMARK  8 active torsions:
REMARK  status: ('A' for Active; 'I' for Inactive)
REMARK    1  A    between atoms: C_1  and  C_2
REMARK    2  A    between atoms: C_2  and  C_4
REMARK    3  A    between atoms: C_2  and  N_18
REMARK    4  A    between atoms: C_4  and  C_6
REMARK    5  A    between atoms: C_6  and  C_16
REMARK    6  A    between atoms: N_21  and  C_24
REMARK    7  A    between atoms: C_24  and  C_25
REMARK    8  A    between atoms: C_24  and  C_32
REMARK                            x       y       z     vdW  Elec       q    Type
REMARK                         _______ _______ _______ _____ _____    ______ ____
ROOT
ATOM      1  N   UNL     1       3.236   2.824   1.700  0.00  0.00    +0.388 N 
ATOM      2  C   UNL     1       3.183   3.952   0.759  0.00  0.00    -0.062 C 
ATOM      3  C   UNL     1       4.394   4.860   0.987  0.00  0.00    +0.067 C 
ATOM      4  N   UNL     1       5.627   4.082   0.803  0.00  0.00    -0.295 NA
ATOM      5  C   UNL     1       5.680   2.954   1.743  0.00  0.00    +0.067 C 
ATOM      6  C   UNL     1       4.469   2.046   1.516  0.00  0.00    -0.062 C 
ATOM      7  H   UNL     1       3.241   3.233   2.721  0.00  0.00    -0.081 HD
ENDROOT
BRANCH   1   9
ATOM      8  C   UNL     1       0.787   2.828   1.675  0.00  0.00    -0.005 C 
ATOM      9  C   UNL     1       2.049   1.970   1.564  0.00  0.00    +0.002 C 
BRANCH   9  10
ATOM     10  C   UNL     1       2.049   0.933   2.658  0.00  0.00    +0.163 C 
ATOM     11  O   UNL     1       2.672   1.130   3.683  0.00  0.00    -0.293 OA
BRANCH  10  12
ATOM     12  C   UNL     1       1.327  -0.262   2.494  0.00  0.00    +0.128 C 
ATOM     13  C   UNL     1       1.322  -1.227   3.517  0.00  0.00    +0.113 C 
ATOM     14  N   UNL     1       1.983  -1.123   4.699  0.00  0.00    -0.300 N 
ATOM     15  C   UNL     1       1.730  -2.271   5.442  0.00  0.00    +0.054 A 
ATOM     16  C   UNL     1       2.136  -2.694   6.700  0.00  0.00    +0.025 A 
ATOM     17  C   UNL     1       1.718  -3.918   7.181  0.00  0.00    +0.002 A 
ATOM     18  C   UNL     1       0.895  -4.726   6.415  0.00  0.00    +0.002 A 
ATOM     19  C   UNL     1       0.485  -4.315   5.163  0.00  0.00    +0.025 A 
ATOM     20  C   UNL     1       0.900  -3.086   4.669  0.00  0.00    +0.054 A 
ATOM     21  N   UNL     1       0.661  -2.413   3.476  0.00  0.00    -0.300 N 
ATOM     22  H   UNL     1       2.585  -0.228   4.916  0.00  0.00    +0.153 HD
ATOM     23  H   UNL     1       0.069  -2.682   2.590  0.00  0.00    +0.153 HD
BRANCH  12  24
ATOM     24  C   UNL     1       0.593  -0.494   1.287  0.00  0.00    +0.106 C 
ATOM     25  N   UNL     1       0.010  -0.678   0.329  0.00  0.00    -0.191 NA
ENDBRANCH  12  24
ENDBRANCH  10  12
ENDBRANCH   9  10
ENDBRANCH   1   9
BRANCH   4  26
ATOM     26  C   UNL     1       6.814   4.936   0.938  0.00  0.00    +0.117 C 
BRANCH  26  27
ATOM     27  C   UNL     1       8.055   4.112   0.711  0.00  0.00    -0.026 A 
ATOM     28  C   UNL     1       8.111   3.224  -0.347  0.00  0.00    +0.008 A 
ATOM     29  C   UNL     1       9.250   2.471  -0.559  0.00  0.00    +0.038 A 
ATOM     30  C   UNL     1      10.332   2.599   0.295  0.00  0.00    +0.123 A 
ATOM     31  C   UNL     1      10.274   3.485   1.357  0.00  0.00    +0.038 A 
ATOM     32  C   UNL     1       9.135   4.240   1.564  0.00  0.00    +0.008 A 
ATOM     33  F   UNL     1      11.445   1.860   0.091  0.00  0.00    -0.205 F 
ENDBRANCH  26  27
BRANCH  26  34
ATOM     34  C   UNL     1       6.754   6.045  -0.081  0.00  0.00    -0.026 A 
ATOM     35  C   UNL     1       6.422   5.760  -1.392  0.00  0.00    +0.008 A 
ATOM     36  C   UNL     1       6.362   6.777  -2.326  0.00  0.00    +0.038 A 
ATOM     37  C   UNL     1       6.644   8.079  -1.951  0.00  0.00    +0.123 A 
ATOM     38  C   UNL     1       6.982   8.362  -0.638  0.00  0.00    +0.038 A 
ATOM     39  C   UNL     1       7.036   7.345   0.296  0.00  0.00    +0.008 A 
ATOM     40  F   UNL     1       6.591   9.073  -2.864  0.00  0.00    -0.205 F 
ENDBRANCH  26  34
ENDBRANCH   4  26
TORSDOF 7
