REMARK  Name = ZINC09233972
REMARK  4 active torsions:
REMARK  status: ('A' for Active; 'I' for Inactive)
REMARK    1  A    between atoms: C_4  and  C_7
REMARK    2  A    between atoms: C_7  and  C_9
REMARK    3  A    between atoms: C_11  and  C_29
REMARK    4  A    between atoms: C_33  and  N_35
REMARK                            x       y       z     vdW  Elec       q    Type
REMARK                         _______ _______ _______ _____ _____    ______ ____
ROOT
ATOM      1  C   UNL     1      -2.170  -0.383  -1.202  0.00  0.00    +0.069 C 
ATOM      2  C   UNL     1      -1.317  -0.793   0.021  0.00  0.00    +0.016 C 
ATOM      3  C   UNL     1      -2.190  -0.380   1.215  0.00  0.00    -0.047 C 
ATOM      4  C   UNL     1      -1.840  -1.204   2.463  0.00  0.00    +0.052 C 
ATOM      5  S   UNL     1      -3.442  -2.004   2.858  0.00  0.00    -0.181 S 
ATOM      6  C   UNL     1      -4.231  -1.762   1.207  0.00  0.00    -0.005 C 
ATOM      7  C   UNL     1      -3.615  -0.428  -0.688  0.00  0.00    +0.052 C 
ATOM      8  C   UNL     1      -4.349  -1.616  -1.252  0.00  0.00    -0.024 A 
ATOM      9  C   UNL     1      -4.143  -2.975  -1.174  0.00  0.00    +0.043 A 
ATOM     10  C   UNL     1      -5.013  -3.844  -1.814  0.00  0.00    +0.124 A 
ATOM     11  C   UNL     1      -6.085  -3.341  -2.531  0.00  0.00    +0.040 A 
ATOM     12  C   UNL     1      -6.292  -1.979  -2.610  0.00  0.00    +0.026 A 
ATOM     13  C   UNL     1      -5.422  -1.100  -1.969  0.00  0.00    +0.036 A 
ATOM     14  N   UNL     1      -5.421   0.296  -1.902  0.00  0.00    -0.286 N 
ATOM     15  C   UNL     1      -4.395   0.768  -1.170  0.00  0.00    +0.212 C 
ATOM     16  O   UNL     1      -4.147   1.933  -0.941  0.00  0.00    -0.277 OA
ATOM     17  F   UNL     1      -4.814  -5.178  -1.740  0.00  0.00    -0.205 F 
ATOM     18  H   UNL     1      -6.082   0.859  -2.334  0.00  0.00    +0.155 HD
ATOM     19  N   UNL     1      -3.593  -0.473   0.765  0.00  0.00    +0.401 N 
ATOM     20  H   UNL     1      -4.124   0.317   1.149  0.00  0.00    -0.078 HD
ENDROOT
BRANCH   2  21
ATOM     21  C   UNL     1      -0.009  -0.043   0.034  0.00  0.00    -0.043 A 
ATOM     22  C   UNL     1      -0.006   1.339   0.045  0.00  0.00    +0.004 A 
ATOM     23  C   UNL     1       1.193   2.027   0.057  0.00  0.00    +0.002 A 
ATOM     24  C   UNL     1       2.389   1.333   0.056  0.00  0.00    +0.033 A 
ATOM     25  C   UNL     1       2.385  -0.050   0.044  0.00  0.00    +0.126 A 
ATOM     26  C   UNL     1       1.186  -0.737   0.034  0.00  0.00    +0.036 A 
BRANCH  25  27
ATOM     27  N   UNL     1       3.665  -0.793   0.044  0.00  0.00    +0.056 N 
ATOM     28  O   UNL     1       3.661  -2.011   0.034  0.00  0.00    -0.126 OA
ATOM     29  O   UNL     1       4.721  -0.187   0.054  0.00  0.00    -0.126 OA
ENDBRANCH  25  27
ENDBRANCH   2  21
BRANCH   1  30
ATOM     30  C   UNL     1      -1.977  -1.363  -2.330  0.00  0.00    +0.166 C 
ATOM     31  O   UNL     1      -1.610  -2.495  -2.094  0.00  0.00    -0.292 OA
BRANCH  30  35
ATOM     32  C   UNL     1      -2.721  -0.166  -6.331  0.00  0.00    +0.000 A 
ATOM     33  C   UNL     1      -2.302  -1.458  -6.066  0.00  0.00    +0.001 A 
ATOM     34  C   UNL     1      -2.058  -1.855  -4.768  0.00  0.00    +0.011 A 
ATOM     35  C   UNL     1      -2.235  -0.948  -3.718  0.00  0.00    +0.018 A 
ATOM     36  C   UNL     1      -2.665   0.354  -3.994  0.00  0.00    +0.011 A 
ATOM     37  C   UNL     1      -2.900   0.737  -5.297  0.00  0.00    +0.001 A 
ENDBRANCH  30  35
ENDBRANCH   1  30
TORSDOF 4
