REMARK  Name = ZINC37104798
REMARK  5 active torsions:
REMARK  status: ('A' for Active; 'I' for Inactive)
REMARK    1  A    between atoms: C_1  and  C_2
REMARK    2  A    between atoms: C_2  and  C_4
REMARK    3  A    between atoms: C_2  and  N_11
REMARK    4  A    between atoms: N_11  and  C_12
REMARK    5  A    between atoms: C_15  and  C_18
REMARK                            x       y       z     vdW  Elec       q    Type
REMARK                         _______ _______ _______ _____ _____    ______ ____
ROOT
ATOM      1  C   UNL     1       2.190  -0.621  -0.984  0.00  0.00    +0.028 A 
ATOM      2  C   UNL     1       2.792  -0.362   0.241  0.00  0.00    +0.023 A 
ATOM      3  C   UNL     1       4.154  -0.525   0.390  0.00  0.00    +0.012 A 
ATOM      4  C   UNL     1       4.926  -0.949  -0.690  0.00  0.00    +0.002 A 
ATOM      5  C   UNL     1       4.319  -1.208  -1.918  0.00  0.00    +0.012 A 
ATOM      6  C   UNL     1       2.957  -1.050  -2.061  0.00  0.00    +0.023 A 
ENDROOT
BRANCH   4   7
ATOM      7  C   UNL     1       6.391  -1.124  -0.533  0.00  0.00    +0.092 A 
ATOM      8  C   UNL     1       7.288  -1.540  -1.536  0.00  0.00    +0.049 A 
ATOM      9  C   UNL     1       8.526  -1.573  -0.996  0.00  0.00    +0.105 A 
ATOM     10  N   UNL     1       8.427  -1.196   0.297  0.00  0.00    -0.284 N 
ATOM     11  H   UNL     1       9.161  -1.129   0.928  0.00  0.00    +0.188 HD
ATOM     12  N   UNL     1       7.082  -0.913   0.567  0.00  0.00    -0.174 NA
ENDBRANCH   4   7
BRANCH   1  13
ATOM     13  N   UNL     1       0.812  -0.456  -1.132  0.00  0.00    -0.337 N 
ATOM     14  H   UNL     1       0.390  -0.640  -1.986  0.00  0.00    +0.147 HD
BRANCH  13  16
ATOM     15  C   UNL     1       0.022   1.524   0.066  0.00  0.00    +0.033 C 
ATOM     16  C   UNL     1       0.002  -0.004   0.002  0.00  0.00    +0.099 C 
BRANCH  16  17
ATOM     17  C   UNL     1      -1.417  -0.481  -0.172  0.00  0.00    -0.014 A 
ATOM     18  C   UNL     1      -1.920  -0.707  -1.440  0.00  0.00    +0.006 A 
ATOM     19  C   UNL     1      -3.221  -1.145  -1.599  0.00  0.00    +0.000 A 
ATOM     20  C   UNL     1      -4.020  -1.358  -0.491  0.00  0.00    +0.001 A 
ATOM     21  C   UNL     1      -3.518  -1.132   0.777  0.00  0.00    +0.015 A 
ATOM     22  C   UNL     1      -2.214  -0.699   0.937  0.00  0.00    +0.023 A 
ATOM     23 BR   UNL     1      -1.524  -0.397   2.672  0.00  0.00    -0.050 Br
ENDBRANCH  16  17
ENDBRANCH  13  16
ENDBRANCH   1  13
TORSDOF 4
