REMARK  Name = ZINC16182946
REMARK  9 active torsions:
REMARK  status: ('A' for Active; 'I' for Inactive)
REMARK    1  A    between atoms: C_1  and  C_2
REMARK    2  A    between atoms: C_2  and  C_3
REMARK    3  A    between atoms: C_9  and  C_10
REMARK    4  A    between atoms: C_14  and  O_16
REMARK    5  A    between atoms: O_16  and  C_17
REMARK    6  A    between atoms: C_17  and  C_18
REMARK    7  A    between atoms: C_18  and  O_19
REMARK    8  A    between atoms: O_19  and  C_20
REMARK    9  A    between atoms: C_23  and  C_26
REMARK                            x       y       z     vdW  Elec       q    Type
REMARK                         _______ _______ _______ _____ _____    ______ ____
ROOT
ATOM      1  C   UNL     1       2.647   1.471  -6.976  0.00  0.00    -0.021 A 
ATOM      2  C   UNL     1       2.758   2.320  -5.867  0.00  0.00    +0.008 A 
ATOM      3  C   UNL     1       2.750   3.686  -6.044  0.00  0.00    +0.004 A 
ATOM      4  C   UNL     1       2.633   4.224  -7.314  0.00  0.00    +0.045 A 
ATOM      5  C   UNL     1       2.522   3.393  -8.421  0.00  0.00    +0.121 A 
ATOM      6  C   UNL     1       2.534   2.018  -8.259  0.00  0.00    +0.053 A 
ENDROOT
BRANCH   1  13
ATOM      7  C   UNL     1       5.249   0.044  -1.490  0.00  0.00    +0.100 C 
ATOM      8  N   UNL     1       5.059   0.566  -2.667  0.00  0.00    -0.169 NA
ATOM      9  N   UNL     1       4.579  -0.189  -3.716  0.00  0.00    -0.152 N 
ATOM     10  C   UNL     1       4.422   0.253  -5.047  0.00  0.00    +0.152 C 
ATOM     11  N   UNL     1       5.079   1.263  -5.550  0.00  0.00    -0.283 NA
ATOM     12  C   UNL     1       3.431  -0.548  -5.823  0.00  0.00    +0.081 C 
ATOM     13  C   UNL     1       2.654   0.015  -6.794  0.00  0.00    +0.024 C 
ATOM     14  C   UNL     1       3.336  -1.990  -5.481  0.00  0.00    +0.273 C 
ATOM     15  O   UNL     1       2.933  -2.803  -6.298  0.00  0.00    -0.268 OA
ATOM     16  N   UNL     1       3.706  -2.374  -4.245  0.00  0.00    -0.152 NA
ATOM     17  C   UNL     1       4.252  -1.499  -3.438  0.00  0.00    +0.181 C 
ATOM     18  S   UNL     1       4.747  -1.653  -1.742  0.00  0.00    -0.038 S 
ATOM     19  H   UNL     1       5.659   1.795  -4.983  0.00  0.00    +0.188 HD
BRANCH   7  21
ATOM     20  C   UNL     1       6.064   2.175  -0.518  0.00  0.00    +0.011 C 
ATOM     21  C   UNL     1       5.767   0.701  -0.236  0.00  0.00    +0.061 C 
ENDBRANCH   7  21
ENDBRANCH   1  13
BRANCH   5  22
ATOM     22  O   UNL     1       2.407   3.929  -9.664  0.00  0.00    -0.489 OA
BRANCH  22  23
ATOM     23  C   UNL     1       2.407   5.355  -9.758  0.00  0.00    +0.270 C 
BRANCH  23  24
ATOM     24  C   UNL     1       2.270   5.770 -11.224  0.00  0.00    +0.270 C 
BRANCH  24  25
ATOM     25  O   UNL     1       0.993   5.359 -11.718  0.00  0.00    -0.489 OA
BRANCH  25  26
ATOM     26  C   UNL     1       0.710   5.652 -13.014  0.00  0.00    +0.121 A 
ATOM     27  C   UNL     1       1.643   6.317 -13.796  0.00  0.00    +0.046 A 
ATOM     28  C   UNL     1       1.352   6.614 -15.114  0.00  0.00    +0.007 A 
ATOM     29  C   UNL     1       0.132   6.250 -15.653  0.00  0.00    -0.050 A 
ATOM     30  C   UNL     1      -0.800   5.587 -14.875  0.00  0.00    +0.007 A 
ATOM     31  C   UNL     1      -0.512   5.282 -13.559  0.00  0.00    +0.046 A 
ATOM     32  C   UNL     1      -0.183   6.575 -17.090  0.00  0.00    +0.044 C 
ENDBRANCH  25  26
ENDBRANCH  24  25
ENDBRANCH  23  24
ENDBRANCH  22  23
ENDBRANCH   5  22
TORSDOF 7
