REMARK  Name = ZINC19900718
REMARK  7 active torsions:
REMARK  status: ('A' for Active; 'I' for Inactive)
REMARK    1  A    between atoms: C_4  and  C_7
REMARK    2  A    between atoms: C_7  and  C_8
REMARK    3  A    between atoms: C_8  and  N_9
REMARK    4  A    between atoms: C_13  and  C_22
REMARK    5  A    between atoms: C_14  and  N_16
REMARK    6  A    between atoms: N_26  and  C_28
REMARK    7  A    between atoms: C_28  and  C_29
REMARK                            x       y       z     vdW  Elec       q    Type
REMARK                         _______ _______ _______ _____ _____    ______ ____
ROOT
ATOM      1  N   UNL     1      -1.375  -0.513  -0.101  0.00  0.00    -0.330 N 
ATOM      2  C   UNL     1      -1.608  -1.877  -0.049  0.00  0.00    +0.102 A 
ATOM      3  C   UNL     1      -2.924  -2.346   0.017  0.00  0.00    +0.009 A 
ATOM      4  C   UNL     1      -3.151  -3.689   0.064  0.00  0.00    -0.018 A 
ATOM      5  C   UNL     1      -2.051  -4.562   0.051  0.00  0.00    +0.093 A 
ATOM      6  C   UNL     1      -0.754  -4.024  -0.013  0.00  0.00    +0.118 A 
ATOM      7  N   UNL     1      -0.582  -2.712  -0.067  0.00  0.00    -0.331 N 
ATOM      8  C   UNL     1      -4.541  -4.263   0.123  0.00  0.00    +0.052 C 
ATOM      9  C   UNL     1      -5.535  -3.179   0.542  0.00  0.00    +0.090 C 
ATOM     10  N   UNL     1      -5.319  -1.996  -0.306  0.00  0.00    -0.294 NA
ATOM     11  C   UNL     1      -4.050  -1.347   0.040  0.00  0.00    +0.123 C 
ATOM     12  H   UNL     1      -2.220   0.191  -0.091  0.00  0.00    +0.147 HD
ATOM     13  H   UNL     1       0.445  -2.321  -0.127  0.00  0.00    +0.168 HD
ENDROOT
BRANCH   6  14
ATOM     14  N   UNL     1       0.343  -4.866  -0.027  0.00  0.00    -0.316 N 
ATOM     15  C   UNL     1       1.197  -4.637   1.146  0.00  0.00    +0.106 C 
ATOM     16  C   UNL     1       2.317  -5.679   1.175  0.00  0.00    +0.019 C 
ATOM     17  C   UNL     1       3.143  -5.570  -0.110  0.00  0.00    +0.003 C 
ATOM     18  C   UNL     1       2.221  -5.765  -1.317  0.00  0.00    +0.019 C 
ATOM     19  C   UNL     1       1.104  -4.720  -1.274  0.00  0.00    +0.106 C 
ENDBRANCH   6  14
BRANCH   5  20
ATOM     20  C   UNL     1      -2.247  -5.980   0.102  0.00  0.00    +0.103 C 
ATOM     21  N   UNL     1      -2.403  -7.104   0.143  0.00  0.00    -0.191 NA
ENDBRANCH   5  20
BRANCH   1  22
ATOM     22  C   UNL     1      -0.002  -0.006  -0.170  0.00  0.00    +0.107 C 
BRANCH  22  23
ATOM     23  C   UNL     1      -0.024   1.523  -0.218  0.00  0.00    +0.054 C 
BRANCH  23  27
ATOM     24  C   UNL     1       3.980   2.999  -0.419  0.00  0.00    +0.000 A 
ATOM     25  C   UNL     1       3.286   2.722  -1.582  0.00  0.00    +0.000 A 
ATOM     26  C   UNL     1       1.991   2.244  -1.517  0.00  0.00    +0.004 A 
ATOM     27  C   UNL     1       1.389   2.043  -0.289  0.00  0.00    -0.046 A 
ATOM     28  C   UNL     1       2.080   2.326   0.874  0.00  0.00    +0.004 A 
ATOM     29  C   UNL     1       3.378   2.799   0.809  0.00  0.00    +0.000 A 
ENDBRANCH  23  27
ENDBRANCH  22  23
ENDBRANCH   1  22
BRANCH  10  30
ATOM     30  C   UNL     1      -6.440  -1.054  -0.191  0.00  0.00    +0.120 C 
BRANCH  30  31
ATOM     31  C   UNL     1      -7.685  -1.682  -0.763  0.00  0.00    -0.033 A 
ATOM     32  C   UNL     1      -7.991  -1.515  -2.101  0.00  0.00    +0.005 A 
ATOM     33  C   UNL     1      -9.130  -2.096  -2.627  0.00  0.00    +0.000 A 
ATOM     34  C   UNL     1      -9.969  -2.834  -1.813  0.00  0.00    +0.000 A 
ATOM     35  C   UNL     1      -9.665  -2.996  -0.474  0.00  0.00    +0.000 A 
ATOM     36  C   UNL     1      -8.523  -2.420   0.051  0.00  0.00    +0.005 A 
ENDBRANCH  30  31
ENDBRANCH  10  30
TORSDOF 7
