REMARK  Name = ZINC64890539
REMARK  10 active torsions:
REMARK  status: ('A' for Active; 'I' for Inactive)
REMARK    1  A    between atoms: C_1  and  C_2
REMARK    2  A    between atoms: C_5  and  S_8
REMARK    3  A    between atoms: S_8  and  N_11
REMARK    4  A    between atoms: N_11  and  C_12
REMARK    5  A    between atoms: C_12  and  C_14
REMARK    6  A    between atoms: C_12  and  C_34
REMARK    7  A    between atoms: C_17  and  C_20
REMARK    8  A    between atoms: N_32  and  C_33
REMARK    9  A    between atoms: C_34  and  C_35
REMARK   10  A    between atoms: C_34  and  C_36
REMARK                            x       y       z     vdW  Elec       q    Type
REMARK                         _______ _______ _______ _____ _____    ______ ____
ROOT
ATOM      1  C   UNL     1       3.347  -3.928   0.316  0.00  0.00    +0.262 C 
ATOM      2  N   UNL     1       2.905  -2.645  -0.245  0.00  0.00    -0.341 N 
ATOM      3  C   UNL     1       3.751  -1.725   0.106  0.00  0.00    +0.134 C 
ATOM      4  N   UNL     1       4.764  -2.242   0.875  0.00  0.00    -0.247 N 
ATOM      5  O   UNL     1       4.554  -3.638   1.036  0.00  0.00    -0.246 OA
ATOM      6  H   UNL     1       5.504  -1.736   1.246  0.00  0.00    +0.196 HD
ATOM      7  H   UNL     1       2.114  -2.508  -0.788  0.00  0.00    +0.164 HD
ENDROOT
BRANCH   3   8
ATOM      8  C   UNL     1       3.636  -0.299  -0.274  0.00  0.00    +0.019 A 
ATOM      9  C   UNL     1       2.377   0.272  -0.475  0.00  0.00    +0.013 A 
ATOM     10  C   UNL     1       2.269   1.597  -0.828  0.00  0.00    +0.028 A 
ATOM     11  C   UNL     1       3.412   2.377  -0.986  0.00  0.00    +0.068 A 
ATOM     12  C   UNL     1       4.674   1.811  -0.787  0.00  0.00    +0.067 A 
ATOM     13  C   UNL     1       4.784   0.475  -0.426  0.00  0.00    +0.039 A 
ATOM     14  N   UNL     1       5.827   2.577  -0.943  0.00  0.00    -0.316 N 
ATOM     15  H   UNL     1       6.699   2.176  -0.802  0.00  0.00    +0.169 HD
ATOM     16  C   UNL     1       5.732   3.877  -1.288  0.00  0.00    +0.314 A 
ATOM     17  O   UNL     1       6.734   4.550  -1.426  0.00  0.00    -0.262 OA
ATOM     18  C   UNL     1       4.384   4.480  -1.500  0.00  0.00    +0.316 A 
ATOM     19  O   UNL     1       4.277   5.649  -1.812  0.00  0.00    -0.262 OA
ATOM     20  N   UNL     1       3.286   3.714  -1.343  0.00  0.00    -0.305 N 
ATOM     21  C   UNL     1       1.956   4.293  -1.549  0.00  0.00    +0.153 C 
ENDBRANCH   3   8
BRANCH   1  22
ATOM     22  C   UNL     1       2.284  -4.484   1.266  0.00  0.00    +0.131 C 
BRANCH  22  23
ATOM     23  C   UNL     1       2.754  -5.828   1.827  0.00  0.00    +0.006 C 
ATOM     24  C   UNL     1       3.078  -6.777   0.671  0.00  0.00    +0.009 C 
ATOM     25  C   UNL     1       4.008  -5.615   2.678  0.00  0.00    +0.009 C 
ENDBRANCH  22  23
BRANCH  22  26
ATOM     26  N   UNL     1       1.027  -4.671   0.538  0.00  0.00    -0.182 NA
ATOM     27  H   UNL     1       1.042  -4.949  -0.391  0.00  0.00    +0.148 HD
BRANCH  26  28
ATOM     28  S   UNL     1      -0.419  -4.407   1.300  0.00  0.00    +0.059 S 
ATOM     29  O   UNL     1      -0.374  -5.137   2.519  0.00  0.00    -0.153 OA
ATOM     30  O   UNL     1      -1.434  -4.610   0.327  0.00  0.00    -0.153 OA
BRANCH  28  35
ATOM     31  C   UNL     1      -0.610   1.435   2.797  0.00  0.00    +0.044 C 
ATOM     32  C   UNL     1      -0.562  -0.024   2.424  0.00  0.00    -0.050 A 
ATOM     33  C   UNL     1      -1.049  -0.440   1.198  0.00  0.00    +0.005 A 
ATOM     34  C   UNL     1      -1.005  -1.779   0.855  0.00  0.00    +0.029 A 
ATOM     35  C   UNL     1      -0.474  -2.701   1.737  0.00  0.00    +0.105 A 
ATOM     36  C   UNL     1       0.013  -2.285   2.962  0.00  0.00    +0.029 A 
ATOM     37  C   UNL     1      -0.027  -0.946   3.303  0.00  0.00    +0.005 A 
ENDBRANCH  28  35
ENDBRANCH  26  28
ENDBRANCH  22  26
ENDBRANCH   1  22
TORSDOF 6
