REMARK  Name = ZINC09325265
REMARK  10 active torsions:
REMARK  status: ('A' for Active; 'I' for Inactive)
REMARK    1  A    between atoms: C_1  and  C_2
REMARK    2  A    between atoms: C_2  and  O_3
REMARK    3  A    between atoms: O_3  and  C_4
REMARK    4  A    between atoms: C_4  and  C_6
REMARK    5  A    between atoms: C_10  and  N_11
REMARK    6  A    between atoms: C_12  and  C_14
REMARK    7  A    between atoms: C_14  and  S_15
REMARK    8  A    between atoms: S_15  and  C_16
REMARK    9  A    between atoms: C_27  and  O_29
REMARK   10  A    between atoms: O_29  and  C_30
REMARK                            x       y       z     vdW  Elec       q    Type
REMARK                         _______ _______ _______ _____ _____    ______ ____
ROOT
ATOM      1  C   UNL     1       5.533   8.531  -0.001  0.00  0.00    +0.091 A 
ATOM      2  C   UNL     1       5.380   9.977   0.004  0.00  0.00    -0.018 A 
ATOM      3  C   UNL     1       4.103  10.418   0.018  0.00  0.00    +0.013 A 
ATOM      4  S   UNL     1       3.115   8.950   0.019  0.00  0.00    -0.076 S 
ATOM      5  C   UNL     1       4.377   7.763   0.001  0.00  0.00    +0.086 A 
ATOM      6  C   UNL     1       3.645  11.845   0.025  0.00  0.00    +0.153 C 
ATOM      7  N   UNL     1       4.838  12.684   0.250  0.00  0.00    -0.262 N 
ATOM      8  C   UNL     1       6.068  12.322  -0.471  0.00  0.00    +0.116 C 
ATOM      9  C   UNL     1       6.553  10.950   0.001  0.00  0.00    +0.056 C 
ATOM     10  C   UNL     1       4.802  13.743   1.083  0.00  0.00    +0.403 C 
ATOM     11  O   UNL     1       5.798  14.419   1.250  0.00  0.00    -0.226 OA
ENDROOT
BRANCH   5  12
ATOM     12  N   UNL     1       4.260   6.382  -0.005  0.00  0.00    -0.279 N 
ATOM     13  C   UNL     1       3.040   5.809   0.003  0.00  0.00    +0.228 C 
ATOM     14  O   UNL     1       2.045   6.501   0.016  0.00  0.00    -0.275 OA
ATOM     15  H   UNL     1       5.056   5.828  -0.015  0.00  0.00    +0.155 HD
BRANCH  13  16
ATOM     16  C   UNL     1       2.913   4.307  -0.003  0.00  0.00    +0.170 C 
BRANCH  16  17
ATOM     17  S   UNL     1       1.158   3.848   0.011  0.00  0.00    -0.116 S 
BRANCH  17  18
ATOM     18  C   UNL     1       1.178   2.086   0.002  0.00  0.00    +0.008 A 
ATOM     19  C   UNL     1      -0.017   1.377   0.010  0.00  0.00    +0.016 A 
ATOM     20  C   UNL     1       0.002  -0.004   0.002  0.00  0.00    +0.021 A 
ATOM     21  C   UNL     1       1.209  -0.681  -0.013  0.00  0.00    +0.041 A 
ATOM     22  C   UNL     1       2.401   0.023  -0.020  0.00  0.00    +0.021 A 
ATOM     23  C   UNL     1       2.388   1.404  -0.013  0.00  0.00    +0.016 A 
ATOM     24 CL   UNL     1       1.228  -2.417  -0.021  0.00  0.00    -0.084 Cl
ENDBRANCH  17  18
ENDBRANCH  16  17
ENDBRANCH  13  16
ENDBRANCH   5  12
BRANCH   1  25
ATOM     25  C   UNL     1       6.858   7.908  -0.010  0.00  0.00    +0.342 C 
ATOM     26  O   UNL     1       7.404   7.656  -1.068  0.00  0.00    -0.245 OA
BRANCH  25  27
ATOM     27  O   UNL     1       7.474   7.614   1.153  0.00  0.00    -0.461 OA
BRANCH  27  29
ATOM     28  C   UNL     1       9.322   6.740   2.478  0.00  0.00    +0.048 C 
ATOM     29  C   UNL     1       8.786   6.998   1.068  0.00  0.00    +0.229 C 
ENDBRANCH  27  29
ENDBRANCH  25  27
ENDBRANCH   1  25
BRANCH  10  30
ATOM     30  O   UNL     1       3.662  14.053   1.729  0.00  0.00    -0.454 OA
ATOM     31  C   UNL     1       3.696  15.206   2.610  0.00  0.00    +0.282 C 
ENDBRANCH  10  30
TORSDOF 8
