REMARK  Name = ZINC27343987
REMARK  7 active torsions:
REMARK  status: ('A' for Active; 'I' for Inactive)
REMARK    1  A    between atoms: C_5  and  C_7
REMARK    2  A    between atoms: C_7  and  C_9
REMARK    3  A    between atoms: C_7  and  N_31
REMARK    4  A    between atoms: C_9  and  N_10
REMARK    5  A    between atoms: C_11  and  C_13
REMARK    6  A    between atoms: N_21  and  C_24
REMARK    7  A    between atoms: C_24  and  C_25
REMARK                            x       y       z     vdW  Elec       q    Type
REMARK                         _______ _______ _______ _____ _____    ______ ____
ROOT
ATOM      1  N   UNL     1       3.913   1.740   1.075  0.00  0.00    -0.313 N 
ATOM      2  C   UNL     1       3.017   1.115   1.865  0.00  0.00    +0.244 C 
ATOM      3  O   UNL     1       3.317   0.078   2.423  0.00  0.00    -0.270 OA
ATOM      4  H   UNL     1       3.641   2.678   0.570  0.00  0.00    +0.149 HD
ENDROOT
BRANCH   2   5
ATOM      5  C   UNL     1       1.666   1.691   2.051  0.00  0.00    +0.037 A 
ATOM      6  C   UNL     1       1.323   2.881   1.409  0.00  0.00    +0.014 A 
ATOM      7  C   UNL     1       0.062   3.427   1.578  0.00  0.00    +0.014 A 
ATOM      8  C   UNL     1      -0.864   2.790   2.388  0.00  0.00    +0.049 A 
ATOM      9  C   UNL     1      -0.525   1.584   3.035  0.00  0.00    +0.050 A 
ATOM     10  C   UNL     1       0.738   1.042   2.870  0.00  0.00    +0.027 A 
ATOM     11  C   UNL     1      -1.722   1.188   3.808  0.00  0.00    +0.254 C 
ATOM     12  O   UNL     1      -1.821   0.198   4.504  0.00  0.00    -0.270 OA
ATOM     13  N   UNL     1      -2.685   2.106   3.606  0.00  0.00    -0.232 N 
ATOM     14  C   UNL     1      -2.261   3.081   2.783  0.00  0.00    +0.254 C 
ATOM     15  O   UNL     1      -2.914   4.039   2.424  0.00  0.00    -0.270 OA
BRANCH  13  16
ATOM     16  C   UNL     1      -4.021   2.049   4.205  0.00  0.00    +0.148 C 
BRANCH  16  17
ATOM     17  C   UNL     1      -4.964   1.280   3.278  0.00  0.00    +0.136 C 
ATOM     18  C   UNL     1      -6.399   1.314   3.845  0.00  0.00    +0.035 C 
ATOM     19  C   UNL     1      -6.908  -0.122   3.542  0.00  0.00    +0.031 C 
ATOM     20  C   UNL     1      -5.603  -0.939   3.715  0.00  0.00    +0.160 C 
ATOM     21  O   UNL     1      -4.560  -0.093   3.205  0.00  0.00    -0.375 OA
ENDBRANCH  16  17
ENDBRANCH  13  16
ENDBRANCH   2   5
BRANCH   1  22
ATOM     22  C   UNL     1       5.250   1.169   0.891  0.00  0.00    +0.094 C 
BRANCH  22  23
ATOM     23  C   UNL     1       6.063   2.067  -0.044  0.00  0.00    -0.019 C 
BRANCH  23  28
ATOM     24  C   UNL     1       9.782   1.495   0.261  0.00  0.00    +0.000 A 
ATOM     25  C   UNL     1       9.964   0.408  -0.574  0.00  0.00    +0.001 A 
ATOM     26  C   UNL     1       8.884  -0.142  -1.238  0.00  0.00    +0.020 A 
ATOM     27  C   UNL     1       7.620   0.391  -1.062  0.00  0.00    +0.043 A 
ATOM     28  C   UNL     1       7.439   1.482  -0.231  0.00  0.00    -0.041 A 
ATOM     29  C   UNL     1       8.520   2.031   0.433  0.00  0.00    +0.003 A 
ATOM     30 CL   UNL     1       6.261  -0.304  -1.890  0.00  0.00    -0.083 Cl
ENDBRANCH  23  28
BRANCH  23  31
ATOM     31  N   UNL     1       6.177   3.409   0.543  0.00  0.00    +0.385 N 
ATOM     32  C   UNL     1       6.596   3.334   1.966  0.00  0.00    -0.078 C 
ATOM     33  C   UNL     1       7.162   4.749   2.244  0.00  0.00    -0.020 C 
ATOM     34  C   UNL     1       7.875   5.102   0.919  0.00  0.00    -0.020 C 
ATOM     35  C   UNL     1       7.221   4.200  -0.144  0.00  0.00    -0.078 C 
ATOM     36  H   UNL     1       5.184   3.869   0.432  0.00  0.00    -0.081 HD
ENDBRANCH  23  31
ENDBRANCH  22  23
ENDBRANCH   1  22
TORSDOF 7
