REMARK  Name = ZINC63571850
REMARK  4 active torsions:
REMARK  status: ('A' for Active; 'I' for Inactive)
REMARK    1  A    between atoms: C_1  and  C_2
REMARK    2  A    between atoms: C_5  and  C_8
REMARK    3  A    between atoms: C_8  and  N_9
REMARK    4  A    between atoms: C_25  and  C_27
REMARK                            x       y       z     vdW  Elec       q    Type
REMARK                         _______ _______ _______ _____ _____    ______ ____
ROOT
ATOM      1  N   UNL     1       1.349  -4.807   0.014  0.00  0.00    -0.295 N 
ATOM      2  C   UNL     1       1.652  -6.120  -0.017  0.00  0.00    +0.303 C 
ATOM      3  O   UNL     1       0.766  -6.950   0.049  0.00  0.00    -0.253 OA
ATOM      4  N   UNL     1       2.937  -6.512  -0.123  0.00  0.00    -0.276 N 
ATOM      5  C   UNL     1       4.008  -5.511  -0.082  0.00  0.00    +0.114 C 
ATOM      6  C   UNL     1       4.848  -5.606  -1.369  0.00  0.00    +0.052 C 
ATOM      7  C   UNL     1       5.118  -7.071  -1.601  0.00  0.00    -0.035 C 
ATOM      8  C   UNL     1       6.249  -7.732  -1.819  0.00  0.00    -0.001 A 
ATOM      9  C   UNL     1       7.631  -7.268  -2.021  0.00  0.00    +0.010 A 
ATOM     10  C   UNL     1       8.568  -8.236  -2.202  0.00  0.00    +0.001 A 
ATOM     11  C   UNL     1       8.272  -9.603  -2.202  0.00  0.00    +0.002 A 
ATOM     12  C   UNL     1       7.028 -10.118  -2.032  0.00  0.00    +0.026 A 
ATOM     13  C   UNL     1       5.957  -9.197  -1.841  0.00  0.00    +0.043 A 
ATOM     14  N   UNL     1       4.684  -9.410  -1.679  0.00  0.00    -0.375 N 
ATOM     15  C   UNL     1       4.007  -8.115  -1.598  0.00  0.00    +0.131 C 
ATOM     16  C   UNL     1       3.252  -7.942  -0.271  0.00  0.00    +0.134 C 
ATOM     17  H   UNL     1       2.059  -4.146   0.035  0.00  0.00    +0.151 HD
ATOM     18  H   UNL     1       4.256 -10.278  -1.622  0.00  0.00    +0.160 HD
ENDROOT
BRANCH  16  19
ATOM     19  C   UNL     1       4.117  -8.396   0.876  0.00  0.00    -0.025 A 
ATOM     20  C   UNL     1       3.706  -9.443   1.679  0.00  0.00    +0.008 A 
ATOM     21  C   UNL     1       4.499  -9.861   2.731  0.00  0.00    +0.038 A 
ATOM     22  C   UNL     1       5.706  -9.230   2.980  0.00  0.00    +0.123 A 
ATOM     23  C   UNL     1       6.117  -8.182   2.174  0.00  0.00    +0.038 A 
ATOM     24  C   UNL     1       5.325  -7.769   1.120  0.00  0.00    +0.008 A 
ATOM     25  F   UNL     1       6.482  -9.637   4.008  0.00  0.00    -0.205 F 
ENDBRANCH  16  19
BRANCH   1  26
ATOM     26  C   UNL     1      -0.052  -4.378   0.017  0.00  0.00    +0.141 C 
BRANCH  26  31
ATOM     27  C   UNL     1      -0.303   1.393   0.162  0.00  0.00    +0.044 C 
ATOM     28  C   UNL     1      -0.238  -0.112   0.124  0.00  0.00    -0.050 A 
ATOM     29  C   UNL     1      -0.200  -0.772  -1.090  0.00  0.00    +0.003 A 
ATOM     30  C   UNL     1      -0.139  -2.152  -1.124  0.00  0.00    +0.005 A 
ATOM     31  C   UNL     1      -0.117  -2.873   0.055  0.00  0.00    -0.030 A 
ATOM     32  C   UNL     1      -0.153  -2.213   1.269  0.00  0.00    +0.005 A 
ATOM     33  C   UNL     1      -0.209  -0.832   1.304  0.00  0.00    +0.003 A 
ENDBRANCH  26  31
ENDBRANCH   1  26
TORSDOF 3
