REMARK  Name = ZINC50839550
REMARK  5 active torsions:
REMARK  status: ('A' for Active; 'I' for Inactive)
REMARK    1  A    between atoms: C_6  and  N_21
REMARK    2  A    between atoms: C_8  and  C_10
REMARK    3  A    between atoms: C_10  and  S_11
REMARK    4  A    between atoms: S_11  and  C_12
REMARK    5  A    between atoms: C_18  and  N_20
REMARK                            x       y       z     vdW  Elec       q    Type
REMARK                         _______ _______ _______ _____ _____    ______ ____
ROOT
ATOM      1  C   UNL     1       0.639  -4.186  -0.028  0.00  0.00    +0.153 C 
ENDROOT
BRANCH   1   9
ATOM      2  C   UNL     1      -0.018   1.448   0.010  0.00  0.00    +0.021 A 
ATOM      3  C   UNL     1       1.144   2.119   0.003  0.00  0.00    +0.048 A 
ATOM      4  S   UNL     1       2.371   0.826  -0.016  0.00  0.00    -0.077 S 
ATOM      5  C   UNL     1       1.291  -0.580  -0.013  0.00  0.00    +0.114 A 
ATOM      6  C   UNL     1       0.002  -0.004   0.002  0.00  0.00    +0.047 A 
ATOM      7  C   UNL     1      -1.078  -0.928   0.007  0.00  0.00    +0.128 A 
ATOM      8  N   UNL     1      -0.818  -2.226  -0.003  0.00  0.00    -0.216 NA
ATOM      9  C   UNL     1       0.417  -2.695  -0.017  0.00  0.00    +0.143 A 
ATOM     10  N   UNL     1       1.460  -1.888  -0.022  0.00  0.00    -0.224 NA
BRANCH   7  11
ATOM     11  N   UNL     1      -2.386  -0.477   0.022  0.00  0.00    -0.343 N 
ATOM     12  H   UNL     1      -2.570   0.475   0.030  0.00  0.00    +0.144 HD
ATOM     13  H   UNL     1      -3.118  -1.113   0.025  0.00  0.00    +0.144 HD
ENDBRANCH   7  11
ENDBRANCH   1   9
BRANCH   1  14
ATOM     14  S   UNL     1       0.712  -4.774  -1.742  0.00  0.00    -0.080 S 
BRANCH  14  15
ATOM     15  C   UNL     1       0.971  -6.510  -1.587  0.00  0.00    +0.171 A 
ATOM     16  N   UNL     1       1.081  -7.271  -2.710  0.00  0.00    -0.302 N 
ATOM     17  H   UNL     1       1.016  -6.856  -3.585  0.00  0.00    +0.171 HD
ATOM     18  C   UNL     1       1.280  -8.602  -2.610  0.00  0.00    +0.254 A 
ATOM     19  O   UNL     1       1.379  -9.293  -3.612  0.00  0.00    -0.268 OA
ATOM     20  C   UNL     1       1.371  -9.178  -1.339  0.00  0.00    +0.113 A 
ATOM     21  C   UNL     1       1.252  -8.358  -0.225  0.00  0.00    +0.124 A 
ATOM     22  N   UNL     1       1.061  -7.044  -0.386  0.00  0.00    -0.209 NA
BRANCH  21  23
ATOM     23  N   UNL     1       1.338  -8.896   1.043  0.00  0.00    -0.343 N 
ATOM     24  H   UNL     1       1.480  -9.848   1.158  0.00  0.00    +0.144 HD
ATOM     25  H   UNL     1       1.255  -8.321   1.820  0.00  0.00    +0.144 HD
ENDBRANCH  21  23
ENDBRANCH  14  15
ENDBRANCH   1  14
TORSDOF 5
