REMARK  Name = ZINC03532414
REMARK  5 active torsions:
REMARK  status: ('A' for Active; 'I' for Inactive)
REMARK    1  A    between atoms: C_4  and  N_7
REMARK    2  A    between atoms: C_11  and  S_13
REMARK    3  A    between atoms: S_13  and  C_14
REMARK    4  A    between atoms: C_14  and  C_15
REMARK    5  A    between atoms: N_20  and  C_21
REMARK                            x       y       z     vdW  Elec       q    Type
REMARK                         _______ _______ _______ _____ _____    ______ ____
ROOT
ATOM      1  S   UNL     1       4.734  -6.322   0.400  0.00  0.00    -0.088 S 
ENDROOT
BRANCH   1   6
ATOM      2  N   UNL     1       3.620  -0.649  -0.037  0.00  0.00    -0.292 N 
ATOM      3  C   UNL     1       3.644  -2.036   0.060  0.00  0.00    +0.187 A 
ATOM      4  N   UNL     1       2.639  -2.890   0.079  0.00  0.00    -0.125 NA
ATOM      5  N   UNL     1       2.889  -4.239   0.182  0.00  0.00    -0.133 NA
ATOM      6  C   UNL     1       4.133  -4.672   0.262  0.00  0.00    +0.160 A 
ATOM      7  S   UNL     1       5.045  -3.138   0.185  0.00  0.00    -0.024 S 
ATOM      8  H   UNL     1       4.450  -0.155  -0.124  0.00  0.00    +0.154 HD
BRANCH   2  12
ATOM      9  C   UNL     1      -0.015   1.381   0.044  0.00  0.00    +0.000 A 
ATOM     10  C   UNL     1       0.092   0.135   0.633  0.00  0.00    +0.002 A 
ATOM     11  C   UNL     1       1.296  -0.541   0.608  0.00  0.00    +0.023 A 
ATOM     12  C   UNL     1       2.401   0.032  -0.011  0.00  0.00    +0.033 A 
ATOM     13  C   UNL     1       2.289   1.284  -0.602  0.00  0.00    +0.023 A 
ATOM     14  C   UNL     1       1.083   1.955  -0.573  0.00  0.00    +0.002 A 
ENDBRANCH   2  12
ENDBRANCH   1   6
BRANCH   1  15
ATOM     15  C   UNL     1       3.230  -7.338   0.410  0.00  0.00    +0.172 C 
BRANCH  15  16
ATOM     16  C   UNL     1       3.607  -8.792   0.525  0.00  0.00    +0.231 C 
ATOM     17  O   UNL     1       4.774  -9.112   0.595  0.00  0.00    -0.274 OA
ATOM     18  N   UNL     1       2.647  -9.737   0.552  0.00  0.00    -0.240 N 
ATOM     19  C   UNL     1       2.983 -11.038   0.655  0.00  0.00    +0.306 C 
ATOM     20  O   UNL     1       4.154 -11.359   0.725  0.00  0.00    -0.252 OA
ATOM     21  N   UNL     1       2.023 -11.983   0.681  0.00  0.00    -0.296 N 
ATOM     22  H   UNL     1       1.713  -9.481   0.496  0.00  0.00    +0.159 HD
ATOM     23  H   UNL     1       1.089 -11.727   0.626  0.00  0.00    +0.151 HD
BRANCH  21  24
ATOM     24  C   UNL     1       2.389 -13.397   0.794  0.00  0.00    +0.074 C 
ATOM     25  C   UNL     1       2.633 -13.993  -0.608  0.00  0.00    +0.022 C 
ATOM     26  C   UNL     1       2.068 -15.432  -0.512  0.00  0.00    +0.002 C 
ATOM     27  C   UNL     1       0.808 -15.247   0.368  0.00  0.00    +0.002 C 
ATOM     28  C   UNL     1       1.229 -14.194   1.415  0.00  0.00    +0.022 C 
ENDBRANCH  21  24
ENDBRANCH  15  16
ENDBRANCH   1  15
TORSDOF 5
