REMARK  Name = ZINC00112138
REMARK  6 active torsions:
REMARK  status: ('A' for Active; 'I' for Inactive)
REMARK    1  A    between atoms: C_1  and  C_2
REMARK    2  A    between atoms: C_3  and  C_17
REMARK    3  A    between atoms: C_4  and  C_10
REMARK    4  A    between atoms: C_13  and  O_16
REMARK    5  A    between atoms: C_17  and  O_19
REMARK    6  A    between atoms: O_19  and  C_20
REMARK                            x       y       z     vdW  Elec       q    Type
REMARK                         _______ _______ _______ _____ _____    ______ ____
ROOT
ATOM      1  C   UNL     1      -2.098   4.460   3.026  0.00  0.00    +0.061 C 
ATOM      2  C   UNL     1      -1.800   3.922   1.650  0.00  0.00    +0.021 C 
ATOM      3  C   UNL     1      -1.612   2.596   1.481  0.00  0.00    +0.078 C 
ATOM      4  C   UNL     1      -1.314   2.098   0.081  0.00  0.00    +0.143 C 
ATOM      5  N   UNL     1      -1.253   3.109  -0.988  0.00  0.00    -0.288 N 
ATOM      6  C   UNL     1      -1.463   4.400  -0.662  0.00  0.00    +0.304 C 
ATOM      7  O   UNL     1      -1.415   5.243  -1.537  0.00  0.00    -0.252 OA
ATOM      8  N   UNL     1      -1.723   4.785   0.594  0.00  0.00    -0.273 N 
ATOM      9  H   UNL     1      -1.066   2.853  -1.904  0.00  0.00    +0.151 HD
ATOM     10  H   UNL     1      -1.865   5.729   0.763  0.00  0.00    +0.156 HD
ENDROOT
BRANCH   4  11
ATOM     11  C   UNL     1       0.009   1.378   0.116  0.00  0.00    -0.022 A 
ATOM     12  C   UNL     1       1.188   2.100   0.088  0.00  0.00    +0.009 A 
ATOM     13  C   UNL     1       2.403   1.443   0.114  0.00  0.00    +0.046 A 
ATOM     14  C   UNL     1       2.439   0.057   0.168  0.00  0.00    +0.117 A 
ATOM     15  C   UNL     1       1.255  -0.665   0.196  0.00  0.00    +0.046 A 
ATOM     16  C   UNL     1       0.043  -0.003   0.169  0.00  0.00    +0.009 A 
BRANCH  14  17
ATOM     17  O   UNL     1       3.633  -0.592   0.194  0.00  0.00    -0.507 OA
ATOM     18  H   UNL     1       3.979  -0.815  -0.681  0.00  0.00    +0.292 HD
ENDBRANCH  14  17
ENDBRANCH   4  11
BRANCH   3  19
ATOM     19  C   UNL     1      -1.692   1.701   2.574  0.00  0.00    +0.339 C 
ATOM     20  O   UNL     1      -1.826   2.131   3.704  0.00  0.00    -0.245 OA
BRANCH  19  21
ATOM     21  O   UNL     1      -1.619   0.370   2.363  0.00  0.00    -0.458 OA
BRANCH  21  22
ATOM     22  C   UNL     1      -1.707  -0.475   3.512  0.00  0.00    +0.177 C 
ATOM     23  C   UNL     1      -0.295  -0.656   4.107  0.00  0.00    +0.044 C 
ATOM     24  C   UNL     1      -0.433  -1.087   5.542  0.00  0.00    +0.004 C 
ATOM     25  C   UNL     1      -0.387  -2.618   5.705  0.00  0.00    +0.000 C 
ATOM     26  C   UNL     1      -1.190  -3.359   4.618  0.00  0.00    +0.000 C 
ATOM     27  C   UNL     1      -2.505  -2.693   4.319  0.00  0.00    +0.004 C 
ATOM     28  C   UNL     1      -2.311  -1.740   3.122  0.00  0.00    +0.044 C 
ENDBRANCH  21  22
ENDBRANCH  19  21
ENDBRANCH   3  19
TORSDOF 5
