REMARK  Name = ZINC09257043
REMARK  8 active torsions:
REMARK  status: ('A' for Active; 'I' for Inactive)
REMARK    1  A    between atoms: C_4  and  N_16
REMARK    2  A    between atoms: C_5  and  C_7
REMARK    3  A    between atoms: N_9  and  C_10
REMARK    4  A    between atoms: C_10  and  C_11
REMARK    5  A    between atoms: C_17  and  C_19
REMARK    6  A    between atoms: C_19  and  N_57
REMARK    7  A    between atoms: N_22  and  S_25
REMARK    8  A    between atoms: S_25  and  C_28
REMARK                            x       y       z     vdW  Elec       q    Type
REMARK                         _______ _______ _______ _____ _____    ______ ____
ROOT
ATOM      1  N   UNL     1      -0.262   3.881  -7.657  0.00  0.00    -0.286 N 
ATOM      2  C   UNL     1      -0.622   3.932  -6.359  0.00  0.00    +0.201 C 
ATOM      3  O   UNL     1      -0.473   4.958  -5.729  0.00  0.00    -0.278 OA
ATOM      4  H   UNL     1      -0.438   3.081  -8.178  0.00  0.00    +0.155 HD
ENDROOT
BRANCH   1   8
ATOM      5  C   UNL     1       1.605   7.159  -9.434  0.00  0.00    +0.001 A 
ATOM      6  C   UNL     1       0.607   7.349  -8.492  0.00  0.00    +0.002 A 
ATOM      7  C   UNL     1      -0.017   6.266  -7.907  0.00  0.00    +0.024 A 
ATOM      8  C   UNL     1       0.362   4.975  -8.251  0.00  0.00    +0.045 A 
ATOM      9  C   UNL     1       1.372   4.779  -9.205  0.00  0.00    +0.058 A 
ATOM     10  C   UNL     1       1.990   5.886  -9.793  0.00  0.00    +0.015 A 
BRANCH   9  11
ATOM     11  C   UNL     1       1.779   3.413  -9.585  0.00  0.00    +0.246 C 
ATOM     12  O   UNL     1       1.180   2.454  -9.137  0.00  0.00    -0.270 OA
ATOM     13  N   UNL     1       2.814   3.228 -10.427  0.00  0.00    -0.304 N 
ATOM     14  H   UNL     1       3.292   3.993 -10.784  0.00  0.00    +0.149 HD
BRANCH  13  15
ATOM     15  C   UNL     1       3.218   1.871 -10.804  0.00  0.00    +0.179 C 
BRANCH  15  16
ATOM     16  C   UNL     1       4.391   1.941 -11.748  0.00  0.00    +0.122 A 
ATOM     17  C   UNL     1       5.688   1.945 -11.392  0.00  0.00    +0.046 A 
ATOM     18  C   UNL     1       6.440   2.020 -12.587  0.00  0.00    +0.041 A 
ATOM     19  C   UNL     1       5.558   2.057 -13.602  0.00  0.00    +0.195 A 
ATOM     20  O   UNL     1       4.318   2.003 -13.088  0.00  0.00    -0.466 OA
ENDBRANCH  15  16
ENDBRANCH  13  15
ENDBRANCH   9  11
ENDBRANCH   1   8
BRANCH   2  21
ATOM     21  C   UNL     1      -1.208   2.716  -5.691  0.00  0.00    +0.019 C 
BRANCH  21  27
ATOM     22  C   UNL     1      -0.476   3.425  -3.495  0.00  0.00    -0.061 C 
ATOM     23  C   UNL     1      -0.933   3.602  -2.043  0.00  0.00    +0.091 C 
ATOM     24  N   UNL     1      -2.045   4.564  -2.017  0.00  0.00    -0.180 NA
ATOM     25  C   UNL     1      -3.182   4.337  -2.922  0.00  0.00    +0.091 C 
ATOM     26  C   UNL     1      -2.634   4.135  -4.344  0.00  0.00    -0.061 C 
ATOM     27  N   UNL     1      -1.643   3.037  -4.316  0.00  0.00    +0.387 N 
ATOM     28  H   UNL     1      -2.080   2.205  -3.902  0.00  0.00    -0.081 HD
BRANCH  24  29
ATOM     29  S   UNL     1      -2.021   5.864  -0.991  0.00  0.00    +0.067 S 
ATOM     30  O   UNL     1      -1.158   5.517   0.083  0.00  0.00    -0.152 OA
ATOM     31  O   UNL     1      -3.374   6.246  -0.788  0.00  0.00    -0.152 OA
BRANCH  29  32
ATOM     32  C   UNL     1      -1.245   7.191  -1.852  0.00  0.00    +0.143 A 
ATOM     33  C   UNL     1      -1.806   8.140  -2.641  0.00  0.00    +0.036 A 
ATOM     34  C   UNL     1      -0.992   9.093  -3.225  0.00  0.00    +0.010 A 
ATOM     35  C   UNL     1       0.342   9.051  -2.990  0.00  0.00    +0.047 A 
ATOM     36  S   UNL     1       0.483   7.632  -1.916  0.00  0.00    -0.077 S 
ENDBRANCH  29  32
ENDBRANCH  24  29
ENDBRANCH  21  27
ENDBRANCH   2  21
TORSDOF 8
