REMARK  Name = ZINC43042326
REMARK  8 active torsions:
REMARK  status: ('A' for Active; 'I' for Inactive)
REMARK    1  A    between atoms: C_1  and  C_2
REMARK    2  A    between atoms: C_7  and  N_12
REMARK    3  A    between atoms: C_9  and  C_11
REMARK    4  A    between atoms: N_15  and  N_16
REMARK    5  A    between atoms: C_17  and  C_19
REMARK    6  A    between atoms: C_19  and  C_21
REMARK    7  A    between atoms: C_19  and  O_22
REMARK    8  A    between atoms: O_22  and  C_23
REMARK                            x       y       z     vdW  Elec       q    Type
REMARK                         _______ _______ _______ _____ _____    ______ ____
ROOT
ATOM      1  N   UNL     1      -0.569  -2.751   0.933  0.00  0.00    -0.295 N 
ATOM      2  C   UNL     1      -0.836  -4.036   1.240  0.00  0.00    +0.316 C 
ATOM      3  O   UNL     1       0.074  -4.804   1.485  0.00  0.00    -0.251 OA
ATOM      4  N   UNL     1      -2.111  -4.469   1.276  0.00  0.00    -0.218 N 
ATOM      5  H   UNL     1      -1.295  -2.138   0.737  0.00  0.00    +0.151 HD
ATOM      6  H   UNL     1      -2.303  -5.394   1.497  0.00  0.00    +0.174 HD
ENDROOT
BRANCH   1  12
ATOM      7  C   UNL     1       0.071   1.454   0.318  0.00  0.00    +0.008 C 
ATOM      8  C   UNL     1       0.038  -0.055   0.066  0.00  0.00    -0.009 C 
ATOM      9  C   UNL     1       0.640  -0.355  -1.308  0.00  0.00    +0.003 C 
ATOM     10  C   UNL     1       0.607  -1.864  -1.561  0.00  0.00    +0.002 C 
ATOM     11  C   UNL     1       1.420  -2.580  -0.480  0.00  0.00    +0.022 C 
ATOM     12  C   UNL     1       0.817  -2.280   0.894  0.00  0.00    +0.078 C 
ATOM     13  C   UNL     1       0.851  -0.771   1.146  0.00  0.00    +0.009 C 
ATOM     14  C   UNL     1       0.248  -0.470   2.520  0.00  0.00    +0.009 C 
ENDBRANCH   1  12
BRANCH   4  15
ATOM     15  N   UNL     1      -3.160  -3.584   0.994  0.00  0.00    -0.230 N 
ATOM     16  C   UNL     1      -4.436  -4.018   1.030  0.00  0.00    +0.270 C 
ATOM     17  O   UNL     1      -4.676  -5.174   1.306  0.00  0.00    -0.270 OA
ATOM     18  H   UNL     1      -2.968  -2.660   0.772  0.00  0.00    +0.173 HD
BRANCH  16  19
ATOM     19  C   UNL     1      -5.564  -3.066   0.726  0.00  0.00    +0.257 C 
ATOM     20  C   UNL     1      -5.471  -2.613  -0.733  0.00  0.00    +0.062 C 
BRANCH  19  21
ATOM     21  O   UNL     1      -6.814  -3.725   0.941  0.00  0.00    -0.477 OA
BRANCH  21  22
ATOM     22  C   UNL     1      -7.885  -2.938   1.225  0.00  0.00    +0.157 A 
ATOM     23  C   UNL     1      -7.763  -1.557   1.185  0.00  0.00    +0.048 A 
ATOM     24  C   UNL     1      -8.854  -0.759   1.474  0.00  0.00    +0.004 A 
ATOM     25  C   UNL     1     -10.066  -1.335   1.804  0.00  0.00    +0.003 A 
ATOM     26  C   UNL     1     -10.193  -2.711   1.845  0.00  0.00    +0.042 A 
ATOM     27  C   UNL     1      -9.106  -3.515   1.550  0.00  0.00    +0.165 A 
ATOM     28  F   UNL     1      -9.231  -4.860   1.585  0.00  0.00    -0.202 F 
ENDBRANCH  21  22
ENDBRANCH  19  21
ENDBRANCH  16  19
ENDBRANCH   4  15
TORSDOF 5
