REMARK  Name = ZINC33812557
REMARK  14 active torsions:
REMARK  status: ('A' for Active; 'I' for Inactive)
REMARK    1  A    between atoms: C_1  and  C_2
REMARK    2  A    between atoms: C_2  and  C_3
REMARK    3  A    between atoms: C_3  and  N_4
REMARK    4  A    between atoms: C_5  and  N_27
REMARK    5  A    between atoms: C_6  and  C_14
REMARK    6  A    between atoms: C_7  and  C_13
REMARK    7  A    between atoms: C_8  and  C_11
REMARK    8  A    between atoms: N_18  and  C_22
REMARK    9  A    between atoms: C_22  and  C_23
REMARK   10  A    between atoms: C_23  and  C_24
REMARK   11  A    between atoms: C_24  and  O_25
REMARK   12  A    between atoms: O_25  and  C_26
REMARK   13  A    between atoms: N_30  and  C_33
REMARK   14  A    between atoms: C_33  and  C_34
REMARK                            x       y       z     vdW  Elec       q    Type
REMARK                         _______ _______ _______ _____ _____    ______ ____
ROOT
ATOM      1  N   UNL     1      -1.238  -2.210   0.376  0.00  0.00    -0.295 N 
ATOM      2  C   UNL     1      -1.328  -2.751  -0.866  0.00  0.00    +0.112 A 
ATOM      3  C   UNL     1      -1.729  -4.086  -1.036  0.00  0.00    +0.019 A 
ATOM      4  C   UNL     1      -2.039  -4.864   0.092  0.00  0.00    -0.017 A 
ATOM      5  C   UNL     1      -1.938  -4.286   1.355  0.00  0.00    +0.120 A 
ATOM      6  C   UNL     1      -1.523  -2.935   1.473  0.00  0.00    +0.270 A 
ATOM      7  O   UNL     1      -1.429  -2.426   2.576  0.00  0.00    -0.266 OA
ATOM      8  C   UNL     1      -2.473  -6.298  -0.062  0.00  0.00    +0.046 C 
ENDROOT
BRANCH   3   9
ATOM      9  C   UNL     1      -1.825  -4.663  -2.379  0.00  0.00    +0.032 C 
ATOM     10  C   UNL     1      -0.995  -5.677  -2.744  0.00  0.00    +0.077 C 
ATOM     11  C   UNL     1      -0.944  -6.413  -3.967  0.00  0.00    +0.258 C 
ATOM     12  O   UNL     1      -1.716  -6.172  -4.877  0.00  0.00    -0.269 OA
ATOM     13  N   UNL     1      -0.033  -7.364  -4.081  0.00  0.00    -0.255 N 
ATOM     14  C   UNL     1       0.824  -7.631  -3.071  0.00  0.00    +0.121 C 
ATOM     15  S   UNL     1       2.068  -8.805  -3.002  0.00  0.00    -0.027 S 
ATOM     16  S   UNL     1       0.334  -6.446  -1.828  0.00  0.00    -0.061 S 
BRANCH  13  17
ATOM     17  C   UNL     1       0.049  -8.140  -5.321  0.00  0.00    +0.117 C 
BRANCH  17  18
ATOM     18  C   UNL     1       1.011  -7.451  -6.291  0.00  0.00    +0.047 C 
BRANCH  18  19
ATOM     19  C   UNL     1       1.097  -8.261  -7.586  0.00  0.00    +0.161 C 
BRANCH  19  20
ATOM     20  O   UNL     1       1.995  -7.617  -8.492  0.00  0.00    -0.383 OA
ATOM     21  C   UNL     1       2.148  -8.296  -9.740  0.00  0.00    +0.193 C 
ENDBRANCH  19  20
ENDBRANCH  18  19
ENDBRANCH  17  18
ENDBRANCH  13  17
ENDBRANCH   3   9
BRANCH   2  22
ATOM     22  N   UNL     1      -1.026  -1.991  -1.958  0.00  0.00    -0.320 N 
ATOM     23  C   UNL     1      -2.044  -1.139  -2.592  0.00  0.00    +0.088 C 
ATOM     24  C   UNL     1      -2.048  -1.425  -4.097  0.00  0.00    -0.060 C 
ATOM     25  N   UNL     1      -0.692  -1.248  -4.632  0.00  0.00    +0.382 N 
ATOM     26  C   UNL     1       0.212  -2.244  -4.043  0.00  0.00    -0.060 C 
ATOM     27  C   UNL     1       0.329  -1.994  -2.531  0.00  0.00    +0.088 C 
ATOM     28  H   UNL     1      -0.362  -0.322  -4.407  0.00  0.00    -0.082 HD
BRANCH  25  29
ATOM     29  C   UNL     1      -0.717  -1.415  -6.091  0.00  0.00    -0.082 C 
ATOM     30  C   UNL     1       0.668  -1.109  -6.663  0.00  0.00    -0.017 C 
ENDBRANCH  25  29
ENDBRANCH   2  22
BRANCH   5  31
ATOM     31  C   UNL     1      -2.247  -5.052   2.526  0.00  0.00    +0.105 C 
ATOM     32  N   UNL     1      -2.492  -5.659   3.454  0.00  0.00    -0.191 NA
ENDBRANCH   5  31
BRANCH   1  33
ATOM     33  C   UNL     1      -0.817  -0.815   0.525  0.00  0.00    +0.126 C 
BRANCH  33  35
ATOM     34  C   UNL     1       1.129   0.695   0.947  0.00  0.00    +0.005 C 
ATOM     35  C   UNL     1       0.689  -0.762   0.791  0.00  0.00    +0.018 C 
ENDBRANCH  33  35
ENDBRANCH   1  33
TORSDOF 10
