REMARK  Name = ZINC11364364
REMARK  9 active torsions:
REMARK  status: ('A' for Active; 'I' for Inactive)
REMARK    1  A    between atoms: C_1  and  O_2
REMARK    2  A    between atoms: O_2  and  C_3
REMARK    3  A    between atoms: C_6  and  C_9
REMARK    4  A    between atoms: C_12  and  S_15
REMARK    5  A    between atoms: N_13  and  N_14
REMARK    6  A    between atoms: S_15  and  C_16
REMARK    7  A    between atoms: C_16  and  C_17
REMARK    8  A    between atoms: N_19  and  C_20
REMARK    9  A    between atoms: C_21  and  C_29
REMARK                            x       y       z     vdW  Elec       q    Type
REMARK                         _______ _______ _______ _____ _____    ______ ____
ROOT
ATOM      1  C   UNL     1      -1.686   1.868   0.663  0.00  0.00    +0.173 C 
ENDROOT
BRANCH   1   2
ATOM      2  C   UNL     1      -0.472   1.005   0.895  0.00  0.00    +0.228 C 
ATOM      3  O   UNL     1       0.633   1.504   0.912  0.00  0.00    -0.275 OA
ATOM      4  N   UNL     1      -0.614  -0.323   1.079  0.00  0.00    -0.279 N 
ATOM      5  H   UNL     1      -1.498  -0.722   1.065  0.00  0.00    +0.155 HD
BRANCH   4   6
ATOM      6  C   UNL     1       0.503  -1.117   1.286  0.00  0.00    +0.084 A 
ATOM      7  C   UNL     1       0.559  -2.488   1.498  0.00  0.00    +0.068 A 
ATOM      8  C   UNL     1       1.869  -3.085   1.688  0.00  0.00    -0.023 A 
ATOM      9  C   UNL     1       2.907  -2.221   1.646  0.00  0.00    -0.004 A 
ATOM     10  S   UNL     1       2.167  -0.639   1.353  0.00  0.00    -0.077 S 
ATOM     11  C   UNL     1       4.359  -2.545   1.814  0.00  0.00    +0.043 C 
ATOM     12  C   UNL     1       4.475  -3.953   2.414  0.00  0.00    +0.005 C 
ATOM     13  C   UNL     1       3.562  -4.900   1.631  0.00  0.00    +0.005 C 
ATOM     14  C   UNL     1       2.097  -4.573   1.925  0.00  0.00    +0.037 C 
BRANCH   7  15
ATOM     15  C   UNL     1      -0.659  -3.303   1.525  0.00  0.00    +0.244 C 
ATOM     16  O   UNL     1      -1.083  -3.799   0.497  0.00  0.00    -0.270 OA
ATOM     17  N   UNL     1      -1.311  -3.504   2.688  0.00  0.00    -0.325 N 
ATOM     18  H   UNL     1      -0.973  -3.108   3.507  0.00  0.00    +0.145 HD
ATOM     19  H   UNL     1      -2.117  -4.043   2.706  0.00  0.00    +0.145 HD
ENDBRANCH   7  15
ENDBRANCH   4   6
ENDBRANCH   1   2
BRANCH   1  20
ATOM     20  S   UNL     1      -1.170   3.590   0.453  0.00  0.00    -0.075 S 
BRANCH  20  24
ATOM     21  C   UNL     1      -4.334   5.803  -0.147  0.00  0.00    +0.182 A 
ATOM     22  N   UNL     1      -4.844   4.600  -0.014  0.00  0.00    -0.127 NA
ATOM     23  N   UNL     1      -3.906   3.746   0.188  0.00  0.00    -0.121 NA
ATOM     24  C   UNL     1      -2.740   4.351   0.205  0.00  0.00    +0.209 A 
ATOM     25  N   UNL     1      -2.971   5.681  -0.011  0.00  0.00    -0.224 N 
BRANCH  21  29
ATOM     26  C   UNL     1      -6.489   9.393  -0.865  0.00  0.00    +0.120 A 
ATOM     27  C   UNL     1      -5.121   9.349  -1.098  0.00  0.00    +0.046 A 
ATOM     28  C   UNL     1      -4.418   8.186  -0.866  0.00  0.00    +0.015 A 
ATOM     29  C   UNL     1      -5.084   7.052  -0.397  0.00  0.00    +0.021 A 
ATOM     30  C   UNL     1      -6.461   7.099  -0.169  0.00  0.00    +0.015 A 
ATOM     31  C   UNL     1      -7.155   8.268  -0.398  0.00  0.00    +0.046 A 
BRANCH  26  33
ATOM     32  C   UNL     1      -8.584  10.518  -0.835  0.00  0.00    +0.277 C 
ATOM     33  O   UNL     1      -7.179  10.541  -1.095  0.00  0.00    -0.495 OA
ENDBRANCH  26  33
ENDBRANCH  21  29
BRANCH  25  34
ATOM     34  N   UNL     1      -2.042   6.680  -0.076  0.00  0.00    -0.295 N 
ATOM     35  H   UNL     1      -1.783   6.870  -1.033  0.00  0.00    +0.163 HD
ATOM     36  H   UNL     1      -2.376   7.515   0.381  0.00  0.00    +0.163 HD
ENDBRANCH  25  34
ENDBRANCH  20  24
ENDBRANCH   1  20
TORSDOF 8
