REMARK  Name = ZINC12832848
REMARK  11 active torsions:
REMARK  status: ('A' for Active; 'I' for Inactive)
REMARK    1  A    between atoms: C_1  and  C_2
REMARK    2  A    between atoms: C_7  and  C_14
REMARK    3  A    between atoms: C_14  and  N_67
REMARK    4  A    between atoms: C_15  and  C_16
REMARK    5  A    between atoms: C_15  and  N_67
REMARK    6  A    between atoms: C_25  and  C_26
REMARK    7  A    between atoms: C_25  and  N_67
REMARK    8  A    between atoms: N_30  and  C_31
REMARK    9  A    between atoms: C_31  and  C_32
REMARK   10  A    between atoms: C_35  and  O_38
REMARK   11  A    between atoms: O_38  and  C_39
REMARK                            x       y       z     vdW  Elec       q    Type
REMARK                         _______ _______ _______ _____ _____    ______ ____
ROOT
ATOM      1  N   UNL     1       1.576  -2.089  -1.325  0.00  0.00    +0.390 N 
ATOM      2  H   UNL     1       0.854  -1.859  -2.017  0.00  0.00    -0.080 HD
ENDROOT
BRANCH   1   3
ATOM      3  C   UNL     1       1.386  -3.485  -0.877  0.00  0.00    -0.036 C 
BRANCH   3  10
ATOM      4  C   UNL     1      -6.417  -5.138  -0.811  0.00  0.00    +0.044 C 
ATOM      5  C   UNL     1      -4.947  -4.904  -1.044  0.00  0.00    -0.048 A 
ATOM      6  C   UNL     1      -4.386  -5.223  -2.273  0.00  0.00    +0.004 A 
ATOM      7  C   UNL     1      -3.055  -5.019  -2.505  0.00  0.00    +0.010 A 
ATOM      8  C   UNL     1      -2.250  -4.485  -1.494  0.00  0.00    -0.001 A 
ATOM      9  C   UNL     1      -0.820  -4.254  -1.707  0.00  0.00    +0.017 A 
ATOM     10  C   UNL     1      -0.089  -3.734  -0.691  0.00  0.00    +0.001 A 
ATOM     11  C   UNL     1      -0.702  -3.432   0.544  0.00  0.00    +0.251 A 
ATOM     12  O   UNL     1      -0.025  -2.970   1.446  0.00  0.00    -0.268 OA
ATOM     13  N   UNL     1      -2.015  -3.635   0.748  0.00  0.00    -0.322 N 
ATOM     14  H   UNL     1      -2.406  -3.412   1.607  0.00  0.00    +0.169 HD
ATOM     15  C   UNL     1      -2.814  -4.161  -0.246  0.00  0.00    +0.049 A 
ATOM     16  C   UNL     1      -4.172  -4.377  -0.033  0.00  0.00    +0.029 A 
ENDBRANCH   3  10
ENDBRANCH   1   3
BRANCH   1  17
ATOM     17  C   UNL     1       2.907  -1.936  -1.950  0.00  0.00    -0.042 C 
BRANCH  17  18
ATOM     18  C   UNL     1       2.887  -2.605  -3.300  0.00  0.00    -0.060 A 
ATOM     19  C   UNL     1       3.365  -3.895  -3.438  0.00  0.00    +0.005 A 
ATOM     20  C   UNL     1       3.343  -4.516  -4.673  0.00  0.00    +0.050 A 
ATOM     21  C   UNL     1       2.853  -3.841  -5.779  0.00  0.00    +0.166 A 
ATOM     22  C   UNL     1       2.377  -2.539  -5.642  0.00  0.00    +0.166 A 
ATOM     23  C   UNL     1       2.396  -1.926  -4.400  0.00  0.00    +0.051 A 
ATOM     24  O   UNL     1       1.954  -2.098  -6.862  0.00  0.00    -0.453 OA
ATOM     25  C   UNL     1       2.552  -2.990  -7.822  0.00  0.00    +0.466 C 
ATOM     26  O   UNL     1       2.728  -4.215  -7.086  0.00  0.00    -0.453 OA
ENDBRANCH  17  18
ENDBRANCH   1  17
BRANCH   1  27
ATOM     27  C   UNL     1       1.450  -1.168  -0.175  0.00  0.00    +0.001 C 
BRANCH  27  28
ATOM     28  C   UNL     1       1.494   0.251  -0.680  0.00  0.00    +0.135 A 
ATOM     29  N   UNL     1       2.567   0.968  -0.907  0.00  0.00    -0.115 NA
ATOM     30  N   UNL     1       2.190   2.125  -1.331  0.00  0.00    -0.023 NA
ATOM     31  N   UNL     1       0.904   2.164  -1.379  0.00  0.00    -0.044 NA
ATOM     32  N   UNL     1       0.438   1.028  -0.986  0.00  0.00    -0.227 N 
BRANCH  32  33
ATOM     33  C   UNL     1      -0.975   0.652  -0.891  0.00  0.00    +0.182 C 
BRANCH  33  34
ATOM     34  C   UNL     1      -1.470   0.208  -2.243  0.00  0.00    -0.026 A 
ATOM     35  C   UNL     1      -1.914   1.146  -3.157  0.00  0.00    +0.009 A 
ATOM     36  C   UNL     1      -2.362   0.742  -4.400  0.00  0.00    +0.046 A 
ATOM     37  C   UNL     1      -2.377  -0.607  -4.726  0.00  0.00    +0.120 A 
ATOM     38  C   UNL     1      -1.936  -1.546  -3.805  0.00  0.00    +0.046 A 
ATOM     39  C   UNL     1      -1.483  -1.136  -2.566  0.00  0.00    +0.009 A 
BRANCH  37  40
ATOM     40  O   UNL     1      -2.822  -1.007  -5.946  0.00  0.00    -0.495 OA
ATOM     41  C   UNL     1      -3.261   0.014  -6.844  0.00  0.00    +0.277 C 
ENDBRANCH  37  40
ENDBRANCH  33  34
ENDBRANCH  32  33
ENDBRANCH  27  28
ENDBRANCH   1  27
TORSDOF 9
