REMARK  Name = ZINC65299757
REMARK  8 active torsions:
REMARK  status: ('A' for Active; 'I' for Inactive)
REMARK    1  A    between atoms: C_1  and  C_2
REMARK    2  A    between atoms: C_2  and  C_3
REMARK    3  A    between atoms: C_2  and  N_4
REMARK    4  A    between atoms: C_5  and  C_7
REMARK    5  A    between atoms: C_7  and  C_8
REMARK    6  A    between atoms: C_7  and  N_9
REMARK    7  A    between atoms: N_12  and  C_15
REMARK    8  A    between atoms: C_15  and  C_16
REMARK                            x       y       z     vdW  Elec       q    Type
REMARK                         _______ _______ _______ _____ _____    ______ ____
ROOT
ATOM      1  N   UNL     1      -3.087  -3.600  -1.067  0.00  0.00    -0.289 NA
ATOM      2  C   UNL     1      -2.632  -3.570  -2.463  0.00  0.00    +0.100 C 
ATOM      3  C   UNL     1      -2.603  -4.996  -3.018  0.00  0.00    +0.100 C 
ATOM      4  N   UNL     1      -3.945  -5.586  -2.917  0.00  0.00    -0.294 NA
ATOM      5  C   UNL     1      -4.401  -5.615  -1.520  0.00  0.00    +0.100 C 
ATOM      6  C   UNL     1      -4.430  -4.189  -0.966  0.00  0.00    +0.100 C 
ENDROOT
BRANCH   1   7
ATOM      7  C   UNL     1      -3.057  -2.256  -0.474  0.00  0.00    +0.140 C 
ATOM      8  C   UNL     1      -3.952  -1.319  -1.288  0.00  0.00    +0.034 C 
BRANCH   7  10
ATOM      9  N   UNL     1      -1.372  -0.511   0.012  0.00  0.00    -0.312 N 
ATOM     10  C   UNL     1      -1.643  -1.734  -0.485  0.00  0.00    +0.230 C 
ATOM     11  O   UNL     1      -0.749  -2.415  -0.941  0.00  0.00    -0.274 OA
ATOM     12  H   UNL     1      -2.087   0.033   0.377  0.00  0.00    +0.149 HD
BRANCH   9  14
ATOM     13  C   UNL     1      -0.019   1.526   0.010  0.00  0.00    +0.027 C 
ATOM     14  C   UNL     1       0.002  -0.004   0.002  0.00  0.00    +0.067 C 
ATOM     15  C   UNL     1       0.742  -0.511   1.242  0.00  0.00    +0.027 C 
ENDBRANCH   9  14
ENDBRANCH   7  10
ENDBRANCH   1   7
BRANCH   4  16
ATOM     16  C   UNL     1      -3.976  -6.930  -3.510  0.00  0.00    +0.139 C 
BRANCH  16  17
ATOM     17  C   UNL     1      -5.403  -7.402  -3.611  0.00  0.00    +0.048 A 
ATOM     18  C   UNL     1      -6.047  -8.167  -2.703  0.00  0.00    +0.115 A 
ATOM     19  N   UNL     1      -7.317  -8.367  -3.171  0.00  0.00    -0.306 N 
ATOM     20  C   UNL     1      -8.388  -9.053  -2.673  0.00  0.00    +0.112 A 
ATOM     21  C   UNL     1      -9.554  -9.094  -3.352  0.00  0.00    +0.058 A 
ATOM     22  C   UNL     1      -9.681  -8.428  -4.583  0.00  0.00    +0.025 A 
ATOM     23  C   UNL     1      -8.623  -7.741  -5.089  0.00  0.00    +0.046 A 
ATOM     24  C   UNL     1      -7.412  -7.708  -4.369  0.00  0.00    +0.116 A 
ATOM     25  N   UNL     1      -6.245  -7.128  -4.611  0.00  0.00    -0.342 N 
ATOM     26 CL   UNL     1     -10.903  -9.973  -2.701  0.00  0.00    -0.082 Cl
ATOM     27  H   UNL     1      -6.034  -6.592  -5.392  0.00  0.00    +0.167 HD
ENDBRANCH  16  17
ENDBRANCH   4  16
TORSDOF 5
