REMARK  Name = ZINC66746744
REMARK  6 active torsions:
REMARK  status: ('A' for Active; 'I' for Inactive)
REMARK    1  A    between atoms: C_1  and  C_2
REMARK    2  A    between atoms: C_2  and  C_20
REMARK    3  A    between atoms: N_5  and  C_9
REMARK    4  A    between atoms: C_9  and  C_10
REMARK    5  A    between atoms: C_13  and  C_16
REMARK    6  A    between atoms: N_18  and  C_19
REMARK                            x       y       z     vdW  Elec       q    Type
REMARK                         _______ _______ _______ _____ _____    ______ ____
ROOT
ATOM      1  C   UNL     1      -0.019   1.526   0.010  0.00  0.00    +0.047 C 
ATOM      2  C   UNL     1       0.002  -0.004   0.002  0.00  0.00    +0.135 C 
ATOM      3  C   UNL     1       0.815  -0.520  -1.169  0.00  0.00    +0.251 C 
ATOM      4  O   UNL     1       0.595  -0.342  -2.348  0.00  0.00    -0.272 OA
ATOM      5  N   UNL     1       1.833  -1.217  -0.627  0.00  0.00    -0.220 N 
ATOM      6  C   UNL     1       1.777  -1.214   0.710  0.00  0.00    +0.310 C 
ATOM      7  O   UNL     1       2.586  -1.776   1.421  0.00  0.00    -0.252 OA
ATOM      8  N   UNL     1       0.724  -0.519   1.178  0.00  0.00    -0.281 N 
ATOM      9  H   UNL     1       0.487  -0.383   2.109  0.00  0.00    +0.152 HD
ENDROOT
BRANCH   2  10
ATOM     10  C   UNL     1      -1.401  -0.551  -0.040  0.00  0.00    -0.012 A 
ATOM     11  C   UNL     1      -2.003  -0.814  -1.257  0.00  0.00    +0.010 A 
ATOM     12  C   UNL     1      -3.290  -1.317  -1.300  0.00  0.00    +0.050 A 
ATOM     13  C   UNL     1      -3.981  -1.558  -0.124  0.00  0.00    +0.166 A 
ATOM     14  C   UNL     1      -3.374  -1.294   1.102  0.00  0.00    +0.167 A 
ATOM     15  C   UNL     1      -2.082  -0.795   1.138  0.00  0.00    +0.055 A 
ATOM     16  O   UNL     1      -4.250  -1.612   2.100  0.00  0.00    -0.453 OA
ATOM     17  C   UNL     1      -5.542  -1.687   1.468  0.00  0.00    +0.466 C 
ATOM     18  O   UNL     1      -5.236  -2.042   0.106  0.00  0.00    -0.453 OA
ENDBRANCH   2  10
BRANCH   5  19
ATOM     19  C   UNL     1       2.871  -1.896  -1.406  0.00  0.00    +0.153 C 
BRANCH  19  20
ATOM     20  C   UNL     1       4.020  -0.950  -1.644  0.00  0.00    -0.030 A 
ATOM     21  C   UNL     1       4.024  -0.140  -2.766  0.00  0.00    +0.006 A 
ATOM     22  C   UNL     1       5.073   0.728  -2.989  0.00  0.00    +0.013 A 
ATOM     23  C   UNL     1       6.130   0.789  -2.081  0.00  0.00    +0.037 A 
ATOM     24  C   UNL     1       6.120  -0.031  -0.951  0.00  0.00    +0.013 A 
ATOM     25  C   UNL     1       5.062  -0.891  -0.736  0.00  0.00    +0.006 A 
BRANCH  23  26
ATOM     26  C   UNL     1       7.257   1.717  -2.314  0.00  0.00    +0.244 C 
ATOM     27  O   UNL     1       7.264   2.429  -3.299  0.00  0.00    -0.270 OA
ATOM     28  N   UNL     1       8.277   1.773  -1.435  0.00  0.00    -0.314 N 
ATOM     29  C   UNL     1       9.394   2.692  -1.666  0.00  0.00    +0.128 C 
ATOM     30  H   UNL     1       8.272   1.205  -0.649  0.00  0.00    +0.149 HD
ENDBRANCH  23  26
ENDBRANCH  19  20
ENDBRANCH   5  19
TORSDOF 4
