REMARK  Name = ZINC33113638
REMARK  14 active torsions:
REMARK  status: ('A' for Active; 'I' for Inactive)
REMARK    1  A    between atoms: C_1  and  C_2
REMARK    2  A    between atoms: C_2  and  O_3
REMARK    3  A    between atoms: O_3  and  C_4
REMARK    4  A    between atoms: C_4  and  C_6
REMARK    5  A    between atoms: C_10  and  C_34
REMARK    6  A    between atoms: C_11  and  O_19
REMARK    7  A    between atoms: C_14  and  N_15
REMARK    8  A    between atoms: C_16  and  C_18
REMARK    9  A    between atoms: O_19  and  C_20
REMARK   10  A    between atoms: C_20  and  C_22
REMARK   11  A    between atoms: C_20  and  C_23
REMARK   12  A    between atoms: N_25  and  C_26
REMARK   13  A    between atoms: C_30  and  C_33
REMARK   14  A    between atoms: C_31  and  C_32
REMARK                            x       y       z     vdW  Elec       q    Type
REMARK                         _______ _______ _______ _____ _____    ______ ____
ROOT
ATOM      1  C   UNL     1      -1.269   1.939   0.103  0.00  0.00    +0.095 A 
ATOM      2  C   UNL     1      -1.927   2.290  -1.160  0.00  0.00    +0.009 A 
ATOM      3  C   UNL     1      -1.495   2.011  -2.477  0.00  0.00    +0.010 A 
ATOM      4  C   UNL     1      -2.239   2.408  -3.558  0.00  0.00    +0.007 A 
ATOM      5  C   UNL     1      -3.437   3.088  -3.398  0.00  0.00    -0.008 A 
ATOM      6  C   UNL     1      -3.892   3.372  -2.120  0.00  0.00    +0.139 A 
ATOM      7  C   UNL     1      -3.146   2.974  -1.024  0.00  0.00    +0.064 A 
ATOM      8  S   UNL     1      -3.368   3.137   0.728  0.00  0.00    -0.069 S 
ATOM      9  C   UNL     1      -1.888   2.314   1.284  0.00  0.00    +0.087 A 
ATOM     10  C   UNL     1      -4.237   3.514  -4.602  0.00  0.00    +0.047 C 
ENDROOT
BRANCH   9  11
ATOM     11  N   UNL     1      -1.461   2.102   2.581  0.00  0.00    -0.280 N 
ATOM     12  C   UNL     1      -2.204   2.543   3.616  0.00  0.00    +0.214 C 
ATOM     13  O   UNL     1      -3.246   3.127   3.409  0.00  0.00    -0.276 OA
ATOM     14  C   UNL     1      -1.738   2.312   5.030  0.00  0.00    +0.109 C 
ATOM     15  H   UNL     1      -0.515   1.573   2.769  0.00  0.00    +0.155 HD
ENDBRANCH   9  11
BRANCH   1  16
ATOM     16  C   UNL     1      -0.035   1.243   0.115  0.00  0.00    +0.342 C 
ATOM     17  O   UNL     1      -0.023   0.026   0.139  0.00  0.00    -0.245 OA
BRANCH  16  18
ATOM     18  O   UNL     1       1.127   1.929   0.093  0.00  0.00    -0.461 OA
BRANCH  18  20
ATOM     19  C   UNL     1       3.537   2.105   0.074  0.00  0.00    +0.048 C 
ATOM     20  C   UNL     1       2.333   1.162   0.101  0.00  0.00    +0.229 C 
ENDBRANCH  18  20
ENDBRANCH  16  18
ENDBRANCH   1  16
BRANCH   6  21
ATOM     21  O   UNL     1      -5.064   4.037  -1.943  0.00  0.00    -0.478 OA
BRANCH  21  22
ATOM     22  C   UNL     1      -6.260   3.255  -1.946  0.00  0.00    +0.256 C 
ATOM     23  C   UNL     1      -6.640   2.900  -0.507  0.00  0.00    +0.062 C 
BRANCH  22  24
ATOM     24  C   UNL     1      -7.376   4.046  -2.580  0.00  0.00    +0.258 C 
ATOM     25  O   UNL     1      -7.167   5.168  -2.989  0.00  0.00    -0.271 OA
ATOM     26  N   UNL     1      -8.605   3.505  -2.692  0.00  0.00    -0.282 N 
ATOM     27  H   UNL     1      -8.812   2.514  -2.262  0.00  0.00    +0.155 HD
BRANCH  26  28
ATOM     28  C   UNL     1      -9.620   4.206  -3.354  0.00  0.00    +0.037 A 
ATOM     29  C   UNL     1      -9.573   5.592  -3.429  0.00  0.00    +0.023 A 
ATOM     30  C   UNL     1     -10.576   6.280  -4.084  0.00  0.00    +0.002 A 
ATOM     31  C   UNL     1     -11.625   5.590  -4.664  0.00  0.00    +0.004 A 
ATOM     32  C   UNL     1     -11.674   4.210  -4.591  0.00  0.00    -0.046 A 
ATOM     33  C   UNL     1     -10.671   3.516  -3.943  0.00  0.00    -0.026 A 
ATOM     34  C   UNL     1     -10.722   2.012  -3.869  0.00  0.00    +0.046 C 
ATOM     35  C   UNL     1     -12.818   3.463  -5.225  0.00  0.00    +0.044 C 
ENDBRANCH  26  28
ENDBRANCH  22  24
ENDBRANCH  21  22
ENDBRANCH   6  21
TORSDOF 8
