REMARK  Name = ZINC20347397
REMARK  12 active torsions:
REMARK  status: ('A' for Active; 'I' for Inactive)
REMARK    1  A    between atoms: C_1  and  C_2
REMARK    2  A    between atoms: C_2  and  C_3
REMARK    3  A    between atoms: C_2  and  C_4
REMARK    4  A    between atoms: C_9  and  O_10
REMARK    5  A    between atoms: O_10  and  C_11
REMARK    6  A    between atoms: C_11  and  C_12
REMARK    7  A    between atoms: C_12  and  C_14
REMARK    8  A    between atoms: C_12  and  O_38
REMARK    9  A    between atoms: C_14  and  N_15
REMARK   10  A    between atoms: N_18  and  C_21
REMARK   11  A    between atoms: C_21  and  C_22
REMARK   12  A    between atoms: C_22  and  N_23
REMARK                            x       y       z     vdW  Elec       q    Type
REMARK                         _______ _______ _______ _____ _____    ______ ____
ROOT
ATOM      1  N   UNL     1       1.359   2.034   0.000  0.00  0.00    -0.303 NA
ATOM      2  C   UNL     1       2.057   1.690   1.247  0.00  0.00    +0.066 C 
ATOM      3  C   UNL     1       3.509   2.167   1.164  0.00  0.00    -0.063 C 
ATOM      4  N   UNL     1       3.533   3.618   0.933  0.00  0.00    +0.382 N 
ATOM      5  C   UNL     1       2.836   3.962  -0.314  0.00  0.00    -0.063 C 
ATOM      6  C   UNL     1       1.384   3.485  -0.231  0.00  0.00    +0.066 C 
ATOM      7  H   UNL     1       3.002   4.103   1.765  0.00  0.00    -0.082 HD
ENDROOT
BRANCH   1   8
ATOM      8  C   UNL     1      -0.019   1.526   0.010  0.00  0.00    +0.119 C 
BRANCH   8   9
ATOM      9  C   UNL     1       0.002  -0.004   0.002  0.00  0.00    +0.166 C 
BRANCH   9  10
ATOM     10  O   UNL     1       0.671  -0.465  -1.174  0.00  0.00    -0.387 OA
ATOM     11  H   UNL     1       1.719  -0.184  -1.356  0.00  0.00    +0.210 HD
ENDBRANCH   9  10
BRANCH   9  12
ATOM     12  C   UNL     1      -1.433  -0.534   0.013  0.00  0.00    +0.261 C 
BRANCH  12  13
ATOM     13  O   UNL     1      -1.415  -1.958   0.122  0.00  0.00    -0.489 OA
BRANCH  13  19
ATOM     14  C   UNL     1      -2.673  -3.973   0.251  0.00  0.00    -0.003 A 
ATOM     15  C   UNL     1      -3.897  -4.614   0.275  0.00  0.00    +0.007 A 
ATOM     16  C   UNL     1      -5.065  -3.879   0.194  0.00  0.00    +0.001 A 
ATOM     17  C   UNL     1      -5.012  -2.501   0.090  0.00  0.00    +0.004 A 
ATOM     18  C   UNL     1      -3.791  -1.855   0.071  0.00  0.00    +0.046 A 
ATOM     19  C   UNL     1      -2.617  -2.591   0.146  0.00  0.00    +0.124 A 
BRANCH  14  21
ATOM     20  C   UNL     1      -1.381  -5.559   1.653  0.00  0.00    +0.012 C 
ATOM     21  C   UNL     1      -1.400  -4.775   0.339  0.00  0.00    +0.016 C 
ATOM     22  C   UNL     1      -1.328  -5.750  -0.838  0.00  0.00    +0.012 C 
ENDBRANCH  14  21
ENDBRANCH  13  19
ENDBRANCH  12  13
ENDBRANCH   9  12
ENDBRANCH   8   9
ENDBRANCH   1   8
BRANCH   4  23
ATOM     23  C   UNL     1       4.912   4.127   0.923  0.00  0.00    -0.059 C 
BRANCH  23  24
ATOM     24  C   UNL     1       5.522   3.973   2.317  0.00  0.00    +0.098 C 
BRANCH  24  25
ATOM     25  N   UNL     1       6.897   4.480   2.307  0.00  0.00    -0.236 N 
ATOM     26  C   UNL     1       7.900   3.629   2.016  0.00  0.00    +0.254 C 
ATOM     27  O   UNL     1       7.652   2.464   1.770  0.00  0.00    -0.270 OA
ATOM     28  C   UNL     1       9.292   4.102   1.992  0.00  0.00    +0.046 A 
ATOM     29  C   UNL     1      10.354   3.262   1.694  0.00  0.00    +0.014 A 
ATOM     30  C   UNL     1      11.654   3.755   1.688  0.00  0.00    +0.001 A 
ATOM     31  C   UNL     1      11.924   5.063   1.971  0.00  0.00    +0.008 A 
ATOM     32  C   UNL     1      10.876   5.947   2.277  0.00  0.00    -0.016 A 
ATOM     33  C   UNL     1       9.552   5.459   2.287  0.00  0.00    +0.006 A 
ATOM     34  C   UNL     1       8.476   6.324   2.593  0.00  0.00    +0.046 A 
ATOM     35  C   UNL     1       8.743   7.654   2.882  0.00  0.00    +0.014 A 
ATOM     36  C   UNL     1      10.051   8.123   2.869  0.00  0.00    +0.001 A 
ATOM     37  C   UNL     1      11.102   7.302   2.576  0.00  0.00    +0.008 A 
ATOM     38  C   UNL     1       7.111   5.778   2.593  0.00  0.00    +0.254 C 
ATOM     39  O   UNL     1       6.170   6.503   2.853  0.00  0.00    -0.270 OA
ENDBRANCH  24  25
ENDBRANCH  23  24
ENDBRANCH   4  23
TORSDOF 10
