REMARK  Name = ZINC39920713
REMARK  6 active torsions:
REMARK  status: ('A' for Active; 'I' for Inactive)
REMARK    1  A    between atoms: C_1  and  C_2
REMARK    2  A    between atoms: C_2  and  C_4
REMARK    3  A    between atoms: C_2  and  O_25
REMARK    4  A    between atoms: N_6  and  N_7
REMARK    5  A    between atoms: C_8  and  C_19
REMARK    6  A    between atoms: O_25  and  C_26
REMARK                            x       y       z     vdW  Elec       q    Type
REMARK                         _______ _______ _______ _____ _____    ______ ____
ROOT
ATOM      1  N   UNL     1       2.505  -0.252  -2.806  0.00  0.00    -0.191 N 
ATOM      2  C   UNL     1       3.392  -1.404  -2.969  0.00  0.00    +0.212 C 
ATOM      3  N   UNL     1       3.301  -1.928  -4.337  0.00  0.00    -0.320 N 
ATOM      4  C   UNL     1       3.307  -1.026  -5.395  0.00  0.00    +0.041 A 
ATOM      5  C   UNL     1       3.817  -1.358  -6.638  0.00  0.00    +0.024 A 
ATOM      6  C   UNL     1       3.802  -0.423  -7.655  0.00  0.00    +0.002 A 
ATOM      7  C   UNL     1       3.282   0.844  -7.440  0.00  0.00    +0.001 A 
ATOM      8  C   UNL     1       2.770   1.191  -6.207  0.00  0.00    +0.015 A 
ATOM      9  C   UNL     1       2.776   0.257  -5.173  0.00  0.00    +0.059 A 
ATOM     10  C   UNL     1       2.229   0.569  -3.841  0.00  0.00    +0.266 C 
ATOM     11  O   UNL     1       1.541   1.557  -3.675  0.00  0.00    -0.268 OA
ATOM     12  H   UNL     1       3.238  -2.882  -4.499  0.00  0.00    +0.148 HD
ENDROOT
BRANCH   2  13
ATOM     13  C   UNL     1       4.812  -0.984  -2.692  0.00  0.00    -0.008 A 
ATOM     14  C   UNL     1       5.069   0.036  -1.795  0.00  0.00    +0.007 A 
ATOM     15  C   UNL     1       6.372   0.422  -1.541  0.00  0.00    +0.000 A 
ATOM     16  C   UNL     1       7.418  -0.211  -2.185  0.00  0.00    +0.000 A 
ATOM     17  C   UNL     1       7.162  -1.232  -3.082  0.00  0.00    +0.000 A 
ATOM     18  C   UNL     1       5.859  -1.621  -3.333  0.00  0.00    +0.007 A 
ENDBRANCH   2  13
BRANCH   1  21
ATOM     19  C   UNL     1       0.627  -0.283  -1.345  0.00  0.00    +0.270 C 
ATOM     20  O   UNL     1      -0.044  -0.756  -2.238  0.00  0.00    -0.270 OA
ATOM     21  N   UNL     1       1.927  -0.000  -1.555  0.00  0.00    -0.227 N 
ATOM     22  H   UNL     1       2.463   0.378  -0.841  0.00  0.00    +0.173 HD
BRANCH  19  24
ATOM     23  C   UNL     1       0.004   1.495   0.268  0.00  0.00    +0.062 C 
ATOM     24  C   UNL     1       0.005  -0.012   0.001  0.00  0.00    +0.257 C 
BRANCH  24  25
ATOM     25  O   UNL     1      -1.339  -0.499   0.012  0.00  0.00    -0.480 OA
BRANCH  25  26
ATOM     26  C   UNL     1      -1.869  -0.818   1.222  0.00  0.00    +0.122 A 
ATOM     27  C   UNL     1      -3.124  -1.405   1.297  0.00  0.00    +0.045 A 
ATOM     28  C   UNL     1      -3.661  -1.729   2.528  0.00  0.00    +0.004 A 
ATOM     29  C   UNL     1      -2.950  -1.468   3.684  0.00  0.00    +0.000 A 
ATOM     30  C   UNL     1      -1.699  -0.881   3.612  0.00  0.00    +0.004 A 
ATOM     31  C   UNL     1      -1.155  -0.561   2.383  0.00  0.00    +0.045 A 
ENDBRANCH  25  26
ENDBRANCH  24  25
ENDBRANCH  19  24
ENDBRANCH   1  21
TORSDOF 5
