REMARK  Name = ZINC13407286
REMARK  17 active torsions:
REMARK  status: ('A' for Active; 'I' for Inactive)
REMARK    1  A    between atoms: C_1  and  C_2
REMARK    2  A    between atoms: C_2  and  C_3
REMARK    3  A    between atoms: C_2  and  C_4
REMARK    4  A    between atoms: C_4  and  C_5
REMARK    5  A    between atoms: C_10  and  O_34
REMARK    6  A    between atoms: C_11  and  O_14
REMARK    7  A    between atoms: O_14  and  C_15
REMARK    8  A    between atoms: C_19  and  O_22
REMARK    9  A    between atoms: C_20  and  O_21
REMARK   10  A    between atoms: O_22  and  C_23
REMARK   11  A    between atoms: N_26  and  C_33
REMARK   12  A    between atoms: C_27  and  C_29
REMARK   13  A    between atoms: C_29  and  C_30
REMARK   14  A    between atoms: C_30  and  C_31
REMARK   15  A    between atoms: C_30  and  C_32
REMARK   16  A    between atoms: O_34  and  C_35
REMARK   17  A    between atoms: N_38  and  C_39
REMARK                            x       y       z     vdW  Elec       q    Type
REMARK                         _______ _______ _______ _____ _____    ______ ____
ROOT
ATOM      1  O   UNL     1       1.172   2.691  -2.921  0.00  0.00    -0.444 OA
ENDROOT
BRANCH   1   7
ATOM      2  C   UNL     1       2.188   4.040  -7.489  0.00  0.00    -0.034 C 
ATOM      3  C   UNL     1       1.265   4.079  -6.299  0.00  0.00    -0.007 A 
ATOM      4  C   UNL     1       0.085   4.792  -6.316  0.00  0.00    -0.040 A 
ATOM      5  C   UNL     1      -0.733   4.806  -5.196  0.00  0.00    +0.053 A 
ATOM      6  C   UNL     1      -0.378   4.100  -4.059  0.00  0.00    +0.166 A 
ATOM      7  C   UNL     1       0.813   3.384  -4.035  0.00  0.00    +0.217 A 
ATOM      8  C   UNL     1       1.631   3.373  -5.157  0.00  0.00    +0.226 A 
ATOM      9  O   UNL     1       2.794   2.670  -5.140  0.00  0.00    -0.284 OA
ATOM     10  C   UNL     1      -0.354   5.565  -7.533  0.00  0.00    +0.017 C 
ATOM     11  C   UNL     1       0.832   5.771  -8.477  0.00  0.00    -0.074 C 
ATOM     12  N   UNL     1       1.481   4.470  -8.700  0.00  0.00    +0.383 N 
ATOM     13  C   UNL     1       2.395   4.528  -9.850  0.00  0.00    -0.095 C 
ATOM     14  H   UNL     1       0.705   3.725  -8.929  0.00  0.00    -0.081 HD
BRANCH   6  15
ATOM     15  O   UNL     1      -1.189   4.113  -2.967  0.00  0.00    -0.491 OA
ATOM     16  C   UNL     1      -2.445   4.781  -3.099  0.00  0.00    +0.277 C 
ENDBRANCH   6  15
BRANCH   2  17
ATOM     17  C   UNL     1       2.701   2.612  -7.684  0.00  0.00    -0.008 C 
BRANCH  17  19
ATOM     18  C   UNL     1       0.675   1.928  -8.975  0.00  0.00    +0.007 C 
ATOM     19  C   UNL     1       1.516   1.646  -7.729  0.00  0.00    -0.018 C 
ATOM     20  C   UNL     1       2.033   0.207  -7.777  0.00  0.00    +0.007 C 
ENDBRANCH  17  19
ENDBRANCH   2  17
ENDBRANCH   1   7
BRANCH   1  21
ATOM     21  C   UNL     1       2.107   3.241  -2.101  0.00  0.00    +0.179 A 
ATOM     22  C   UNL     1       3.364   2.653  -1.991  0.00  0.00    +0.019 A 
ATOM     23  C   UNL     1       4.310   3.210  -1.158  0.00  0.00    -0.034 A 
ATOM     24  C   UNL     1       4.010   4.355  -0.435  0.00  0.00    +0.053 A 
ATOM     25  C   UNL     1       2.762   4.945  -0.540  0.00  0.00    +0.165 A 
ATOM     26  C   UNL     1       1.803   4.386  -1.377  0.00  0.00    +0.202 A 
ATOM     27  C   UNL     1       5.680   2.602  -0.999  0.00  0.00    +0.051 C 
ATOM     28  C   UNL     1       5.958   1.633  -2.149  0.00  0.00    +0.089 C 
ATOM     29  N   UNL     1       4.818   0.710  -2.267  0.00  0.00    -0.298 NA
ATOM     30  C   UNL     1       3.647   1.414  -2.800  0.00  0.00    +0.091 C 
ATOM     31  C   UNL     1       5.162  -0.447  -3.104  0.00  0.00    +0.105 C 
BRANCH  26  32
ATOM     32  O   UNL     1       0.573   4.957  -1.486  0.00  0.00    -0.501 OA
ATOM     33  H   UNL     1       0.335   5.864  -0.911  0.00  0.00    +0.292 HD
ENDBRANCH  26  32
BRANCH  25  34
ATOM     34  O   UNL     1       2.474   6.067   0.172  0.00  0.00    -0.491 OA
ATOM     35  C   UNL     1       3.509   6.586   1.011  0.00  0.00    +0.277 C 
ENDBRANCH  25  34
BRANCH  30  36
ATOM     36  C   UNL     1       2.432   0.486  -2.744  0.00  0.00    +0.026 C 
BRANCH  36  37
ATOM     37  C   UNL     1       2.270  -0.057  -1.324  0.00  0.00    -0.015 C 
ATOM     38  C   UNL     1       1.891   1.086  -0.380  0.00  0.00    +0.007 C 
ATOM     39  C   UNL     1       1.168  -1.119  -1.306  0.00  0.00    +0.007 C 
ENDBRANCH  36  37
ENDBRANCH  30  36
ENDBRANCH   1  21
TORSDOF 9
