REMARK  Name = ZINC09647376
REMARK  8 active torsions:
REMARK  status: ('A' for Active; 'I' for Inactive)
REMARK    1  A    between atoms: C_1  and  N_57
REMARK    2  A    between atoms: C_2  and  C_3
REMARK    3  A    between atoms: C_2  and  N_57
REMARK    4  A    between atoms: N_5  and  C_6
REMARK    5  A    between atoms: C_15  and  C_16
REMARK    6  A    between atoms: C_15  and  N_57
REMARK    7  A    between atoms: N_18  and  C_19
REMARK    8  A    between atoms: N_18  and  C_25
REMARK                            x       y       z     vdW  Elec       q    Type
REMARK                         _______ _______ _______ _____ _____    ______ ____
ROOT
ATOM      1  C   UNL     1      -0.692   2.272  -2.846  0.00  0.00    -0.095 C 
ATOM      2  N   UNL     1       0.628   2.832  -2.488  0.00  0.00    +0.389 N 
ATOM      3  H   UNL     1       0.526   3.838  -2.307  0.00  0.00    -0.081 HD
ENDROOT
BRANCH   2   4
ATOM      4  C   UNL     1       1.578   2.639  -3.603  0.00  0.00    +0.019 C 
BRANCH   4   5
ATOM      5  C   UNL     1       1.145   3.497  -4.764  0.00  0.00    +0.201 C 
ATOM      6  O   UNL     1       0.146   4.178  -4.676  0.00  0.00    -0.278 OA
ATOM      7  N   UNL     1       1.869   3.506  -5.902  0.00  0.00    -0.285 N 
ATOM      8  H   UNL     1       2.623   2.905  -6.002  0.00  0.00    +0.155 HD
BRANCH   7   9
ATOM      9  C   UNL     1       1.532   4.386  -6.939  0.00  0.00    +0.072 A 
ATOM     10  C   UNL     1       0.803   5.536  -6.666  0.00  0.00    +0.029 A 
ATOM     11  C   UNL     1       0.474   6.405  -7.689  0.00  0.00    +0.043 A 
ATOM     12  C   UNL     1       0.863   6.127  -8.988  0.00  0.00    +0.161 A 
ATOM     13  C   UNL     1       1.587   4.977  -9.266  0.00  0.00    +0.195 A 
ATOM     14  C   UNL     1       1.922   4.106  -8.243  0.00  0.00    +0.182 A 
ATOM     15  F   UNL     1       2.627   2.986  -8.513  0.00  0.00    -0.200 F 
ATOM     16  F   UNL     1       1.964   4.707 -10.535  0.00  0.00    -0.199 F 
ATOM     17  F   UNL     1       0.536   6.976  -9.986  0.00  0.00    -0.202 F 
ENDBRANCH   7   9
ENDBRANCH   4   5
ENDBRANCH   2   4
BRANCH   2  18
ATOM     18  C   UNL     1       1.141   2.175  -1.267  0.00  0.00    +0.019 C 
BRANCH  18  19
ATOM     19  C   UNL     1       0.273   2.570  -0.101  0.00  0.00    +0.203 C 
ATOM     20  O   UNL     1      -0.608   3.389  -0.251  0.00  0.00    -0.277 OA
ATOM     21  N   UNL     1       0.475   2.011   1.109  0.00  0.00    -0.270 N 
BRANCH  21  22
ATOM     22  C   UNL     1       1.443   1.013   1.266  0.00  0.00    +0.036 A 
ATOM     23  C   UNL     1       1.187  -0.279   0.825  0.00  0.00    +0.023 A 
ATOM     24  C   UNL     1       2.146  -1.262   0.977  0.00  0.00    +0.002 A 
ATOM     25  C   UNL     1       3.355  -0.963   1.577  0.00  0.00    +0.000 A 
ATOM     26  C   UNL     1       3.611   0.321   2.022  0.00  0.00    +0.002 A 
ATOM     27  C   UNL     1       2.659   1.310   1.868  0.00  0.00    +0.023 A 
ENDBRANCH  21  22
BRANCH  21  28
ATOM     28  C   UNL     1      -0.317   2.451   2.260  0.00  0.00    +0.081 C 
ATOM     29  C   UNL     1      -1.802   2.210   1.979  0.00  0.00    +0.023 C 
ATOM     30  C   UNL     1      -2.629   2.668   3.181  0.00  0.00    +0.002 C 
ATOM     31  C   UNL     1      -2.392   4.160   3.425  0.00  0.00    +0.000 C 
ATOM     32  C   UNL     1      -0.907   4.401   3.706  0.00  0.00    +0.002 C 
ATOM     33  C   UNL     1      -0.080   3.942   2.504  0.00  0.00    +0.023 C 
ENDBRANCH  21  28
ENDBRANCH  18  19
ENDBRANCH   2  18
TORSDOF 7
