REMARK  Name = ZINC64069875
REMARK  10 active torsions:
REMARK  status: ('A' for Active; 'I' for Inactive)
REMARK    1  A    between atoms: C_1  and  C_2
REMARK    2  A    between atoms: N_4  and  C_5
REMARK    3  A    between atoms: C_5  and  C_7
REMARK    4  A    between atoms: C_5  and  C_17
REMARK    5  A    between atoms: C_7  and  C_8
REMARK    6  A    between atoms: N_19  and  C_20
REMARK    7  A    between atoms: C_20  and  C_21
REMARK    8  A    between atoms: C_21  and  C_22
REMARK    9  A    between atoms: C_21  and  C_23
REMARK   10  A    between atoms: C_21  and  N_24
REMARK                            x       y       z     vdW  Elec       q    Type
REMARK                         _______ _______ _______ _____ _____    ______ ____
ROOT
ATOM      1  C   UNL     1       1.955  -2.385   0.341  0.00  0.00    +0.234 C 
ATOM      2  O   UNL     1       2.752  -1.945   1.142  0.00  0.00    -0.274 OA
ATOM      3  N   UNL     1       2.118  -3.625  -0.160  0.00  0.00    -0.315 N 
ATOM      4  H   UNL     1       1.481  -3.977  -0.801  0.00  0.00    +0.149 HD
ENDROOT
BRANCH   1   5
ATOM      5  C   UNL     1       0.783  -1.544  -0.094  0.00  0.00    +0.163 C 
BRANCH   5   9
ATOM      6  C   UNL     1       1.589   1.721   1.735  0.00  0.00    +0.109 C 
ATOM      7  C   UNL     1       1.301   0.269   1.449  0.00  0.00    +0.211 C 
ATOM      8  O   UNL     1       1.283  -0.536   2.355  0.00  0.00    -0.276 OA
ATOM      9  N   UNL     1       1.063  -0.133   0.185  0.00  0.00    -0.304 N 
ATOM     10  H   UNL     1       1.077   0.511  -0.540  0.00  0.00    +0.149 HD
ENDBRANCH   5   9
BRANCH   5  11
ATOM     11  C   UNL     1      -0.468  -1.977   0.674  0.00  0.00    +0.065 C 
BRANCH  11  12
ATOM     12  C   UNL     1      -1.664  -1.223   0.152  0.00  0.00    -0.039 C 
ATOM     13  C   UNL     1      -2.542  -1.641  -0.787  0.00  0.00    -0.001 A 
ATOM     14  C   UNL     1      -2.643  -2.875  -1.576  0.00  0.00    +0.010 A 
ATOM     15  C   UNL     1      -3.658  -3.007  -2.461  0.00  0.00    +0.001 A 
ATOM     16  C   UNL     1      -4.612  -1.997  -2.643  0.00  0.00    +0.002 A 
ATOM     17  C   UNL     1      -4.586  -0.836  -1.956  0.00  0.00    +0.026 A 
ATOM     18  C   UNL     1      -3.563  -0.590  -0.999  0.00  0.00    +0.043 A 
ATOM     19  N   UNL     1      -3.325   0.438  -0.220  0.00  0.00    -0.380 N 
ATOM     20  C   UNL     1      -2.128   0.152   0.579  0.00  0.00    +0.144 C 
ATOM     21  H   UNL     1      -3.854   1.250  -0.177  0.00  0.00    +0.160 HD
ENDBRANCH  11  12
ENDBRANCH   5  11
ENDBRANCH   1   5
BRANCH   3  22
ATOM     22  C   UNL     1       3.259  -4.442   0.263  0.00  0.00    +0.092 C 
BRANCH  22  23
ATOM     23  C   UNL     1       3.209  -5.795  -0.450  0.00  0.00    -0.055 C 
ATOM     24  C   UNL     1       4.399  -6.648  -0.008  0.00  0.00    -0.008 C 
ATOM     25  C   UNL     1       1.906  -6.513  -0.091  0.00  0.00    -0.008 C 
BRANCH  23  26
ATOM     26  N   UNL     1       3.268  -5.586  -1.902  0.00  0.00    +0.387 N 
ATOM     27  C   UNL     1       3.329  -6.887  -2.585  0.00  0.00    -0.073 C 
ATOM     28  C   UNL     1       3.081  -6.667  -4.078  0.00  0.00    +0.017 C 
ATOM     29  C   UNL     1       3.993  -5.582  -4.591  0.00  0.00    -0.048 A 
ATOM     30  C   UNL     1       4.180  -5.462  -5.959  0.00  0.00    +0.004 A 
ATOM     31  C   UNL     1       5.005  -4.479  -6.466  0.00  0.00    +0.000 A 
ATOM     32  C   UNL     1       5.647  -3.608  -5.605  0.00  0.00    +0.000 A 
ATOM     33  C   UNL     1       5.463  -3.727  -4.242  0.00  0.00    +0.002 A 
ATOM     34  C   UNL     1       4.635  -4.716  -3.731  0.00  0.00    -0.061 A 
ATOM     35  C   UNL     1       4.469  -4.815  -2.238  0.00  0.00    -0.042 C 
ATOM     36  H   UNL     1       2.448  -5.082  -2.205  0.00  0.00    -0.080 HD
ENDBRANCH  23  26
ENDBRANCH  22  23
ENDBRANCH   3  22
TORSDOF 7
