REMARK  Name = ZINC28683007
REMARK  11 active torsions:
REMARK  status: ('A' for Active; 'I' for Inactive)
REMARK    1  A    between atoms: C_1  and  C_2
REMARK    2  A    between atoms: C_2  and  C_4
REMARK    3  A    between atoms: C_2  and  O_17
REMARK    4  A    between atoms: N_6  and  C_7
REMARK    5  A    between atoms: C_9  and  N_14
REMARK    6  A    between atoms: O_17  and  C_18
REMARK    7  A    between atoms: C_18  and  C_20
REMARK    8  A    between atoms: C_20  and  C_21
REMARK    9  A    between atoms: C_21  and  C_22
REMARK   10  A    between atoms: C_22  and  N_23
REMARK   11  A    between atoms: C_24  and  C_26
REMARK                            x       y       z     vdW  Elec       q    Type
REMARK                         _______ _______ _______ _____ _____    ______ ____
ROOT
ATOM      1  O   UNL     1      -1.159  -0.692   0.025  0.00  0.00    -0.452 OA
ENDROOT
BRANCH   1   3
ATOM      2  C   UNL     1      -1.027  -2.660   1.453  0.00  0.00    +0.062 C 
ATOM      3  C   UNL     1      -1.063  -2.141   0.014  0.00  0.00    +0.259 C 
BRANCH   3   4
ATOM      4  C   UNL     1      -2.258  -2.719  -0.698  0.00  0.00    +0.258 C 
ATOM      5  O   UNL     1      -3.108  -1.982  -1.153  0.00  0.00    -0.271 OA
ATOM      6  N   UNL     1      -2.384  -4.054  -0.831  0.00  0.00    -0.281 N 
ATOM      7  H   UNL     1      -1.571  -4.718  -0.500  0.00  0.00    +0.155 HD
BRANCH   6   8
ATOM      8  C   UNL     1      -3.547  -4.596  -1.389  0.00  0.00    +0.054 A 
ATOM      9  C   UNL     1      -4.740  -3.887  -1.334  0.00  0.00    +0.057 A 
ATOM     10  C   UNL     1      -5.887  -4.424  -1.886  0.00  0.00    +0.128 A 
ATOM     11  C   UNL     1      -5.848  -5.667  -2.493  0.00  0.00    +0.034 A 
ATOM     12  C   UNL     1      -4.663  -6.376  -2.549  0.00  0.00    +0.024 A 
ATOM     13  C   UNL     1      -3.510  -5.842  -2.003  0.00  0.00    +0.062 A 
ATOM     14 CL   UNL     1      -2.020  -6.729  -2.079  0.00  0.00    -0.082 Cl
BRANCH  10  15
ATOM     15  N   UNL     1      -7.159  -3.669  -1.828  0.00  0.00    +0.056 N 
ATOM     16  O   UNL     1      -7.194  -2.575  -1.294  0.00  0.00    -0.126 OA
ATOM     17  O   UNL     1      -8.170  -4.142  -2.315  0.00  0.00    -0.126 OA
ENDBRANCH  10  15
ENDBRANCH   6   8
ENDBRANCH   3   4
ENDBRANCH   1   3
BRANCH   1  18
ATOM     18  C   UNL     1      -0.006  -0.005   0.028  0.00  0.00    +0.308 C 
ATOM     19  O   UNL     1       1.049  -0.594   0.022  0.00  0.00    -0.251 OA
BRANCH  18  20
ATOM     20  C   UNL     1      -0.027   1.502   0.038  0.00  0.00    +0.122 C 
BRANCH  20  21
ATOM     21  C   UNL     1       1.408   2.032   0.040  0.00  0.00    +0.030 C 
BRANCH  21  22
ATOM     22  C   UNL     1       1.387   3.562   0.051  0.00  0.00    +0.105 C 
BRANCH  22  23
ATOM     23  N   UNL     1       2.761   4.069   0.052  0.00  0.00    -0.311 N 
ATOM     24  C   UNL     1       2.989   5.398   0.061  0.00  0.00    +0.244 C 
ATOM     25  O   UNL     1       2.054   6.175   0.068  0.00  0.00    -0.270 OA
ATOM     26  H   UNL     1       3.607   3.366   0.046  0.00  0.00    +0.149 HD
BRANCH  24  27
ATOM     27  C   UNL     1       4.375   5.910   0.063  0.00  0.00    +0.037 A 
ATOM     28  C   UNL     1       5.451   5.020   0.060  0.00  0.00    +0.014 A 
ATOM     29  C   UNL     1       6.742   5.504   0.055  0.00  0.00    +0.021 A 
ATOM     30  C   UNL     1       6.973   6.869   0.065  0.00  0.00    +0.041 A 
ATOM     31  C   UNL     1       5.910   7.757   0.073  0.00  0.00    +0.021 A 
ATOM     32  C   UNL     1       4.614   7.285   0.072  0.00  0.00    +0.014 A 
ATOM     33 CL   UNL     1       8.602   7.471   0.065  0.00  0.00    -0.084 Cl
ENDBRANCH  24  27
ENDBRANCH  22  23
ENDBRANCH  21  22
ENDBRANCH  20  21
ENDBRANCH  18  20
ENDBRANCH   1  18
TORSDOF 10
