REMARK  Name = ZINC43942455
REMARK  7 active torsions:
REMARK  status: ('A' for Active; 'I' for Inactive)
REMARK    1  A    between atoms: C_1  and  C_2
REMARK    2  A    between atoms: C_5  and  N_9
REMARK    3  A    between atoms: C_6  and  C_8
REMARK    4  A    between atoms: C_10  and  C_12
REMARK    5  A    between atoms: N_14  and  C_15
REMARK    6  A    between atoms: C_15  and  C_16
REMARK    7  A    between atoms: C_22  and  C_24
REMARK                            x       y       z     vdW  Elec       q    Type
REMARK                         _______ _______ _______ _____ _____    ______ ____
ROOT
ATOM      1  C   UNL     1      -0.560  -8.441  -2.246  0.00  0.00    +0.108 C 
ENDROOT
BRANCH   1   2
ATOM      2  C   UNL     1      -0.578  -8.955  -3.687  0.00  0.00    +0.009 C 
ATOM      3  C   UNL     1      -1.847  -8.463  -4.387  0.00  0.00    +0.024 C 
ATOM      4  C   UNL     1      -1.846  -8.951  -5.839  0.00  0.00    +0.108 C 
ATOM      5  N   UNL     1      -1.679 -10.411  -5.848  0.00  0.00    -0.295 N 
ATOM      6  C   UNL     1      -0.540 -10.996  -5.127  0.00  0.00    +0.108 C 
ATOM      7  C   UNL     1      -0.556 -10.485  -3.683  0.00  0.00    +0.024 C 
ATOM      8  C   UNL     1      -2.554 -11.198  -6.504  0.00  0.00    +0.282 C 
ATOM      9  O   UNL     1      -3.450 -10.699  -7.157  0.00  0.00    -0.267 OA
BRANCH   8  10
ATOM     10  C   UNL     1      -2.425 -12.661  -6.431  0.00  0.00    +0.191 A 
ATOM     11  C   UNL     1      -3.324 -13.550  -6.925  0.00  0.00    +0.063 A 
ATOM     12  C   UNL     1      -2.787 -14.877  -6.627  0.00  0.00    +0.021 A 
ATOM     13  C   UNL     1      -3.226 -16.182  -6.866  0.00  0.00    +0.011 A 
ATOM     14  C   UNL     1      -2.468 -17.239  -6.447  0.00  0.00    +0.001 A 
ATOM     15  C   UNL     1      -1.266 -17.024  -5.785  0.00  0.00    +0.004 A 
ATOM     16  C   UNL     1      -0.816 -15.745  -5.539  0.00  0.00    +0.047 A 
ATOM     17  C   UNL     1      -1.570 -14.654  -5.957  0.00  0.00    +0.136 A 
ATOM     18  O   UNL     1      -1.392 -13.322  -5.868  0.00  0.00    -0.450 OA
ENDBRANCH   8  10
ENDBRANCH   1   2
BRANCH   1  21
ATOM     19  C   UNL     1      -0.427  -6.302  -1.085  0.00  0.00    +0.299 C 
ATOM     20  O   UNL     1      -0.480  -6.904  -0.033  0.00  0.00    -0.265 OA
ATOM     21  N   UNL     1      -0.460  -6.979  -2.250  0.00  0.00    -0.307 N 
ATOM     22  H   UNL     1      -0.418  -6.498  -3.092  0.00  0.00    +0.149 HD
BRANCH  19  24
ATOM     23  N   UNL     1      -0.293  -4.136   0.075  0.00  0.00    -0.278 N 
ATOM     24  C   UNL     1      -0.326  -4.812  -1.090  0.00  0.00    +0.303 C 
ATOM     25  O   UNL     1      -0.273  -4.211  -2.143  0.00  0.00    -0.265 OA
ATOM     26  H   UNL     1      -0.270  -4.619   0.916  0.00  0.00    +0.155 HD
BRANCH  23  31
ATOM     27  C   UNL     1      -0.292   1.536   0.061  0.00  0.00    +0.044 C 
ATOM     28  C   UNL     1      -0.292   0.029   0.065  0.00  0.00    -0.050 A 
ATOM     29  C   UNL     1       0.352  -0.664  -0.944  0.00  0.00    +0.005 A 
ATOM     30  C   UNL     1       0.354  -2.045  -0.944  0.00  0.00    +0.024 A 
ATOM     31  C   UNL     1      -0.292  -2.738   0.072  0.00  0.00    +0.037 A 
ATOM     32  C   UNL     1      -0.938  -2.039   1.084  0.00  0.00    -0.029 A 
ATOM     33  C   UNL     1      -0.932  -0.658   1.080  0.00  0.00    +0.008 A 
ATOM     34  C   UNL     1      -1.641  -2.787   2.188  0.00  0.00    +0.045 C 
ENDBRANCH  23  31
ENDBRANCH  19  24
ENDBRANCH   1  21
TORSDOF 5
