REMARK  Name = ZINC39794307
REMARK  5 active torsions:
REMARK  status: ('A' for Active; 'I' for Inactive)
REMARK    1  A    between atoms: C_1  and  C_2
REMARK    2  A    between atoms: C_2  and  C_3
REMARK    3  A    between atoms: C_9  and  C_11
REMARK    4  A    between atoms: C_13  and  C_17
REMARK    5  A    between atoms: C_15  and  C_16
REMARK                            x       y       z     vdW  Elec       q    Type
REMARK                         _______ _______ _______ _____ _____    ______ ____
ROOT
ATOM      1  C   UNL     1       4.002  -2.607   6.259  0.00  0.00    +0.078 A 
ATOM      2  C   UNL     1       5.438  -2.749   5.995  0.00  0.00    +0.063 A 
ATOM      3  C   UNL     1       5.984  -3.201   7.151  0.00  0.00    +0.136 A 
ATOM      4  O   UNL     1       5.009  -3.339   8.068  0.00  0.00    -0.459 OA
ATOM      5  C   UNL     1       3.824  -2.986   7.559  0.00  0.00    +0.115 A 
ATOM      6  C   UNL     1       2.510  -3.007   8.296  0.00  0.00    +0.087 C 
ENDROOT
BRANCH   1  13
ATOM      7  C   UNL     1       0.731  -0.503   1.223  0.00  0.00    +0.103 A 
ATOM      8  N   UNL     1       0.270  -0.804   2.421  0.00  0.00    -0.145 NA
ATOM      9  N   UNL     1       1.022  -1.215   3.346  0.00  0.00    -0.126 NA
ATOM     10  C   UNL     1       2.327  -1.370   3.170  0.00  0.00    +0.188 A 
ATOM     11  S   UNL     1       2.469  -0.865   1.458  0.00  0.00    -0.035 S 
ATOM     12  N   UNL     1       3.304  -1.805   4.058  0.00  0.00    -0.259 N 
ATOM     13  C   UNL     1       2.966  -2.146   5.317  0.00  0.00    +0.253 C 
ATOM     14  O   UNL     1       1.807  -2.072   5.677  0.00  0.00    -0.270 OA
ATOM     15  H   UNL     1       4.229  -1.864   3.771  0.00  0.00    +0.157 HD
BRANCH   7  17
ATOM     16  C   UNL     1      -0.019   1.526   0.010  0.00  0.00    +0.011 C 
ATOM     17  C   UNL     1       0.002  -0.004   0.002  0.00  0.00    +0.061 C 
ENDBRANCH   7  17
ENDBRANCH   1  13
BRANCH   3  18
ATOM     18  C   UNL     1       7.417  -3.495   7.368  0.00  0.00    +0.020 A 
ATOM     19  C   UNL     1       8.335  -3.306   6.335  0.00  0.00    +0.031 A 
ATOM     20  C   UNL     1       9.672  -3.583   6.544  0.00  0.00    +0.043 A 
ATOM     21  C   UNL     1      10.101  -4.047   7.775  0.00  0.00    +0.040 A 
ATOM     22  C   UNL     1       9.195  -4.237   8.804  0.00  0.00    +0.043 A 
ATOM     23  C   UNL     1       7.856  -3.958   8.609  0.00  0.00    +0.031 A 
ATOM     24 CL   UNL     1       9.742  -4.820  10.345  0.00  0.00    -0.083 Cl
ATOM     25 CL   UNL     1      10.816  -3.348   5.260  0.00  0.00    -0.083 Cl
ENDBRANCH   3  18
TORSDOF 3
