REMARK  Name = ZINC39711662
REMARK  11 active torsions:
REMARK  status: ('A' for Active; 'I' for Inactive)
REMARK    1  A    between atoms: C_1  and  C_2
REMARK    2  A    between atoms: C_2  and  C_3
REMARK    3  A    between atoms: C_2  and  C_4
REMARK    4  A    between atoms: C_2  and  N_5
REMARK    5  A    between atoms: C_6  and  C_11
REMARK    6  A    between atoms: C_11  and  C_13
REMARK    7  A    between atoms: C_11  and  N_28
REMARK    8  A    between atoms: N_28  and  C_29
REMARK    9  A    between atoms: N_28  and  C_36
REMARK   10  A    between atoms: C_29  and  C_30
REMARK   11  A    between atoms: C_36  and  C_37
REMARK                            x       y       z     vdW  Elec       q    Type
REMARK                         _______ _______ _______ _____ _____    ______ ____
ROOT
ATOM      1  C   UNL     1       0.330  -1.108   1.715  0.00  0.00    -0.009 C 
ENDROOT
BRANCH   1   2
ATOM      2  C   UNL     1      -1.155  -0.802   1.512  0.00  0.00    +0.088 C 
ATOM      3  C   UNL     1      -1.554   0.254   2.524  0.00  0.00    -0.006 C 
ATOM      4  C   UNL     1      -2.560  -0.054   3.386  0.00  0.00    -0.003 A 
ATOM      5  C   UNL     1      -3.005   0.910   4.393  0.00  0.00    +0.059 A 
ATOM      6  C   UNL     1      -4.011   0.571   5.240  0.00  0.00    +0.167 A 
ATOM      7  C   UNL     1      -4.635  -0.693   5.164  0.00  0.00    +0.168 A 
ATOM      8  C   UNL     1      -4.253  -1.636   4.233  0.00  0.00    +0.073 A 
ATOM      9  C   UNL     1      -3.224  -1.370   3.322  0.00  0.00    +0.044 A 
ATOM     10  N   UNL     1      -2.869  -2.297   2.428  0.00  0.00    -0.284 N 
ATOM     11  C   UNL     1      -1.907  -2.113   1.542  0.00  0.00    +0.223 C 
ATOM     12  O   UNL     1      -1.628  -2.996   0.753  0.00  0.00    -0.275 OA
ATOM     13  O   UNL     1      -5.599  -0.750   6.127  0.00  0.00    -0.453 OA
ATOM     14  C   UNL     1      -5.285   0.304   7.054  0.00  0.00    +0.466 C 
ATOM     15  O   UNL     1      -4.597   1.280   6.251  0.00  0.00    -0.453 OA
ATOM     16  H   UNL     1      -3.340  -3.145   2.431  0.00  0.00    +0.155 HD
ENDBRANCH   1   2
BRANCH   1  18
ATOM     17  N   UNL     1       0.351  -2.395  -0.394  0.00  0.00    -0.183 NA
ATOM     18  C   UNL     1       0.672  -2.442   1.048  0.00  0.00    +0.205 C 
ATOM     19  N   UNL     1       2.120  -2.686   1.096  0.00  0.00    -0.152 NA
ATOM     20  N   UNL     1       2.549  -2.764  -0.057  0.00  0.00    -0.070 NA
ATOM     21  N   UNL     1       1.553  -2.601  -1.019  0.00  0.00    -0.179 N 
ATOM     22  H   UNL     1       1.689  -2.629  -1.979  0.00  0.00    +0.191 HD
BRANCH  17  24
ATOM     23  C   UNL     1       0.112  -0.789  -2.227  0.00  0.00    +0.029 C 
ATOM     24  C   UNL     1      -0.219  -1.093  -0.764  0.00  0.00    +0.035 C 
ATOM     25  C   UNL     1       0.376  -0.003   0.130  0.00  0.00    +0.029 C 
ATOM     26  C   UNL     1      -1.738  -1.130  -0.582  0.00  0.00    +0.029 C 
ENDBRANCH  17  24
ENDBRANCH   1  18
BRANCH   1  27
ATOM     27  N   UNL     1       0.622  -1.190   3.153  0.00  0.00    +0.390 N 
ATOM     28  H   UNL     1       0.218  -0.395   3.624  0.00  0.00    -0.080 HD
BRANCH  27  29
ATOM     29  C   UNL     1       2.076  -1.195   3.358  0.00  0.00    -0.042 C 
BRANCH  29  30
ATOM     30  C   UNL     1       2.635   0.164   3.022  0.00  0.00    -0.064 A 
ATOM     31  C   UNL     1       2.957   0.474   1.714  0.00  0.00    +0.002 A 
ATOM     32  C   UNL     1       3.470   1.720   1.405  0.00  0.00    +0.000 A 
ATOM     33  C   UNL     1       3.660   2.656   2.405  0.00  0.00    +0.000 A 
ATOM     34  C   UNL     1       3.337   2.346   3.713  0.00  0.00    +0.000 A 
ATOM     35  C   UNL     1       2.820   1.102   4.021  0.00  0.00    +0.002 A 
ENDBRANCH  29  30
ENDBRANCH  27  29
BRANCH  27  36
ATOM     36  C   UNL     1       0.046  -2.427   3.699  0.00  0.00    -0.040 C 
BRANCH  36  37
ATOM     37  C   UNL     1       0.150  -2.408   5.202  0.00  0.00    -0.046 A 
ATOM     38  C   UNL     1       1.272  -2.923   5.834  0.00  0.00    +0.005 A 
ATOM     39  C   UNL     1       1.325  -2.884   7.219  0.00  0.00    +0.020 A 
ATOM     40  C   UNL     1       0.265  -2.339   7.918  0.00  0.00    +0.111 A 
ATOM     41  N   UNL     1      -0.786  -1.859   7.284  0.00  0.00    -0.263 NA
ATOM     42  C   UNL     1      -0.868  -1.873   5.967  0.00  0.00    +0.112 A 
ENDBRANCH  36  37
ENDBRANCH  27  36
ENDBRANCH   1  27
TORSDOF 8
