REMARK  Name = ZINC38897656
REMARK  8 active torsions:
REMARK  status: ('A' for Active; 'I' for Inactive)
REMARK    1  A    between atoms: C_1  and  C_2
REMARK    2  A    between atoms: C_7  and  N_8
REMARK    3  A    between atoms: C_9  and  C_11
REMARK    4  A    between atoms: C_11  and  C_12
REMARK    5  A    between atoms: C_13  and  C_28
REMARK    6  A    between atoms: C_15  and  S_20
REMARK    7  A    between atoms: S_20  and  C_21
REMARK    8  A    between atoms: C_21  and  C_22
REMARK                            x       y       z     vdW  Elec       q    Type
REMARK                         _______ _______ _______ _____ _____    ______ ____
ROOT
ATOM      1  C   UNL     1      -0.243  -0.933   6.020  0.00  0.00    +0.047 A 
ATOM      2  C   UNL     1       0.882  -1.289   6.705  0.00  0.00    +0.050 A 
ATOM      3  N   UNL     1       0.806  -2.159   7.709  0.00  0.00    -0.228 NA
ATOM      4  C   UNL     1      -0.345  -2.695   8.066  0.00  0.00    +0.169 A 
ATOM      5  N   UNL     1      -1.500  -2.378   7.419  0.00  0.00    -0.302 N 
ATOM      6  H   UNL     1      -2.339  -2.781   7.693  0.00  0.00    +0.171 HD
ATOM      7  C   UNL     1      -1.476  -1.495   6.397  0.00  0.00    +0.256 A 
ATOM      8  O   UNL     1      -2.502  -1.195   5.810  0.00  0.00    -0.267 OA
ATOM      9  C   UNL     1       2.214  -0.696   6.324  0.00  0.00    +0.066 C 
ENDROOT
BRANCH   1  10
ATOM     10  C   UNL     1      -0.168   0.052   4.882  0.00  0.00    +0.138 C 
BRANCH  10  12
ATOM     11  N   UNL     1       0.025  -0.015   2.417  0.00  0.00    -0.285 N 
ATOM     12  C   UNL     1      -0.056  -0.694   3.578  0.00  0.00    +0.222 C 
ATOM     13  O   UNL     1      -0.040  -1.907   3.573  0.00  0.00    -0.275 OA
ATOM     14  H   UNL     1       0.078   0.954   2.425  0.00  0.00    +0.155 HD
BRANCH  11  21
ATOM     15  C   UNL     1      -1.264   1.184   0.181  0.00  0.00    +0.045 C 
ATOM     16  C   UNL     1      -0.584  -0.158   0.084  0.00  0.00    -0.029 A 
ATOM     17  C   UNL     1      -0.568  -0.840  -1.117  0.00  0.00    +0.005 A 
ATOM     18  C   UNL     1       0.055  -2.071  -1.206  0.00  0.00    +0.000 A 
ATOM     19  C   UNL     1       0.666  -2.622  -0.095  0.00  0.00    +0.002 A 
ATOM     20  C   UNL     1       0.655  -1.945   1.108  0.00  0.00    +0.023 A 
ATOM     21  C   UNL     1       0.034  -0.706   1.201  0.00  0.00    +0.036 A 
ENDBRANCH  11  21
ENDBRANCH  10  12
ENDBRANCH   1  10
BRANCH   4  22
ATOM     22  S   UNL     1      -0.388  -3.842   9.403  0.00  0.00    -0.083 S 
BRANCH  22  23
ATOM     23  C   UNL     1       1.340  -3.953   9.942  0.00  0.00    +0.112 C 
BRANCH  23  24
ATOM     24  C   UNL     1       1.445  -4.915  11.097  0.00  0.00    -0.037 A 
ATOM     25  C   UNL     1       1.306  -4.457  12.394  0.00  0.00    +0.004 A 
ATOM     26  C   UNL     1       1.402  -5.339  13.453  0.00  0.00    +0.000 A 
ATOM     27  C   UNL     1       1.637  -6.681  13.216  0.00  0.00    +0.000 A 
ATOM     28  C   UNL     1       1.776  -7.139  11.920  0.00  0.00    +0.000 A 
ATOM     29  C   UNL     1       1.675  -6.258  10.860  0.00  0.00    +0.004 A 
ENDBRANCH  23  24
ENDBRANCH  22  23
ENDBRANCH   4  22
TORSDOF 6
