REMARK  Name = ZINC06501154
REMARK  15 active torsions:
REMARK  status: ('A' for Active; 'I' for Inactive)
REMARK    1  A    between atoms: C_1  and  C_2
REMARK    2  A    between atoms: C_2  and  C_3
REMARK    3  A    between atoms: C_3  and  C_4
REMARK    4  A    between atoms: C_4  and  C_6
REMARK    5  A    between atoms: C_4  and  N_14
REMARK    6  A    between atoms: N_8  and  C_9
REMARK    7  A    between atoms: C_9  and  C_10
REMARK    8  A    between atoms: C_10  and  C_11
REMARK    9  A    between atoms: C_11  and  C_12
REMARK   10  A    between atoms: C_11  and  C_13
REMARK   11  A    between atoms: N_14  and  C_15
REMARK   12  A    between atoms: C_15  and  C_16
REMARK   13  A    between atoms: C_22  and  C_24
REMARK   14  A    between atoms: C_25  and  N_32
REMARK   15  A    between atoms: C_26  and  C_29
REMARK                            x       y       z     vdW  Elec       q    Type
REMARK                         _______ _______ _______ _____ _____    ______ ____
ROOT
ATOM      1  N   UNL     1       1.661  -2.209   0.501  0.00  0.00    -0.281 N 
ATOM      2  C   UNL     1       1.607  -3.373   1.179  0.00  0.00    +0.257 C 
ATOM      3  O   UNL     1       0.636  -4.098   1.067  0.00  0.00    -0.269 OA
ENDROOT
BRANCH   2   4
ATOM      4  C   UNL     1       2.717  -3.765   2.050  0.00  0.00    +0.115 A 
ATOM      5  C   UNL     1       2.731  -4.671   3.110  0.00  0.00    +0.076 A 
ATOM      6  C   UNL     1       3.979  -4.794   3.719  0.00  0.00    +0.155 A 
ATOM      7  N   UNL     1       4.992  -4.083   3.270  0.00  0.00    -0.203 NA
ATOM      8  S   UNL     1       4.412  -3.217   2.033  0.00  0.00    +0.019 S 
BRANCH   6   9
ATOM      9  C   UNL     1       4.163  -5.712   4.858  0.00  0.00    +0.262 C 
ATOM     10  O   UNL     1       3.250  -6.435   5.209  0.00  0.00    -0.269 OA
ATOM     11  N   UNL     1       5.342  -5.751   5.509  0.00  0.00    -0.324 N 
ATOM     12  H   UNL     1       6.070  -5.174   5.229  0.00  0.00    +0.145 HD
ATOM     13  H   UNL     1       5.463  -6.355   6.258  0.00  0.00    +0.145 HD
ENDBRANCH   6   9
BRANCH   5  14
ATOM     14  N   UNL     1       1.611  -5.382   3.520  0.00  0.00    -0.355 N 
ATOM     15  H   UNL     1       0.793  -5.340   3.000  0.00  0.00    +0.142 HD
ATOM     16  H   UNL     1       1.646  -5.920   4.326  0.00  0.00    +0.142 HD
ENDBRANCH   5  14
ENDBRANCH   2   4
BRANCH   1  17
ATOM     17  C   UNL     1       0.591  -1.857  -0.435  0.00  0.00    +0.162 C 
BRANCH  17  18
ATOM     18  C   UNL     1       1.185  -1.560  -1.788  0.00  0.00    +0.234 C 
ATOM     19  O   UNL     1       2.384  -1.634  -1.953  0.00  0.00    -0.274 OA
ATOM     20  N   UNL     1       0.384  -1.210  -2.814  0.00  0.00    -0.314 N 
ATOM     21  H   UNL     1      -0.576  -1.151  -2.682  0.00  0.00    +0.149 HD
BRANCH  20  22
ATOM     22  C   UNL     1       0.961  -0.921  -4.129  0.00  0.00    +0.104 C 
BRANCH  22  23
ATOM     23  C   UNL     1      -0.156  -0.554  -5.107  0.00  0.00    +0.022 C 
BRANCH  23  24
ATOM     24  C   UNL     1       0.447  -0.252  -6.480  0.00  0.00    -0.016 C 
ATOM     25  C   UNL     1       1.081  -1.522  -7.049  0.00  0.00    +0.007 C 
ATOM     26  C   UNL     1      -0.653   0.236  -7.425  0.00  0.00    +0.007 C 
ENDBRANCH  23  24
ENDBRANCH  22  23
ENDBRANCH  20  22
ENDBRANCH  17  18
BRANCH  17  27
ATOM     27  C   UNL     1      -0.151  -0.622   0.079  0.00  0.00    +0.032 C 
BRANCH  27  29
ATOM     28  C   UNL     1      -1.627   0.265   1.889  0.00  0.00    +0.004 C 
ATOM     29  C   UNL     1      -0.885  -0.970   1.375  0.00  0.00    -0.001 C 
ENDBRANCH  27  29
ENDBRANCH  17  27
ENDBRANCH   1  17
BRANCH   1  30
ATOM     30  C   UNL     1       2.789  -1.296   0.702  0.00  0.00    +0.144 C 
BRANCH  30  31
ATOM     31  C   UNL     1       2.543  -0.456   1.929  0.00  0.00    -0.030 A 
ATOM     32  C   UNL     1       2.006   0.811   1.803  0.00  0.00    +0.005 A 
ATOM     33  C   UNL     1       1.781   1.581   2.928  0.00  0.00    +0.000 A 
ATOM     34  C   UNL     1       2.094   1.084   4.180  0.00  0.00    +0.000 A 
ATOM     35  C   UNL     1       2.630  -0.183   4.306  0.00  0.00    +0.000 A 
ATOM     36  C   UNL     1       2.851  -0.955   3.180  0.00  0.00    +0.005 A 
ENDBRANCH  30  31
ENDBRANCH   1  30
TORSDOF 12
