REMARK  Name = ZINC00684186
REMARK  4 active torsions:
REMARK  status: ('A' for Active; 'I' for Inactive)
REMARK    1  A    between atoms: C_1  and  C_2
REMARK    2  A    between atoms: C_2  and  S_3
REMARK    3  A    between atoms: S_3  and  C_4
REMARK    4  A    between atoms: C_17  and  C_20
REMARK                            x       y       z     vdW  Elec       q    Type
REMARK                         _______ _______ _______ _____ _____    ______ ____
ROOT
ATOM      1  C   UNL     1      -4.754   5.247   0.141  0.00  0.00    +0.212 A 
ATOM      2  N   UNL     1      -3.837   5.606  -0.753  0.00  0.00    -0.184 NA
ATOM      3  C   UNL     1      -2.692   4.947  -0.804  0.00  0.00    +0.248 A 
ATOM      4  C   UNL     1      -2.479   3.883   0.102  0.00  0.00    +0.156 A 
ATOM      5  N   UNL     1      -3.435   3.575   0.965  0.00  0.00    -0.141 NA
ATOM      6  N   UNL     1      -4.537   4.241   0.979  0.00  0.00    -0.122 NA
ATOM      7  C   UNL     1      -1.200   3.143   0.072  0.00  0.00    +0.028 A 
ATOM      8  C   UNL     1      -1.162   1.754   0.076  0.00  0.00    +0.012 A 
ATOM      9  C   UNL     1       0.055   1.101   0.075  0.00  0.00    +0.001 A 
ATOM     10  C   UNL     1       1.237   1.821   0.057  0.00  0.00    +0.002 A 
ATOM     11  C   UNL     1       1.214   3.204   0.039  0.00  0.00    +0.024 A 
ATOM     12  C   UNL     1       0.003   3.873   0.043  0.00  0.00    +0.039 A 
ATOM     13  N   UNL     1      -0.057   5.269   0.003  0.00  0.00    -0.305 N 
ATOM     14  C   UNL     1      -0.562   5.916  -1.204  0.00  0.00    +0.294 C 
ATOM     15  O   UNL     1      -1.730   5.271  -1.701  0.00  0.00    -0.449 OA
ATOM     16  H   UNL     1       0.230   5.798   0.764  0.00  0.00    +0.150 HD
ENDROOT
BRANCH  14  17
ATOM     17  C   UNL     1       0.508   5.878  -2.265  0.00  0.00    +0.014 A 
ATOM     18  C   UNL     1       1.831   6.082  -1.920  0.00  0.00    +0.009 A 
ATOM     19  C   UNL     1       2.814   6.043  -2.891  0.00  0.00    +0.003 A 
ATOM     20  C   UNL     1       2.473   5.811  -4.210  0.00  0.00    +0.038 A 
ATOM     21  C   UNL     1       1.148   5.612  -4.558  0.00  0.00    +0.124 A 
ATOM     22  C   UNL     1       0.165   5.646  -3.583  0.00  0.00    +0.047 A 
ATOM     23  F   UNL     1       0.815   5.385  -5.847  0.00  0.00    -0.205 F 
ENDBRANCH  14  17
BRANCH   1  24
ATOM     24  S   UNL     1      -6.282   6.121   0.213  0.00  0.00    -0.085 S 
BRANCH  24  26
ATOM     25  C   UNL     1      -8.478   5.825   1.811  0.00  0.00    +0.016 C 
ATOM     26  C   UNL     1      -7.093   5.225   1.560  0.00  0.00    +0.074 C 
ENDBRANCH  24  26
ENDBRANCH   1  24
TORSDOF 3
