REMARK  Name = ZINC36589861
REMARK  8 active torsions:
REMARK  status: ('A' for Active; 'I' for Inactive)
REMARK    1  A    between atoms: C_1  and  C_2
REMARK    2  A    between atoms: C_2  and  C_3
REMARK    3  A    between atoms: C_2  and  C_4
REMARK    4  A    between atoms: C_4  and  C_6
REMARK    5  A    between atoms: C_4  and  N_10
REMARK    6  A    between atoms: C_6  and  O_8
REMARK    7  A    between atoms: O_8  and  C_9
REMARK    8  A    between atoms: C_22  and  C_24
REMARK                            x       y       z     vdW  Elec       q    Type
REMARK                         _______ _______ _______ _____ _____    ______ ____
ROOT
ATOM      1  N   UNL     1      -1.171  -1.822   2.709  0.00  0.00    -0.286 N 
ATOM      2  C   UNL     1      -1.925  -0.747   2.405  0.00  0.00    +0.304 C 
ATOM      3  O   UNL     1      -1.871  -0.262   1.292  0.00  0.00    -0.253 OA
ATOM      4  N   UNL     1      -2.737  -0.208   3.336  0.00  0.00    -0.273 N 
ATOM      5  C   UNL     1      -3.655   0.888   2.991  0.00  0.00    +0.116 C 
ATOM      6  C   UNL     1      -3.250   2.145   3.772  0.00  0.00    +0.074 C 
ATOM      7  C   UNL     1      -2.977   1.761   5.203  0.00  0.00    +0.040 A 
ATOM      8  C   UNL     1      -2.740   0.503   5.632  0.00  0.00    +0.062 A 
ATOM      9  N   UNL     1      -2.537   0.545   6.950  0.00  0.00    -0.348 N 
ATOM     10  C   UNL     1      -2.641   1.783   7.360  0.00  0.00    +0.171 A 
ATOM     11  N   UNL     1      -2.917   2.572   6.296  0.00  0.00    -0.349 N 
ATOM     12  H   UNL     1      -3.047   3.533   6.309  0.00  0.00    +0.166 HD
ATOM     13  C   UNL     1      -2.732  -0.708   4.723  0.00  0.00    +0.158 C 
ATOM     14  H   UNL     1      -1.156  -2.163   3.618  0.00  0.00    +0.151 HD
ATOM     15  H   UNL     1      -2.342  -0.219   7.515  0.00  0.00    +0.167 HD
ENDROOT
BRANCH  13  16
ATOM     16  C   UNL     1      -3.958  -1.548   4.970  0.00  0.00    -0.001 A 
ATOM     17  C   UNL     1      -5.216  -0.986   4.853  0.00  0.00    +0.007 A 
ATOM     18  C   UNL     1      -6.341  -1.756   5.079  0.00  0.00    +0.002 A 
ATOM     19  C   UNL     1      -6.210  -3.088   5.424  0.00  0.00    +0.021 A 
ATOM     20  C   UNL     1      -4.953  -3.652   5.541  0.00  0.00    +0.060 A 
ATOM     21  C   UNL     1      -3.825  -2.882   5.308  0.00  0.00    +0.065 A 
ATOM     22 CL   UNL     1      -2.247  -3.590   5.448  0.00  0.00    -0.082 Cl
ATOM     23 CL   UNL     1      -4.788  -5.325   5.974  0.00  0.00    -0.082 Cl
ENDBRANCH  13  16
BRANCH   1  24
ATOM     24  C   UNL     1      -0.375  -2.477   1.668  0.00  0.00    +0.186 C 
BRANCH  24  26
ATOM     25  C   UNL     1      -1.871  -4.462   1.913  0.00  0.00    +0.009 C 
ATOM     26  C   UNL     1      -1.248  -3.484   0.916  0.00  0.00    +0.014 C 
ATOM     27  C   UNL     1      -2.357  -2.740   0.170  0.00  0.00    +0.009 C 
ENDBRANCH  24  26
BRANCH  24  28
ATOM     28  C   UNL     1       0.788  -3.195   2.303  0.00  0.00    +0.328 C 
ATOM     29  O   UNL     1       0.937  -3.163   3.501  0.00  0.00    -0.249 OA
BRANCH  28  30
ATOM     30  O   UNL     1       1.659  -3.870   1.536  0.00  0.00    -0.467 OA
ATOM     31  C   UNL     1       2.738  -4.527   2.204  0.00  0.00    +0.280 C 
ENDBRANCH  28  30
ENDBRANCH  24  28
ENDBRANCH   1  24
TORSDOF 5
