REMARK  Name = ZINC12524239
REMARK  8 active torsions:
REMARK  status: ('A' for Active; 'I' for Inactive)
REMARK    1  A    between atoms: C_1  and  C_2
REMARK    2  A    between atoms: C_2  and  N_3
REMARK    3  A    between atoms: N_3  and  C_4
REMARK    4  A    between atoms: N_3  and  C_6
REMARK    5  A    between atoms: C_4  and  C_5
REMARK    6  A    between atoms: C_11  and  C_17
REMARK    7  A    between atoms: N_18  and  N_19
REMARK    8  A    between atoms: C_20  and  C_22
REMARK                            x       y       z     vdW  Elec       q    Type
REMARK                         _______ _______ _______ _____ _____    ______ ____
ROOT
ATOM      1  C   UNL     1      -2.013  -0.758   1.222  0.00  0.00    +0.033 A 
ATOM      2  C   UNL     1      -1.345  -0.516   2.424  0.00  0.00    +0.024 A 
ATOM      3  C   UNL     1      -1.955  -0.765   3.616  0.00  0.00    +0.013 A 
ATOM      4  C   UNL     1      -3.261  -1.278   3.641  0.00  0.00    +0.018 A 
ATOM      5  C   UNL     1      -3.894  -1.574   4.873  0.00  0.00    +0.030 A 
ATOM      6  C   UNL     1      -5.099  -2.261   4.842  0.00  0.00    +0.099 A 
ATOM      7  C   UNL     1      -5.616  -2.662   3.522  0.00  0.00    +0.348 A 
ATOM      8  O   UNL     1      -6.363  -3.615   3.401  0.00  0.00    -0.244 OA
ATOM      9  O   UNL     1      -5.233  -1.933   2.448  0.00  0.00    -0.422 OA
ATOM     10  C   UNL     1      -3.950  -1.495   2.431  0.00  0.00    +0.141 A 
ATOM     11  C   UNL     1      -3.316  -1.239   1.227  0.00  0.00    +0.070 A 
ENDROOT
BRANCH   6  12
ATOM     12  C   UNL     1      -5.833  -2.579   6.081  0.00  0.00    +0.121 C 
ATOM     13  N   UNL     1      -6.965  -3.227   6.021  0.00  0.00    -0.291 N 
ATOM     14  N   UNL     1      -5.320  -2.189   7.313  0.00  0.00    -0.343 N 
ATOM     15  H   UNL     1      -4.479  -1.707   7.357  0.00  0.00    +0.144 HD
ATOM     16  H   UNL     1      -5.802  -2.398   8.128  0.00  0.00    +0.144 HD
ATOM     17  H   UNL     1      -7.323  -3.500   5.162  0.00  0.00    +0.186 HD
BRANCH  13  18
ATOM     18  N   UNL     1      -7.662  -3.529   7.199  0.00  0.00    -0.224 N 
ATOM     19  C   UNL     1      -8.830  -4.198   7.137  0.00  0.00    +0.268 C 
ATOM     20  O   UNL     1      -9.280  -4.540   6.058  0.00  0.00    -0.268 OA
ATOM     21  H   UNL     1      -7.304  -3.256   8.058  0.00  0.00    +0.175 HD
BRANCH  19  22
ATOM     22  C   UNL     1      -9.560  -4.514   8.369  0.00  0.00    +0.075 A 
ATOM     23  C   UNL     1     -10.760  -5.190   8.524  0.00  0.00    +0.021 A 
ATOM     24  C   UNL     1     -11.200  -5.334   9.819  0.00  0.00    +0.008 A 
ATOM     25  C   UNL     1     -10.456  -4.822  10.829  0.00  0.00    +0.046 A 
ATOM     26  S   UNL     1      -9.131  -4.135  10.057  0.00  0.00    -0.092 S 
ENDBRANCH  19  22
ENDBRANCH  13  18
ENDBRANCH   6  12
BRANCH   1  27
ATOM     27  N   UNL     1      -1.372  -0.511   0.012  0.00  0.00    -0.330 N 
BRANCH  27  29
ATOM     28  C   UNL     1      -0.019   1.526   0.010  0.00  0.00    +0.024 C 
ATOM     29  C   UNL     1       0.002  -0.004   0.002  0.00  0.00    +0.102 C 
ENDBRANCH  27  29
BRANCH  27  30
ATOM     30  C   UNL     1      -2.072  -0.758  -1.251  0.00  0.00    +0.102 C 
ATOM     31  C   UNL     1      -1.816  -2.197  -1.703  0.00  0.00    +0.024 C 
ENDBRANCH  27  30
ENDBRANCH   1  27
TORSDOF 6
