REMARK  Name = ZINC39686541
REMARK  11 active torsions:
REMARK  status: ('A' for Active; 'I' for Inactive)
REMARK    1  A    between atoms: C_1  and  C_2
REMARK    2  A    between atoms: C_2  and  C_4
REMARK    3  A    between atoms: C_2  and  N_13
REMARK    4  A    between atoms: C_4  and  C_5
REMARK    5  A    between atoms: C_10  and  O_11
REMARK    6  A    between atoms: O_11  and  C_12
REMARK    7  A    between atoms: C_14  and  C_16
REMARK    8  A    between atoms: C_27  and  C_29
REMARK    9  A    between atoms: C_29  and  C_31
REMARK   10  A    between atoms: C_29  and  O_32
REMARK   11  A    between atoms: O_32  and  C_33
REMARK                            x       y       z     vdW  Elec       q    Type
REMARK                         _______ _______ _______ _____ _____    ______ ____
ROOT
ATOM      1  C   UNL     1       0.692  -0.334  -3.552  0.00  0.00    +0.100 C 
ATOM      2  C   UNL     1       0.890  -1.858  -3.396  0.00  0.00    +0.121 C 
ATOM      3  N   UNL     1      -0.265  -2.461  -4.103  0.00  0.00    -0.297 N 
ATOM      4  C   UNL     1      -0.444  -1.612  -5.305  0.00  0.00    +0.115 C 
ATOM      5  C   UNL     1      -0.181  -0.176  -4.808  0.00  0.00    -0.004 C 
ATOM      6  C   UNL     1       0.564   0.623  -5.873  0.00  0.00    -0.010 C 
ATOM      7  C   UNL     1      -0.345   0.817  -7.089  0.00  0.00    -0.082 C 
ATOM      8  N   UNL     1      -1.565   1.525  -6.682  0.00  0.00    +0.379 N 
ATOM      9  C   UNL     1      -2.324   0.707  -5.728  0.00  0.00    -0.082 C 
ATOM     10  C   UNL     1      -1.498   0.509  -4.454  0.00  0.00    -0.010 C 
ATOM     11  C   UNL     1      -0.988  -3.537  -3.736  0.00  0.00    +0.256 C 
ATOM     12  O   UNL     1      -0.776  -4.076  -2.670  0.00  0.00    -0.272 OA
ATOM     13  H   UNL     1      -1.315   2.401  -6.249  0.00  0.00    -0.086 HD
ATOM     14  H   UNL     1      -2.135   1.705  -7.495  0.00  0.00    -0.086 HD
ENDROOT
BRANCH   1  16
ATOM     15  N   UNL     1       0.112   1.536  -2.040  0.00  0.00    -0.312 N 
ATOM     16  C   UNL     1      -0.016   0.230  -2.347  0.00  0.00    +0.218 C 
ATOM     17  O   UNL     1      -0.700  -0.492  -1.653  0.00  0.00    -0.275 OA
ATOM     18  H   UNL     1       0.715   2.098  -2.552  0.00  0.00    +0.149 HD
BRANCH  15  20
ATOM     19  C   UNL     1      -2.052   2.502  -1.434  0.00  0.00    +0.028 C 
ATOM     20  C   UNL     1      -0.661   2.107  -0.934  0.00  0.00    +0.074 C 
BRANCH  20  21
ATOM     21  C   UNL     1       0.059   3.346  -0.396  0.00  0.00    +0.060 C 
BRANCH  21  22
ATOM     22  C   UNL     1       1.368   2.935   0.227  0.00  0.00    -0.004 A 
ATOM     23  C   UNL     1       1.434   2.663   1.580  0.00  0.00    +0.007 A 
ATOM     24  C   UNL     1       2.635   2.286   2.152  0.00  0.00    +0.000 A 
ATOM     25  C   UNL     1       3.772   2.181   1.373  0.00  0.00    +0.004 A 
ATOM     26  C   UNL     1       3.711   2.452   0.020  0.00  0.00    +0.046 A 
ATOM     27  C   UNL     1       2.506   2.825  -0.558  0.00  0.00    +0.123 A 
BRANCH  27  28
ATOM     28  O   UNL     1       2.442   3.086  -1.890  0.00  0.00    -0.495 OA
ATOM     29  C   UNL     1       3.653   2.952  -2.637  0.00  0.00    +0.277 C 
ENDBRANCH  27  28
ENDBRANCH  21  22
ENDBRANCH  20  21
ENDBRANCH  15  20
ENDBRANCH   1  16
BRANCH  11  30
ATOM     30  C   UNL     1      -2.060  -4.072  -4.650  0.00  0.00    +0.256 C 
ATOM     31  C   UNL     1      -1.415  -4.629  -5.921  0.00  0.00    +0.062 C 
BRANCH  30  32
ATOM     32  O   UNL     1      -2.778  -5.112  -3.985  0.00  0.00    -0.480 OA
BRANCH  32  33
ATOM     33  C   UNL     1      -4.051  -5.346  -4.400  0.00  0.00    +0.122 A 
ATOM     34  C   UNL     1      -4.843  -6.267  -3.728  0.00  0.00    +0.045 A 
ATOM     35  C   UNL     1      -6.136  -6.503  -4.152  0.00  0.00    +0.004 A 
ATOM     36  C   UNL     1      -6.642  -5.823  -5.244  0.00  0.00    +0.000 A 
ATOM     37  C   UNL     1      -5.855  -4.906  -5.916  0.00  0.00    +0.004 A 
ATOM     38  C   UNL     1      -4.563  -4.662  -5.492  0.00  0.00    +0.045 A 
ENDBRANCH  32  33
ENDBRANCH  30  32
ENDBRANCH  11  30
TORSDOF 8
