REMARK  Name = ZINC38684609
REMARK  12 active torsions:
REMARK  status: ('A' for Active; 'I' for Inactive)
REMARK    1  A    between atoms: C_1  and  C_2
REMARK    2  A    between atoms: C_2  and  O_3
REMARK    3  A    between atoms: O_3  and  C_4
REMARK    4  A    between atoms: C_9  and  C_10
REMARK    5  A    between atoms: C_10  and  O_12
REMARK    6  A    between atoms: O_12  and  C_13
REMARK    7  A    between atoms: C_20  and  N_36
REMARK    8  A    between atoms: C_21  and  C_34
REMARK    9  A    between atoms: C_22  and  C_24
REMARK   10  A    between atoms: C_28  and  O_30
REMARK   11  A    between atoms: O_30  and  C_31
REMARK   12  A    between atoms: C_31  and  C_32
REMARK                            x       y       z     vdW  Elec       q    Type
REMARK                         _______ _______ _______ _____ _____    ______ ____
ROOT
ATOM      1  C   UNL     1      -6.207  -1.148   0.022  0.00  0.00    +0.135 A 
ATOM      2  C   UNL     1      -5.906   0.205  -0.050  0.00  0.00    +0.047 A 
ATOM      3  C   UNL     1      -6.924   1.138  -0.069  0.00  0.00    +0.012 A 
ATOM      4  C   UNL     1      -8.245   0.730  -0.016  0.00  0.00    +0.008 A 
ATOM      5  C   UNL     1      -8.551  -0.621   0.057  0.00  0.00    +0.138 A 
ATOM      6  C   UNL     1      -7.528  -1.560   0.070  0.00  0.00    +0.093 A 
ATOM      7  O   UNL     1      -9.839  -1.040   0.109  0.00  0.00    -0.441 OA
ATOM      8  C   UNL     1     -10.808  -0.184   0.475  0.00  0.00    +0.199 C 
ATOM      9  C   UNL     1     -10.634   1.158   0.428  0.00  0.00    +0.098 C 
ATOM     10  C   UNL     1      -9.340   1.762  -0.038  0.00  0.00    +0.098 C 
ENDROOT
BRANCH  10  11
ATOM     11  C   UNL     1      -9.510   2.280  -1.444  0.00  0.00    -0.031 A 
ATOM     12  C   UNL     1      -9.853   1.411  -2.463  0.00  0.00    +0.005 A 
ATOM     13  C   UNL     1     -10.009   1.882  -3.753  0.00  0.00    +0.004 A 
ATOM     14  C   UNL     1      -9.823   3.224  -4.027  0.00  0.00    +0.045 A 
ATOM     15  C   UNL     1      -9.479   4.097  -3.006  0.00  0.00    +0.121 A 
ATOM     16  C   UNL     1      -9.329   3.623  -1.711  0.00  0.00    +0.050 A 
BRANCH  15  17
ATOM     17  O   UNL     1      -9.295   5.417  -3.273  0.00  0.00    -0.488 OA
BRANCH  17  18
ATOM     18  C   UNL     1      -9.472   5.836  -4.628  0.00  0.00    +0.256 C 
BRANCH  18  19
ATOM     19  C   UNL     1      -9.229   7.320  -4.731  0.00  0.00    +0.006 C 
ATOM     20  C   UNL     1      -8.497   7.797  -5.707  0.00  0.00    +0.007 C 
ENDBRANCH  18  19
ENDBRANCH  17  18
ENDBRANCH  15  17
ENDBRANCH  10  11
BRANCH   8  21
ATOM     21  N   UNL     1     -12.010  -0.686   0.910  0.00  0.00    -0.328 N 
ATOM     22  H   UNL     1     -12.150  -1.645   0.949  0.00  0.00    +0.145 HD
ATOM     23  H   UNL     1     -12.719  -0.081   1.177  0.00  0.00    +0.145 HD
ENDBRANCH   8  21
BRANCH   9  24
ATOM     24  C   UNL     1     -11.706   2.018   0.833  0.00  0.00    +0.101 C 
ATOM     25  N   UNL     1     -12.555   2.701   1.153  0.00  0.00    -0.191 NA
ENDBRANCH   9  24
BRANCH   1  26
ATOM     26  O   UNL     1      -5.206  -2.068   0.041  0.00  0.00    -0.422 OA
BRANCH  26  27
ATOM     27  C   UNL     1      -4.947  -2.745  -1.095  0.00  0.00    +0.348 C 
ATOM     28  O   UNL     1      -5.657  -2.591  -2.069  0.00  0.00    -0.244 OA
BRANCH  27  34
ATOM     29  C   UNL     1      -3.531  -4.379  -2.336  0.00  0.00    +0.134 A 
ATOM     30  C   UNL     1      -2.449  -5.245  -2.384  0.00  0.00    +0.046 A 
ATOM     31  C   UNL     1      -1.647  -5.413  -1.272  0.00  0.00    +0.004 A 
ATOM     32  C   UNL     1      -1.917  -4.721  -0.102  0.00  0.00    +0.001 A 
ATOM     33  C   UNL     1      -2.987  -3.857  -0.036  0.00  0.00    +0.018 A 
ATOM     34  C   UNL     1      -3.804  -3.673  -1.156  0.00  0.00    +0.101 A 
BRANCH  29  35
ATOM     35  O   UNL     1      -4.319  -4.213  -3.427  0.00  0.00    -0.491 OA
BRANCH  35  37
ATOM     36  C   UNL     1      -4.974  -4.649  -5.712  0.00  0.00    +0.048 C 
ATOM     37  C   UNL     1      -3.980  -4.966  -4.593  0.00  0.00    +0.226 C 
ENDBRANCH  35  37
ENDBRANCH  29  35
ENDBRANCH  27  34
ENDBRANCH  26  27
ENDBRANCH   1  26
TORSDOF 11
