REMARK  Name = ZINC38597749
REMARK  6 active torsions:
REMARK  status: ('A' for Active; 'I' for Inactive)
REMARK    1  A    between atoms: C_5  and  C_7
REMARK    2  A    between atoms: N_9  and  C_10
REMARK    3  A    between atoms: C_10  and  C_11
REMARK    4  A    between atoms: C_11  and  C_13
REMARK    5  A    between atoms: C_11  and  N_18
REMARK    6  A    between atoms: N_21  and  C_24
REMARK                            x       y       z     vdW  Elec       q    Type
REMARK                         _______ _______ _______ _____ _____    ______ ____
ROOT
ATOM      1  C   UNL     1      -1.115  -4.852  -0.157  0.00  0.00    +0.017 C 
ENDROOT
BRANCH   1   2
ATOM      2  N   UNL     1      -2.105  -4.458   0.855  0.00  0.00    +0.389 N 
ATOM      3  C   UNL     1      -1.699  -4.984   2.164  0.00  0.00    -0.059 C 
ATOM      4  C   UNL     1      -2.667  -4.478   3.239  0.00  0.00    +0.086 C 
ATOM      5  N   UNL     1      -4.036  -4.837   2.839  0.00  0.00    -0.333 N 
ATOM      6  C   UNL     1      -4.474  -4.491   1.478  0.00  0.00    +0.086 C 
ATOM      7  C   UNL     1      -3.420  -4.996   0.486  0.00  0.00    -0.059 C 
ATOM      8  H   UNL     1      -2.155  -3.451   0.900  0.00  0.00    -0.081 HD
BRANCH   5   9
ATOM      9  C   UNL     1      -4.898  -5.487   3.728  0.00  0.00    +0.030 A 
ATOM     10  C   UNL     1      -4.510  -5.696   5.045  0.00  0.00    +0.026 A 
ATOM     11  C   UNL     1      -5.363  -6.338   5.921  0.00  0.00    +0.040 A 
ATOM     12  C   UNL     1      -6.604  -6.774   5.487  0.00  0.00    +0.124 A 
ATOM     13  C   UNL     1      -6.992  -6.567   4.174  0.00  0.00    +0.040 A 
ATOM     14  C   UNL     1      -6.145  -5.920   3.296  0.00  0.00    +0.026 A 
ATOM     15  F   UNL     1      -7.436  -7.402   6.346  0.00  0.00    -0.205 F 
ENDBRANCH   5   9
ENDBRANCH   1   2
BRANCH   1  16
ATOM     16  C   UNL     1      -1.109  -6.353  -0.296  0.00  0.00    +0.093 A 
ATOM     17  C   UNL     1      -1.176  -7.036  -1.452  0.00  0.00    +0.043 A 
ATOM     18  C   UNL     1      -1.141  -8.410  -1.119  0.00  0.00    +0.041 A 
ATOM     19  C   UNL     1      -1.053  -8.483   0.221  0.00  0.00    +0.195 A 
ATOM     20  O   UNL     1      -1.029  -7.234   0.714  0.00  0.00    -0.469 OA
ENDBRANCH   1  16
BRANCH   1  21
ATOM     21  C   UNL     1       0.273  -4.373   0.273  0.00  0.00    +0.097 C 
BRANCH  21  24
ATOM     22  C   UNL     1       1.333  -2.293   0.969  0.00  0.00    +0.245 C 
ATOM     23  O   UNL     1       2.335  -2.928   1.238  0.00  0.00    -0.270 OA
ATOM     24  N   UNL     1       0.247  -2.924   0.481  0.00  0.00    -0.312 N 
ATOM     25  H   UNL     1      -0.552  -2.417   0.266  0.00  0.00    +0.149 HD
BRANCH  22  30
ATOM     26  C   UNL     1       0.141   1.267   1.067  0.00  0.00    +0.001 A 
ATOM     27  C   UNL     1       1.259   1.911   1.569  0.00  0.00    +0.001 A 
ATOM     28  C   UNL     1       2.400   1.193   1.877  0.00  0.00    +0.015 A 
ATOM     29  C   UNL     1       2.431  -0.174   1.685  0.00  0.00    +0.025 A 
ATOM     30  C   UNL     1       1.307  -0.830   1.179  0.00  0.00    +0.050 A 
ATOM     31  C   UNL     1       0.159  -0.098   0.871  0.00  0.00    +0.014 A 
ATOM     32  I   UNL     1       4.161  -1.260   2.150  0.00  0.00    -0.043 I 
ENDBRANCH  22  30
ENDBRANCH  21  24
ENDBRANCH   1  21
TORSDOF 6
