REMARK  Name = ZINC09578727
REMARK  9 active torsions:
REMARK  status: ('A' for Active; 'I' for Inactive)
REMARK    1  A    between atoms: C_5  and  C_7
REMARK    2  A    between atoms: C_7  and  N_8
REMARK    3  A    between atoms: C_9  and  C_11
REMARK    4  A    between atoms: C_11  and  S_12
REMARK    5  A    between atoms: S_12  and  C_13
REMARK    6  A    between atoms: C_19  and  C_22
REMARK    7  A    between atoms: C_22  and  C_23
REMARK    8  A    between atoms: C_23  and  N_24
REMARK    9  A    between atoms: C_25  and  C_27
REMARK                            x       y       z     vdW  Elec       q    Type
REMARK                         _______ _______ _______ _____ _____    ______ ____
ROOT
ATOM      1  C   UNL     1      -0.017   1.405   0.010  0.00  0.00    +0.118 A 
ATOM      2  C   UNL     1       0.002  -0.004   0.002  0.00  0.00    +0.040 A 
ATOM      3  C   UNL     1       1.187  -0.669  -0.012  0.00  0.00    +0.053 A 
ATOM      4  C   UNL     1       2.387   0.067  -0.020  0.00  0.00    +0.178 A 
ATOM      5  N   UNL     1       3.667  -0.269  -0.034  0.00  0.00    -0.128 NA
ATOM      6  N   UNL     1       4.386   0.800  -0.035  0.00  0.00    -0.132 NA
ATOM      7  C   UNL     1       3.618   1.861  -0.022  0.00  0.00    +0.157 A 
ATOM      8  N   UNL     1       2.335   1.439  -0.013  0.00  0.00    -0.196 N 
ATOM      9  N   UNL     1       1.102   2.093   0.003  0.00  0.00    -0.157 NA
ENDROOT
BRANCH   1  10
ATOM     10  S   UNL     1      -1.561   2.254   0.022  0.00  0.00    -0.095 S 
BRANCH  10  11
ATOM     11  C   UNL     1      -1.097   4.008   0.029  0.00  0.00    +0.171 C 
BRANCH  11  13
ATOM     12  N   UNL     1      -2.241   6.201   0.046  0.00  0.00    -0.310 N 
ATOM     13  C   UNL     1      -2.342   4.857   0.040  0.00  0.00    +0.224 C 
ATOM     14  O   UNL     1      -3.435   4.331   0.042  0.00  0.00    -0.275 OA
ATOM     15  H   UNL     1      -1.367   6.622   0.044  0.00  0.00    +0.149 HD
BRANCH  12  16
ATOM     16  C   UNL     1      -3.451   7.026   0.057  0.00  0.00    +0.141 C 
BRANCH  16  21
ATOM     17  C   UNL     1      -2.732  10.535   1.251  0.00  0.00    +0.000 A 
ATOM     18  C   UNL     1      -2.360  11.157   0.074  0.00  0.00    +0.001 A 
ATOM     19  C   UNL     1      -2.340  10.443  -1.109  0.00  0.00    +0.020 A 
ATOM     20  C   UNL     1      -2.694   9.105  -1.115  0.00  0.00    +0.046 A 
ATOM     21  C   UNL     1      -3.066   8.483   0.063  0.00  0.00    -0.012 A 
ATOM     22  C   UNL     1      -3.090   9.200   1.244  0.00  0.00    +0.006 A 
ATOM     23 CL   UNL     1      -2.670   8.208  -2.601  0.00  0.00    -0.083 Cl
ENDBRANCH  16  21
ENDBRANCH  12  16
ENDBRANCH  11  13
ENDBRANCH  10  11
ENDBRANCH   1  10
BRANCH   7  24
ATOM     24  C   UNL     1       4.082   3.295  -0.019  0.00  0.00    +0.097 C 
BRANCH  24  25
ATOM     25  C   UNL     1       4.225   3.788  -1.461  0.00  0.00    +0.112 C 
BRANCH  25  26
ATOM     26  N   UNL     1       4.676   5.181  -1.458  0.00  0.00    -0.311 N 
ATOM     27  C   UNL     1       4.872   5.828  -2.624  0.00  0.00    +0.244 C 
ATOM     28  O   UNL     1       4.675   5.256  -3.678  0.00  0.00    -0.270 OA
ATOM     29  H   UNL     1       4.833   5.638  -0.617  0.00  0.00    +0.149 HD
BRANCH  27  30
ATOM     30  C   UNL     1       5.327   7.234  -2.621  0.00  0.00    +0.037 A 
ATOM     31  C   UNL     1       5.549   7.896  -1.412  0.00  0.00    +0.016 A 
ATOM     32  C   UNL     1       5.979   9.206  -1.415  0.00  0.00    +0.039 A 
ATOM     33  C   UNL     1       6.180   9.869  -2.616  0.00  0.00    +0.123 A 
ATOM     34  C   UNL     1       5.955   9.218  -3.819  0.00  0.00    +0.039 A 
ATOM     35  C   UNL     1       5.531   7.907  -3.828  0.00  0.00    +0.016 A 
ATOM     36  F   UNL     1       6.596  11.154  -2.613  0.00  0.00    -0.205 F 
ENDBRANCH  27  30
ENDBRANCH  25  26
ENDBRANCH  24  25
ENDBRANCH   7  24
TORSDOF 9
