REMARK  Name = ZINC20438670
REMARK  12 active torsions:
REMARK  status: ('A' for Active; 'I' for Inactive)
REMARK    1  A    between atoms: C_1  and  N_2
REMARK    2  A    between atoms: N_2  and  C_3
REMARK    3  A    between atoms: N_2  and  S_4
REMARK    4  A    between atoms: S_4  and  N_7
REMARK    5  A    between atoms: C_9  and  C_16
REMARK    6  A    between atoms: C_17  and  C_18
REMARK    7  A    between atoms: C_17  and  N_27
REMARK    8  A    between atoms: N_20  and  C_21
REMARK    9  A    between atoms: C_21  and  C_22
REMARK   10  A    between atoms: C_28  and  C_30
REMARK   11  A    between atoms: C_35  and  O_36
REMARK   12  A    between atoms: O_36  and  C_37
REMARK                            x       y       z     vdW  Elec       q    Type
REMARK                         _______ _______ _______ _____ _____    ______ ____
ROOT
ATOM      1  C   UNL     1       0.032  -0.074   0.782  0.00  0.00    +0.038 C 
ATOM      2  C   UNL     1       1.274  -0.613   0.679  0.00  0.00    +0.097 C 
ENDROOT
BRANCH   1   5
ATOM      3  N   UNL     1       0.315   3.489   1.514  0.00  0.00    -0.208 N 
ATOM      4  C   UNL     1       0.838   2.238   1.423  0.00  0.00    +0.122 A 
ATOM      5  C   UNL     1      -0.125   1.365   1.005  0.00  0.00    +0.004 A 
ATOM      6  C   UNL     1      -1.354   2.158   0.817  0.00  0.00    +0.009 A 
ATOM      7  C   UNL     1      -1.018   3.479   1.156  0.00  0.00    +0.074 A 
ATOM      8  C   UNL     1      -1.989   4.471   1.080  0.00  0.00    +0.028 A 
ATOM      9  C   UNL     1      -3.269   4.152   0.680  0.00  0.00    +0.002 A 
ATOM     10  C   UNL     1      -3.601   2.846   0.351  0.00  0.00    +0.001 A 
ATOM     11  C   UNL     1      -2.653   1.849   0.419  0.00  0.00    +0.010 A 
BRANCH   3  12
ATOM     12  S   UNL     1       1.157   4.834   1.985  0.00  0.00    +0.123 S 
ATOM     13  O   UNL     1       2.487   4.409   2.250  0.00  0.00    -0.136 OA
ATOM     14  O   UNL     1       0.857   5.853   1.042  0.00  0.00    -0.136 OA
BRANCH  12  16
ATOM     15  C   UNL     1       1.109   4.856   4.689  0.00  0.00    +0.133 C 
ATOM     16  N   UNL     1       0.521   5.327   3.433  0.00  0.00    -0.168 NA
ATOM     17  C   UNL     1      -0.629   6.234   3.457  0.00  0.00    +0.133 C 
ENDBRANCH  12  16
ENDBRANCH   3  12
ENDBRANCH   1   5
BRANCH   2  18
ATOM     18  C   UNL     1       1.437  -2.065   0.591  0.00  0.00    +0.259 C 
ATOM     19  O   UNL     1       0.458  -2.789   0.610  0.00  0.00    -0.269 OA
ATOM     20  N   UNL     1       2.670  -2.600   0.489  0.00  0.00    -0.303 N 
ATOM     21  H   UNL     1       3.554  -1.946   0.472  0.00  0.00    +0.149 HD
BRANCH  20  22
ATOM     22  C   UNL     1       2.832  -4.053   0.401  0.00  0.00    +0.179 C 
BRANCH  22  23
ATOM     23  C   UNL     1       4.298  -4.389   0.296  0.00  0.00    +0.122 A 
ATOM     24  C   UNL     1       5.127  -4.623   1.329  0.00  0.00    +0.046 A 
ATOM     25  C   UNL     1       6.400  -4.897   0.778  0.00  0.00    +0.041 A 
ATOM     26  C   UNL     1       6.273  -4.813  -0.558  0.00  0.00    +0.195 A 
ATOM     27  O   UNL     1       4.996  -4.511  -0.845  0.00  0.00    -0.466 OA
ENDBRANCH  22  23
ENDBRANCH  20  22
ENDBRANCH   2  18
BRANCH   2  28
ATOM     28  N   UNL     1       2.401   0.222   0.657  0.00  0.00    -0.277 N 
ATOM     29  C   UNL     1       3.370   0.070   1.582  0.00  0.00    +0.252 C 
ATOM     30  O   UNL     1       3.227  -0.729   2.488  0.00  0.00    -0.270 OA
ATOM     31  H   UNL     1       2.494   1.000  -0.114  0.00  0.00    +0.155 HD
BRANCH  29  32
ATOM     32  C   UNL     1       4.604   0.873   1.496  0.00  0.00    +0.079 A 
ATOM     33  C   UNL     1       4.727   1.870   0.525  0.00  0.00    +0.017 A 
ATOM     34  C   UNL     1       5.881   2.620   0.453  0.00  0.00    +0.001 A 
ATOM     35  C   UNL     1       6.925   2.383   1.332  0.00  0.00    +0.004 A 
ATOM     36  C   UNL     1       6.819   1.398   2.293  0.00  0.00    +0.046 A 
ATOM     37  C   UNL     1       5.663   0.637   2.383  0.00  0.00    +0.132 A 
BRANCH  37  38
ATOM     38  O   UNL     1       5.557  -0.333   3.327  0.00  0.00    -0.494 OA
ATOM     39  C   UNL     1       6.629  -0.443   4.266  0.00  0.00    +0.277 C 
ENDBRANCH  37  38
ENDBRANCH  29  32
ENDBRANCH   2  28
TORSDOF 9
