REMARK  Name = ZINC04959518
REMARK  5 active torsions:
REMARK  status: ('A' for Active; 'I' for Inactive)
REMARK    1  A    between atoms: C_1  and  C_2
REMARK    2  A    between atoms: C_15  and  C_18
REMARK    3  A    between atoms: C_21  and  O_27
REMARK    4  A    between atoms: C_22  and  N_24
REMARK    5  A    between atoms: O_27  and  C_28
REMARK                            x       y       z     vdW  Elec       q    Type
REMARK                         _______ _______ _______ _____ _____    ______ ____
ROOT
ATOM      1  C   UNL     1       0.506   6.727  -0.434  0.00  0.00    +0.044 C 
ATOM      2  C   UNL     1       1.060   5.453  -1.017  0.00  0.00    -0.050 A 
ATOM      3  C   UNL     1       1.640   5.466  -2.273  0.00  0.00    +0.005 A 
ATOM      4  C   UNL     1       2.146   4.297  -2.804  0.00  0.00    +0.023 A 
ATOM      5  C   UNL     1       2.072   3.114  -2.079  0.00  0.00    +0.031 A 
ATOM      6  C   UNL     1       1.492   3.096  -0.820  0.00  0.00    -0.019 A 
ATOM      7  C   UNL     1       0.987   4.278  -0.296  0.00  0.00    +0.009 A 
ATOM      8  C   UNL     1       1.394   1.849  -0.001  0.00  0.00    +0.049 C 
ATOM      9  C   UNL     1      -0.016   1.306   0.009  0.00  0.00    -0.023 C 
ATOM     10  C   UNL     1       0.002  -0.004   0.002  0.00  0.00    -0.030 C 
ATOM     11  C   UNL     1       1.429  -0.516  -0.009  0.00  0.00    +0.033 C 
ATOM     12  C   UNL     1       2.241   0.691  -0.564  0.00  0.00    +0.029 C 
ATOM     13  C   UNL     1       2.127   0.654  -2.091  0.00  0.00    +0.105 C 
ATOM     14  N   UNL     1       2.587   1.937  -2.633  0.00  0.00    -0.336 N 
ATOM     15  H   UNL     1       3.231   1.968  -3.357  0.00  0.00    +0.147 HD
ENDROOT
BRANCH  13  16
ATOM     16  C   UNL     1       2.985  -0.460  -2.634  0.00  0.00    -0.025 A 
ATOM     17  C   UNL     1       4.348  -0.275  -2.776  0.00  0.00    +0.009 A 
ATOM     18  C   UNL     1       5.136  -1.294  -3.273  0.00  0.00    +0.048 A 
ATOM     19  C   UNL     1       4.559  -2.504  -3.631  0.00  0.00    +0.150 A 
ATOM     20  C   UNL     1       3.192  -2.688  -3.488  0.00  0.00    +0.168 A 
ATOM     21  C   UNL     1       2.409  -1.667  -2.984  0.00  0.00    +0.042 A 
BRANCH  20  22
ATOM     22  N   UNL     1       2.574  -3.977  -3.868  0.00  0.00    +0.060 N 
ATOM     23  O   UNL     1       1.373  -4.137  -3.742  0.00  0.00    -0.126 OA
ATOM     24  O   UNL     1       3.265  -4.878  -4.307  0.00  0.00    -0.126 OA
ENDBRANCH  20  22
BRANCH  19  25
ATOM     25  O   UNL     1       5.333  -3.509  -4.121  0.00  0.00    -0.493 OA
ATOM     26  C   UNL     1       6.733  -3.249  -4.242  0.00  0.00    +0.277 C 
ENDBRANCH  19  25
ENDBRANCH  13  16
TORSDOF 3
