REMARK  Name = ZINC32809430
REMARK  7 active torsions:
REMARK  status: ('A' for Active; 'I' for Inactive)
REMARK    1  A    between atoms: C_1  and  C_2
REMARK    2  A    between atoms: C_6  and  C_9
REMARK    3  A    between atoms: C_7  and  C_8
REMARK    4  A    between atoms: N_14  and  S_17
REMARK    5  A    between atoms: S_17  and  N_20
REMARK    6  A    between atoms: N_20  and  C_21
REMARK    7  A    between atoms: N_20  and  C_22
REMARK                            x       y       z     vdW  Elec       q    Type
REMARK                         _______ _______ _______ _____ _____    ______ ____
ROOT
ATOM      1  C   UNL     1       1.244  -3.792  -0.032  0.00  0.00    +0.247 C 
ATOM      2  O   UNL     1       1.185  -4.394   1.023  0.00  0.00    -0.270 OA
ATOM      3  N   UNL     1       1.414  -2.455  -0.036  0.00  0.00    -0.295 N 
ATOM      4  C   UNL     1       1.442  -1.700   1.225  0.00  0.00    +0.125 C 
ATOM      5  C   UNL     1       0.380  -0.596   1.159  0.00  0.00    +0.129 C 
ATOM      6  N   UNL     1       0.539   0.134  -0.107  0.00  0.00    -0.163 NA
ATOM      7  C   UNL     1       0.505  -0.620  -1.368  0.00  0.00    +0.129 C 
ATOM      8  C   UNL     1       1.573  -1.725  -1.302  0.00  0.00    +0.125 C 
ENDROOT
BRANCH   1  14
ATOM      9  C   UNL     1      -1.280  -6.888  -3.022  0.00  0.00    +0.044 C 
ATOM     10  C   UNL     1      -0.081  -6.017  -2.752  0.00  0.00    -0.047 A 
ATOM     11  C   UNL     1       0.918  -5.904  -3.703  0.00  0.00    +0.003 A 
ATOM     12  C   UNL     1       2.023  -5.106  -3.463  0.00  0.00    +0.001 A 
ATOM     13  C   UNL     1       2.135  -4.418  -2.272  0.00  0.00    +0.013 A 
ATOM     14  C   UNL     1       1.131  -4.527  -1.310  0.00  0.00    +0.040 A 
ATOM     15  C   UNL     1       0.021  -5.338  -1.556  0.00  0.00    -0.035 A 
ATOM     16  C   UNL     1      -1.065  -5.467  -0.519  0.00  0.00    +0.045 C 
ENDBRANCH   1  14
BRANCH   6  17
ATOM     17  S   UNL     1       0.747   1.777  -0.113  0.00  0.00    +0.100 S 
ATOM     18  O   UNL     1       0.316   2.236  -1.387  0.00  0.00    -0.141 OA
ATOM     19  O   UNL     1       0.187   2.261   1.101  0.00  0.00    -0.141 OA
BRANCH  17  20
ATOM     20  N   UNL     1       2.375   2.065  -0.031  0.00  0.00    -0.166 NA
ATOM     21  C   UNL     1       3.030   2.205   1.273  0.00  0.00    +0.133 C 
BRANCH  20  22
ATOM     22  C   UNL     1       3.162   2.180  -1.261  0.00  0.00    +0.081 C 
ATOM     23  C   UNL     1       4.247   1.103  -1.275  0.00  0.00    +0.020 C 
ATOM     24  C   UNL     1       5.069   1.223  -2.561  0.00  0.00    +0.002 C 
ATOM     25  C   UNL     1       5.721   2.605  -2.622  0.00  0.00    +0.000 C 
ATOM     26  C   UNL     1       4.635   3.683  -2.607  0.00  0.00    +0.002 C 
ATOM     27  C   UNL     1       3.814   3.563  -1.322  0.00  0.00    +0.020 C 
ENDBRANCH  20  22
ENDBRANCH  17  20
ENDBRANCH   6  17
TORSDOF 4
