REMARK  Name = ZINC39455673
REMARK  9 active torsions:
REMARK  status: ('A' for Active; 'I' for Inactive)
REMARK    1  A    between atoms: C_1  and  C_2
REMARK    2  A    between atoms: C_4  and  C_8
REMARK    3  A    between atoms: C_8  and  N_9
REMARK    4  A    between atoms: N_9  and  C_10
REMARK    5  A    between atoms: C_11  and  C_13
REMARK    6  A    between atoms: C_13  and  C_14
REMARK    7  A    between atoms: N_21  and  C_22
REMARK    8  A    between atoms: C_22  and  C_23
REMARK    9  A    between atoms: C_26  and  C_29
REMARK                            x       y       z     vdW  Elec       q    Type
REMARK                         _______ _______ _______ _____ _____    ______ ____
ROOT
ATOM      1  C   UNL     1      -1.056  -7.532  -0.067  0.00  0.00    +0.028 C 
ATOM      2  C   UNL     1      -0.574  -8.947   0.082  0.00  0.00    +0.200 C 
ATOM      3  O   UNL     1      -0.095  -9.291   1.142  0.00  0.00    -0.278 OA
ATOM      4  N   UNL     1      -0.651  -9.845  -0.908  0.00  0.00    -0.318 N 
ATOM      5  C   UNL     1      -1.186  -9.517  -2.227  0.00  0.00    +0.085 C 
ATOM      6  C   UNL     1      -2.000  -8.224  -2.152  0.00  0.00    -0.058 C 
ATOM      7  N   UNL     1      -1.188  -7.193  -1.489  0.00  0.00    +0.391 N 
ATOM      8  H   UNL     1      -0.340 -10.748  -0.743  0.00  0.00    +0.149 HD
ATOM      9  H   UNL     1      -0.273  -7.157  -1.914  0.00  0.00    -0.080 HD
ENDROOT
BRANCH   1  10
ATOM     10  C   UNL     1      -0.051  -6.583   0.590  0.00  0.00    +0.090 C 
BRANCH  10  13
ATOM     11  N   UNL     1       2.315  -5.934   0.277  0.00  0.00    -0.302 N 
ATOM     12  C   UNL     1       2.106  -4.875   1.268  0.00  0.00    +0.132 C 
ATOM     13  C   UNL     1       1.299  -6.754  -0.057  0.00  0.00    +0.214 C 
ATOM     14  O   UNL     1       1.472  -7.631  -0.877  0.00  0.00    -0.276 OA
BRANCH  11  15
ATOM     15  C   UNL     1       3.628  -6.100  -0.351  0.00  0.00    +0.140 C 
BRANCH  15  19
ATOM     16  C   UNL     1       8.156  -6.631   0.861  0.00  0.00    +0.067 C 
ATOM     17  C   UNL     1       6.653  -6.727   0.921  0.00  0.00    +0.058 C 
ATOM     18  C   UNL     1       5.882  -7.165  -0.076  0.00  0.00    +0.027 C 
ATOM     19  C   UNL     1       4.473  -7.066   0.481  0.00  0.00    +0.170 C 
ATOM     20  N   UNL     1       4.690  -6.537   1.838  0.00  0.00    -0.178 NA
ATOM     21  N   UNL     1       5.905  -6.388   1.994  0.00  0.00    -0.159 NA
ENDBRANCH  15  19
ENDBRANCH  11  15
ENDBRANCH  10  13
ENDBRANCH   1  10
BRANCH   7  22
ATOM     22  C   UNL     1      -1.848  -5.888  -1.625  0.00  0.00    -0.042 C 
BRANCH  22  23
ATOM     23  C   UNL     1      -1.848  -5.472  -3.073  0.00  0.00    -0.064 A 
ATOM     24  C   UNL     1      -0.791  -4.738  -3.579  0.00  0.00    +0.002 A 
ATOM     25  C   UNL     1      -0.786  -4.355  -4.905  0.00  0.00    +0.009 A 
ATOM     26  C   UNL     1      -1.848  -4.709  -5.734  0.00  0.00    -0.018 A 
ATOM     27  C   UNL     1      -2.910  -5.449  -5.219  0.00  0.00    +0.009 A 
ATOM     28  C   UNL     1      -2.902  -5.832  -3.893  0.00  0.00    +0.002 A 
BRANCH  26  29
ATOM     29  C   UNL     1      -1.848  -4.300  -7.161  0.00  0.00    -0.018 A 
ATOM     30  C   UNL     1      -0.784  -3.564  -7.677  0.00  0.00    +0.008 A 
ATOM     31  C   UNL     1      -0.789  -3.187  -9.005  0.00  0.00    +0.001 A 
ATOM     32  C   UNL     1      -1.849  -3.537  -9.822  0.00  0.00    +0.000 A 
ATOM     33  C   UNL     1      -2.909  -4.266  -9.314  0.00  0.00    +0.001 A 
ATOM     34  C   UNL     1      -2.911  -4.654  -7.990  0.00  0.00    +0.008 A 
ENDBRANCH  26  29
ENDBRANCH  22  23
ENDBRANCH   7  22
TORSDOF 7
