REMARK  Name = ZINC59790638
REMARK  11 active torsions:
REMARK  status: ('A' for Active; 'I' for Inactive)
REMARK    1  A    between atoms: C_1  and  C_2
REMARK    2  A    between atoms: C_2  and  O_3
REMARK    3  A    between atoms: O_3  and  C_4
REMARK    4  A    between atoms: C_4  and  C_6
REMARK    5  A    between atoms: C_10  and  N_11
REMARK    6  A    between atoms: C_12  and  C_14
REMARK    7  A    between atoms: C_14  and  S_15
REMARK    8  A    between atoms: S_15  and  C_16
REMARK    9  A    between atoms: C_19  and  C_22
REMARK   10  A    between atoms: N_20  and  N_21
REMARK   11  A    between atoms: C_25  and  N_28
REMARK                            x       y       z     vdW  Elec       q    Type
REMARK                         _______ _______ _______ _____ _____    ______ ____
ROOT
ATOM      1  C   UNL     1      -3.303  -2.664   4.950  0.00  0.00    +0.173 C 
ENDROOT
BRANCH   1   3
ATOM      2  N   UNL     1      -3.031  -2.522   2.496  0.00  0.00    -0.279 N 
ATOM      3  C   UNL     1      -3.805  -2.865   3.544  0.00  0.00    +0.228 C 
ATOM      4  O   UNL     1      -4.907  -3.336   3.355  0.00  0.00    -0.275 OA
ATOM      5  H   UNL     1      -2.150  -2.146   2.647  0.00  0.00    +0.155 HD
BRANCH   2  10
ATOM      6  C   UNL     1      -2.842  -2.416   0.016  0.00  0.00    +0.091 A 
ATOM      7  C   UNL     1      -3.552  -2.715  -1.227  0.00  0.00    -0.021 A 
ATOM      8  C   UNL     1      -4.777  -3.241  -1.047  0.00  0.00    -0.004 A 
ATOM      9  S   UNL     1      -4.970  -3.333   0.715  0.00  0.00    -0.077 S 
ATOM     10  C   UNL     1      -3.493  -2.707   1.202  0.00  0.00    +0.086 A 
ATOM     11  C   UNL     1      -5.463  -3.525  -2.356  0.00  0.00    +0.043 C 
ATOM     12  C   UNL     1      -4.669  -2.707  -3.399  0.00  0.00    +0.010 C 
ATOM     13  C   UNL     1      -3.285  -2.598  -2.726  0.00  0.00    +0.037 C 
BRANCH   6  14
ATOM     14  C   UNL     1      -1.497  -1.838   0.006  0.00  0.00    +0.342 C 
ATOM     15  O   UNL     1      -0.523  -2.566  -0.007  0.00  0.00    -0.245 OA
BRANCH  14  16
ATOM     16  O   UNL     1      -1.339  -0.499   0.012  0.00  0.00    -0.461 OA
BRANCH  16  18
ATOM     17  C   UNL     1      -0.019   1.526   0.010  0.00  0.00    +0.048 C 
ATOM     18  C   UNL     1       0.002  -0.004   0.002  0.00  0.00    +0.229 C 
ENDBRANCH  16  18
ENDBRANCH  14  16
ENDBRANCH   6  14
ENDBRANCH   2  10
ENDBRANCH   1   3
BRANCH   1  19
ATOM     19  S   UNL     1      -4.566  -3.218   6.129  0.00  0.00    -0.075 S 
BRANCH  19  20
ATOM     20  C   UNL     1      -3.837  -2.921   7.705  0.00  0.00    +0.209 A 
ATOM     21  N   UNL     1      -2.648  -2.407   7.930  0.00  0.00    -0.121 NA
ATOM     22  N   UNL     1      -2.434  -2.329   9.195  0.00  0.00    -0.127 NA
ATOM     23  C   UNL     1      -3.471  -2.789   9.855  0.00  0.00    +0.182 A 
ATOM     24  N   UNL     1      -4.404  -3.177   8.921  0.00  0.00    -0.224 N 
BRANCH  23  25
ATOM     25  C   UNL     1      -3.613  -2.869  11.324  0.00  0.00    +0.021 A 
ATOM     26  C   UNL     1      -4.615  -3.659  11.889  0.00  0.00    +0.014 A 
ATOM     27  C   UNL     1      -4.742  -3.730  13.261  0.00  0.00    +0.033 A 
ATOM     28  C   UNL     1      -3.879  -3.020  14.076  0.00  0.00    +0.126 A 
ATOM     29  C   UNL     1      -2.883  -2.235  13.523  0.00  0.00    +0.033 A 
ATOM     30  C   UNL     1      -2.742  -2.160  12.152  0.00  0.00    +0.014 A 
BRANCH  28  31
ATOM     31  N   UNL     1      -4.021  -3.100  15.548  0.00  0.00    +0.056 N 
ATOM     32  O   UNL     1      -4.890  -3.784  16.035  0.00  0.00    -0.126 OA
ATOM     33  O   UNL     1      -3.268  -2.480  16.263  0.00  0.00    -0.126 OA
ENDBRANCH  28  31
ENDBRANCH  23  25
BRANCH  24  34
ATOM     34  N   UNL     1      -5.639  -3.710   9.160  0.00  0.00    -0.295 N 
ATOM     35  H   UNL     1      -5.594  -4.716   9.215  0.00  0.00    +0.163 HD
ATOM     36  H   UNL     1      -6.045  -3.320   9.997  0.00  0.00    +0.163 HD
ENDBRANCH  24  34
ENDBRANCH  19  20
ENDBRANCH   1  19
TORSDOF 10
