REMARK  Name = ZINC09611433
REMARK  9 active torsions:
REMARK  status: ('A' for Active; 'I' for Inactive)
REMARK    1  A    between atoms: C_1  and  C_2
REMARK    2  A    between atoms: C_7  and  N_12
REMARK    3  A    between atoms: C_9  and  C_11
REMARK    4  A    between atoms: C_13  and  C_15
REMARK    5  A    between atoms: C_15  and  C_17
REMARK    6  A    between atoms: C_15  and  N_24
REMARK    7  A    between atoms: C_17  and  C_18
REMARK    8  A    between atoms: N_24  and  S_25
REMARK    9  A    between atoms: S_25  and  C_28
REMARK                            x       y       z     vdW  Elec       q    Type
REMARK                         _______ _______ _______ _____ _____    ______ ____
ROOT
ATOM      1  C   UNL     1      -1.151  -1.820  -2.492  0.00  0.00    +0.166 C 
ENDROOT
BRANCH   1   3
ATOM      2  N   UNL     1      -1.400  -3.189  -4.537  0.00  0.00    -0.311 N 
ATOM      3  C   UNL     1      -1.987  -2.442  -3.580  0.00  0.00    +0.232 C 
ATOM      4  O   UNL     1      -3.187  -2.271  -3.596  0.00  0.00    -0.274 OA
ATOM      5  H   UNL     1      -0.440  -3.327  -4.524  0.00  0.00    +0.149 HD
BRANCH   2  11
ATOM      6  C   UNL     1       0.579  -5.851  -7.269  0.00  0.00    +0.008 C 
ATOM      7  C   UNL     1      -0.138  -4.617  -6.718  0.00  0.00    -0.009 C 
ATOM      8  C   UNL     1      -0.346  -3.602  -7.845  0.00  0.00    +0.003 C 
ATOM      9  C   UNL     1      -1.062  -2.368  -7.293  0.00  0.00    +0.002 C 
ATOM     10  C   UNL     1      -2.420  -2.780  -6.721  0.00  0.00    +0.022 C 
ATOM     11  C   UNL     1      -2.213  -3.794  -5.595  0.00  0.00    +0.076 C 
ATOM     12  C   UNL     1      -1.496  -5.028  -6.146  0.00  0.00    +0.009 C 
ATOM     13  C   UNL     1      -1.288  -6.043  -5.020  0.00  0.00    +0.009 C 
ENDBRANCH   2  11
ENDBRANCH   1   3
BRANCH   1  14
ATOM     14  N   UNL     1      -2.016  -1.064  -1.584  0.00  0.00    -0.178 NA
ATOM     15  H   UNL     1      -2.249  -0.145  -1.789  0.00  0.00    +0.149 HD
BRANCH  14  16
ATOM     16  S   UNL     1      -2.596  -1.777  -0.207  0.00  0.00    +0.059 S 
ATOM     17  O   UNL     1      -3.167  -3.017  -0.601  0.00  0.00    -0.153 OA
ATOM     18  O   UNL     1      -3.340  -0.782   0.484  0.00  0.00    -0.153 OA
BRANCH  16  19
ATOM     19  C   UNL     1      -1.207  -2.162   0.806  0.00  0.00    +0.106 A 
ATOM     20  C   UNL     1      -0.691  -1.205   1.661  0.00  0.00    +0.030 A 
ATOM     21  C   UNL     1       0.399  -1.503   2.457  0.00  0.00    +0.025 A 
ATOM     22  C   UNL     1       0.975  -2.765   2.397  0.00  0.00    +0.037 A 
ATOM     23  C   UNL     1       0.454  -3.723   1.537  0.00  0.00    -0.024 A 
ATOM     24  C   UNL     1      -0.635  -3.419   0.744  0.00  0.00    +0.034 A 
ATOM     25  C   UNL     1       1.079  -5.092   1.473  0.00  0.00    +0.046 C 
ATOM     26  C   UNL     1       2.588  -4.976   1.694  0.00  0.00    +0.101 C 
ATOM     27  C   UNL     1       2.865  -4.123   2.903  0.00  0.00    +0.218 C 
ATOM     28  O   UNL     1       3.808  -4.386   3.619  0.00  0.00    -0.275 OA
ATOM     29  N   UNL     1       2.077  -3.073   3.200  0.00  0.00    -0.285 N 
ATOM     30  H   UNL     1       2.276  -2.526   3.976  0.00  0.00    +0.155 HD
ENDBRANCH  16  19
ENDBRANCH  14  16
ENDBRANCH   1  14
BRANCH   1  31
ATOM     31  C   UNL     1      -0.119  -0.878  -3.116  0.00  0.00    +0.065 C 
BRANCH  31  32
ATOM     32  C   UNL     1       0.790  -0.344  -2.039  0.00  0.00    -0.045 A 
ATOM     33  C   UNL     1       0.435   0.791  -1.335  0.00  0.00    +0.004 A 
ATOM     34  C   UNL     1       1.267   1.279  -0.345  0.00  0.00    +0.000 A 
ATOM     35  C   UNL     1       2.458   0.636  -0.064  0.00  0.00    +0.000 A 
ATOM     36  C   UNL     1       2.815  -0.497  -0.771  0.00  0.00    +0.000 A 
ATOM     37  C   UNL     1       1.982  -0.987  -1.759  0.00  0.00    +0.004 A 
ENDBRANCH  31  32
ENDBRANCH   1  31
TORSDOF 7
