REMARK  Name = ZINC41006593
REMARK  12 active torsions:
REMARK  status: ('A' for Active; 'I' for Inactive)
REMARK    1  A    between atoms: C_1  and  C_2
REMARK    2  A    between atoms: C_7  and  N_8
REMARK    3  A    between atoms: C_9  and  C_11
REMARK    4  A    between atoms: C_13  and  C_33
REMARK    5  A    between atoms: C_15  and  C_23
REMARK    6  A    between atoms: C_17  and  C_21
REMARK    7  A    between atoms: C_17  and  O_22
REMARK    8  A    between atoms: N_25  and  C_26
REMARK    9  A    between atoms: C_31  and  C_32
REMARK   10  A    between atoms: C_36  and  C_39
REMARK   11  A    between atoms: C_39  and  O_41
REMARK   12  A    between atoms: O_41  and  C_42
REMARK                            x       y       z     vdW  Elec       q    Type
REMARK                         _______ _______ _______ _____ _____    ______ ____
ROOT
ATOM      1  C   UNL     1       0.442   0.810   5.404  0.00  0.00    +0.149 C 
ATOM      2  C   UNL     1       0.130  -0.448   6.221  0.00  0.00    +0.053 C 
ATOM      3  C   UNL     1       0.073  -0.087   7.707  0.00  0.00    +0.115 C 
ATOM      4  C   UNL     1       1.445   0.403   8.174  0.00  0.00    +0.082 C 
ATOM      5  C   UNL     1       1.806   1.692   7.430  0.00  0.00    +0.110 C 
ATOM      6  C   UNL     1       1.709   1.437   5.942  0.00  0.00    +0.148 C 
ATOM      7  O   UNL     1       2.622   1.721   5.203  0.00  0.00    -0.296 OA
ATOM      8  C   UNL     1       1.403   0.676   9.679  0.00  0.00    +0.042 C 
ENDROOT
BRANCH   2   9
ATOM      9  C   UNL     1      -1.199  -1.011   5.789  0.00  0.00    -0.042 A 
ATOM     10  C   UNL     1      -2.304  -0.183   5.708  0.00  0.00    +0.005 A 
ATOM     11  C   UNL     1      -3.524  -0.692   5.313  0.00  0.00    +0.015 A 
ATOM     12  C   UNL     1      -3.642  -2.047   4.995  0.00  0.00    +0.059 A 
ATOM     13  C   UNL     1      -2.522  -2.877   5.080  0.00  0.00    +0.015 A 
ATOM     14  C   UNL     1      -1.307  -2.353   5.471  0.00  0.00    +0.005 A 
BRANCH  12  15
ATOM     15  C   UNL     1      -4.945  -2.599   4.573  0.00  0.00    +0.339 C 
ATOM     16  O   UNL     1      -5.917  -1.875   4.500  0.00  0.00    -0.245 OA
BRANCH  15  17
ATOM     17  O   UNL     1      -5.055  -3.907   4.267  0.00  0.00    -0.464 OA
ATOM     18  C   UNL     1      -6.345  -4.373   3.866  0.00  0.00    +0.280 C 
ENDBRANCH  15  17
ENDBRANCH  12  15
ENDBRANCH   2   9
BRANCH   1  20
ATOM     19  N   UNL     1       0.929   1.391   3.049  0.00  0.00    -0.285 N 
ATOM     20  C   UNL     1       0.636   0.438   3.956  0.00  0.00    +0.228 C 
ATOM     21  O   UNL     1       0.529  -0.719   3.608  0.00  0.00    -0.275 OA
ATOM     22  H   UNL     1       1.083   2.304   3.337  0.00  0.00    +0.155 HD
BRANCH  19  29
ATOM     23  C   UNL     1       0.100   3.334   1.142  0.00  0.00    +0.045 C 
ATOM     24  C   UNL     1       0.618   1.980   0.728  0.00  0.00    -0.029 A 
ATOM     25  C   UNL     1       0.706   1.655  -0.612  0.00  0.00    +0.005 A 
ATOM     26  C   UNL     1       1.181   0.414  -0.993  0.00  0.00    +0.000 A 
ATOM     27  C   UNL     1       1.569  -0.506  -0.036  0.00  0.00    +0.002 A 
ATOM     28  C   UNL     1       1.484  -0.186   1.305  0.00  0.00    +0.023 A 
ATOM     29  C   UNL     1       1.012   1.062   1.691  0.00  0.00    +0.036 A 
ENDBRANCH  19  29
ENDBRANCH   1  20
BRANCH   3  30
ATOM     30  C   UNL     1      -0.945   1.004   7.919  0.00  0.00    +0.224 C 
ATOM     31  O   UNL     1      -0.788   2.089   7.401  0.00  0.00    -0.275 OA
ATOM     32  N   UNL     1      -2.031   0.772   8.683  0.00  0.00    -0.285 N 
ATOM     33  H   UNL     1      -2.123  -0.072   9.152  0.00  0.00    +0.155 HD
BRANCH  32  34
ATOM     34  C   UNL     1      -3.025   1.750   8.800  0.00  0.00    +0.036 A 
ATOM     35  C   UNL     1      -3.114   2.768   7.860  0.00  0.00    +0.023 A 
ATOM     36  C   UNL     1      -4.096   3.732   7.979  0.00  0.00    +0.002 A 
ATOM     37  C   UNL     1      -4.990   3.683   9.033  0.00  0.00    +0.000 A 
ATOM     38  C   UNL     1      -4.904   2.671   9.971  0.00  0.00    +0.005 A 
ATOM     39  C   UNL     1      -3.928   1.701   9.854  0.00  0.00    -0.029 A 
ATOM     40  C   UNL     1      -3.839   0.594  10.873  0.00  0.00    +0.045 C 
ENDBRANCH  32  34
ENDBRANCH   3  30
BRANCH   4  41
ATOM     41  O   UNL     1       2.427  -0.598   7.899  0.00  0.00    -0.388 OA
ATOM     42  H   UNL     1       3.323  -0.354   8.169  0.00  0.00    +0.210 HD
ENDBRANCH   4  41
TORSDOF 8
