REMARK  Name = ZINC66964563
REMARK  8 active torsions:
REMARK  status: ('A' for Active; 'I' for Inactive)
REMARK    1  A    between atoms: C_1  and  C_2
REMARK    2  A    between atoms: C_6  and  C_7
REMARK    3  A    between atoms: C_11  and  N_13
REMARK    4  A    between atoms: N_13  and  C_14
REMARK    5  A    between atoms: C_14  and  C_16
REMARK    6  A    between atoms: C_14  and  C_17
REMARK    7  A    between atoms: N_22  and  C_23
REMARK    8  A    between atoms: C_23  and  C_24
REMARK                            x       y       z     vdW  Elec       q    Type
REMARK                         _______ _______ _______ _____ _____    ______ ____
ROOT
ATOM      1  C   UNL     1      -0.009  -1.414   7.381  0.00  0.00    +0.154 C 
ATOM      2  C   UNL     1      -1.475  -1.360   7.818  0.00  0.00    +0.038 C 
ENDROOT
BRANCH   1   3
ATOM      3  C   UNL     1       0.737  -2.397   8.246  0.00  0.00    +0.240 C 
ATOM      4  O   UNL     1       1.278  -3.358   7.743  0.00  0.00    -0.273 OA
ATOM      5  N   UNL     1       0.801  -2.208   9.579  0.00  0.00    -0.239 N 
ATOM      6  C   UNL     1       1.468  -3.087  10.353  0.00  0.00    +0.306 C 
ATOM      7  O   UNL     1       2.012  -4.050   9.849  0.00  0.00    -0.252 OA
ATOM      8  N   UNL     1       1.533  -2.898  11.685  0.00  0.00    -0.291 N 
ATOM      9  H   UNL     1       0.367  -1.439   9.981  0.00  0.00    +0.159 HD
ATOM     10  H   UNL     1       1.099  -2.129  12.088  0.00  0.00    +0.151 HD
BRANCH   8  11
ATOM     11  C   UNL     1       2.258  -3.853  12.527  0.00  0.00    +0.219 C 
BRANCH  11  12
ATOM     12  C   UNL     1       2.178  -3.409  13.989  0.00  0.00    +0.405 C 
ATOM     13  F   UNL     1       0.838  -3.359  14.388  0.00  0.00    -0.169 F 
ATOM     14  F   UNL     1       2.871  -4.321  14.792  0.00  0.00    -0.169 F 
ATOM     15  F   UNL     1       2.752  -2.140  14.122  0.00  0.00    -0.169 F 
ENDBRANCH  11  12
ENDBRANCH   8  11
ENDBRANCH   1   3
BRANCH   1  16
ATOM     16  N   UNL     1       0.067  -1.840   5.981  0.00  0.00    -0.333 N 
ATOM     17  H   UNL     1       0.209  -2.775   5.765  0.00  0.00    +0.147 HD
BRANCH  16  22
ATOM     18  C   UNL     1      -0.123  -0.358   2.613  0.00  0.00    -0.009 A 
ATOM     19  C   UNL     1      -0.326   0.985   2.934  0.00  0.00    +0.009 A 
ATOM     20  C   UNL     1      -0.397   1.376   4.256  0.00  0.00    +0.002 A 
ATOM     21  C   UNL     1      -0.267   0.441   5.266  0.00  0.00    +0.023 A 
ATOM     22  C   UNL     1      -0.064  -0.899   4.957  0.00  0.00    +0.028 A 
ATOM     23  C   UNL     1       0.003  -1.302   3.632  0.00  0.00    +0.032 A 
BRANCH  18  29
ATOM     24  C   UNL     1       1.993  -2.211   1.379  0.00  0.00    +0.045 C 
ATOM     25  C   UNL     1       0.865  -1.599   0.590  0.00  0.00    -0.036 A 
ATOM     26  C   UNL     1       0.729  -1.857  -0.757  0.00  0.00    +0.011 A 
ATOM     27  C   UNL     1      -0.299  -1.290  -1.439  0.00  0.00    +0.046 A 
ATOM     28  S   UNL     1      -1.122  -0.351  -0.162  0.00  0.00    -0.096 S 
ATOM     29  C   UNL     1      -0.048  -0.780   1.198  0.00  0.00    +0.022 A 
ENDBRANCH  18  29
ENDBRANCH  16  22
ENDBRANCH   1  16
TORSDOF 6
