REMARK  Name = ZINC00079793
REMARK  4 active torsions:
REMARK  status: ('A' for Active; 'I' for Inactive)
REMARK    1  A    between atoms: C_10  and  C_22
REMARK    2  A    between atoms: C_11  and  N_21
REMARK    3  A    between atoms: C_12  and  C_19
REMARK    4  A    between atoms: C_13  and  C_14
REMARK                            x       y       z     vdW  Elec       q    Type
REMARK                         _______ _______ _______ _____ _____    ______ ____
ROOT
ATOM      1  C   UNL     1      -1.222   1.748   0.017  0.00  0.00    +0.000 A 
ATOM      2  C   UNL     1      -0.013   1.076   0.008  0.00  0.00    +0.001 A 
ATOM      3  C   UNL     1       1.174   1.779   0.000  0.00  0.00    +0.009 A 
ATOM      4  C   UNL     1       1.157   3.176   0.008  0.00  0.00    -0.013 A 
ATOM      5  C   UNL     1      -0.066   3.843   0.022  0.00  0.00    -0.035 A 
ATOM      6  C   UNL     1      -1.247   3.132   0.030  0.00  0.00    +0.004 A 
ATOM      7  C   UNL     1       0.227   5.323   0.028  0.00  0.00    +0.072 C 
ATOM      8  C   UNL     1       1.732   5.448   0.015  0.00  0.00    -0.025 A 
ATOM      9  C   UNL     1       2.260   4.166   0.003  0.00  0.00    +0.006 A 
ATOM     10  C   UNL     1       3.662   3.986  -0.011  0.00  0.00    +0.082 A 
ATOM     11  C   UNL     1       4.513   5.098  -0.012  0.00  0.00    +0.061 A 
ATOM     12  C   UNL     1       3.972   6.391  -0.000  0.00  0.00    +0.082 A 
ATOM     13  C   UNL     1       2.571   6.561   0.013  0.00  0.00    +0.012 A 
ENDROOT
BRANCH  13  14
ATOM     14  C   UNL     1       1.994   7.917   0.025  0.00  0.00    +0.021 A 
ATOM     15  C   UNL     1       2.078   8.884   0.995  0.00  0.00    +0.016 A 
ATOM     16  C   UNL     1       1.451  10.089   0.783  0.00  0.00    +0.008 A 
ATOM     17  C   UNL     1       0.769  10.286  -0.377  0.00  0.00    +0.046 A 
ATOM     18  S   UNL     1       1.010   8.732  -1.222  0.00  0.00    -0.097 S 
ENDBRANCH  13  14
BRANCH  11  19
ATOM     19  N   UNL     1       5.886   4.921  -0.026  0.00  0.00    -0.356 N 
ATOM     20  H   UNL     1       6.475   5.692  -0.027  0.00  0.00    +0.142 HD
ATOM     21  H   UNL     1       6.260   4.025  -0.034  0.00  0.00    +0.142 HD
ENDBRANCH  11  19
BRANCH  12  22
ATOM     22  C   UNL     1       4.836   7.533  -0.001  0.00  0.00    +0.102 C 
ATOM     23  N   UNL     1       5.521   8.439  -0.002  0.00  0.00    -0.191 NA
ENDBRANCH  12  22
BRANCH  10  24
ATOM     24  C   UNL     1       4.213   2.664  -0.023  0.00  0.00    +0.102 C 
ATOM     25  N   UNL     1       4.649   1.615  -0.032  0.00  0.00    -0.191 NA
ENDBRANCH  10  24
TORSDOF 4
