REMARK  Name = ZINC07989242
REMARK  6 active torsions:
REMARK  status: ('A' for Active; 'I' for Inactive)
REMARK    1  A    between atoms: C_5  and  C_7
REMARK    2  A    between atoms: C_10  and  C_12
REMARK    3  A    between atoms: N_14  and  C_15
REMARK    4  A    between atoms: C_15  and  C_16
REMARK    5  A    between atoms: C_19  and  S_22
REMARK    6  A    between atoms: S_22  and  N_25
REMARK                            x       y       z     vdW  Elec       q    Type
REMARK                         _______ _______ _______ _____ _____    ______ ____
ROOT
ATOM      1  C   UNL     1       1.141   5.397   1.647  0.00  0.00    +0.280 C 
ATOM      2  O   UNL     1       1.122   6.193   0.726  0.00  0.00    -0.267 OA
ATOM      3  N   UNL     1       1.157   4.074   1.394  0.00  0.00    -0.305 N 
ATOM      4  H   UNL     1       1.172   3.440   2.128  0.00  0.00    +0.149 HD
ENDROOT
BRANCH   1   8
ATOM      5  C   UNL     1       1.169   5.893   5.228  0.00  0.00    +0.137 A 
ATOM      6  C   UNL     1       1.147   7.197   4.827  0.00  0.00    +0.051 A 
ATOM      7  C   UNL     1       1.139   7.198   3.428  0.00  0.00    +0.055 A 
ATOM      8  C   UNL     1       1.147   5.879   3.030  0.00  0.00    +0.190 A 
ATOM      9  O   UNL     1       1.169   5.107   4.138  0.00  0.00    -0.450 OA
BRANCH   5  14
ATOM     10  C   UNL     1       0.305   4.016   8.363  0.00  0.00    +0.001 A 
ATOM     11  C   UNL     1       1.226   4.539   9.253  0.00  0.00    +0.001 A 
ATOM     12  C   UNL     1       2.129   5.502   8.839  0.00  0.00    +0.021 A 
ATOM     13  C   UNL     1       2.119   5.944   7.530  0.00  0.00    +0.052 A 
ATOM     14  C   UNL     1       1.188   5.422   6.628  0.00  0.00    +0.036 A 
ATOM     15  C   UNL     1       0.281   4.451   7.054  0.00  0.00    +0.013 A 
ATOM     16 CL   UNL     1       3.257   7.147   7.010  0.00  0.00    -0.083 Cl
ENDBRANCH   5  14
ENDBRANCH   1   8
BRANCH   3  17
ATOM     17  C   UNL     1       1.151   3.592   0.010  0.00  0.00    +0.140 C 
BRANCH  17  18
ATOM     18  C   UNL     1       1.171   2.086   0.002  0.00  0.00    -0.030 A 
ATOM     19  C   UNL     1      -0.017   1.378   0.010  0.00  0.00    +0.007 A 
ATOM     20  C   UNL     1       0.002  -0.004   0.002  0.00  0.00    +0.029 A 
ATOM     21  C   UNL     1       1.208  -0.679  -0.013  0.00  0.00    +0.105 A 
ATOM     22  C   UNL     1       2.396   0.029  -0.021  0.00  0.00    +0.029 A 
ATOM     23  C   UNL     1       2.377   1.411  -0.015  0.00  0.00    +0.007 A 
BRANCH  21  24
ATOM     24  S   UNL     1       1.232  -2.441  -0.022  0.00  0.00    +0.056 S 
ATOM     25  O   UNL     1       2.489  -2.832   0.515  0.00  0.00    -0.153 OA
ATOM     26  O   UNL     1      -0.002  -2.866   0.539  0.00  0.00    -0.153 OA
BRANCH  24  27
ATOM     27  N   UNL     1       1.223  -2.923  -1.606  0.00  0.00    -0.204 NA
ATOM     28  H   UNL     1       1.207  -2.260  -2.314  0.00  0.00    +0.144 HD
ATOM     29  H   UNL     1       1.234  -3.868  -1.825  0.00  0.00    +0.144 HD
ENDBRANCH  24  27
ENDBRANCH  21  24
ENDBRANCH  17  18
ENDBRANCH   3  17
TORSDOF 6
