REMARK  Name = ZINC39325265
REMARK  9 active torsions:
REMARK  status: ('A' for Active; 'I' for Inactive)
REMARK    1  A    between atoms: C_1  and  C_2
REMARK    2  A    between atoms: C_6  and  C_8
REMARK    3  A    between atoms: C_8  and  C_9
REMARK    4  A    between atoms: C_9  and  N_10
REMARK    5  A    between atoms: N_10  and  C_11
REMARK    6  A    between atoms: N_10  and  S_25
REMARK    7  A    between atoms: C_11  and  C_12
REMARK    8  A    between atoms: C_19  and  C_24
REMARK    9  A    between atoms: S_25  and  C_28
REMARK                            x       y       z     vdW  Elec       q    Type
REMARK                         _______ _______ _______ _____ _____    ______ ____
ROOT
ATOM      1  N   UNL     1       1.719  -4.088   4.447  0.00  0.00    -0.175 NA
ENDROOT
BRANCH   1   2
ATOM      2  S   UNL     1       1.849  -3.233   5.860  0.00  0.00    +0.063 S 
ATOM      3  O   UNL     1       2.954  -3.780   6.566  0.00  0.00    -0.153 OA
ATOM      4  O   UNL     1       1.773  -1.858   5.511  0.00  0.00    -0.153 OA
BRANCH   2   5
ATOM      5  C   UNL     1       0.413  -3.590   6.818  0.00  0.00    +0.133 A 
ATOM      6  C   UNL     1       0.526  -4.295   7.968  0.00  0.00    +0.031 A 
ATOM      7  C   UNL     1      -0.588  -4.595   8.752  0.00  0.00    +0.004 A 
ATOM      8  C   UNL     1      -1.831  -4.195   8.396  0.00  0.00    +0.031 A 
ATOM      9  C   UNL     1      -2.026  -3.450   7.201  0.00  0.00    +0.102 A 
ATOM     10  C   UNL     1      -0.860  -3.131   6.385  0.00  0.00    +0.126 A 
ATOM     11  N   UNL     1      -1.161  -2.427   5.293  0.00  0.00    -0.189 NA
ATOM     12  S   UNL     1      -2.755  -2.211   5.342  0.00  0.00    +0.117 S 
ATOM     13  N   UNL     1      -3.166  -2.976   6.696  0.00  0.00    -0.191 NA
ENDBRANCH   2   5
ENDBRANCH   1   2
BRANCH   1  14
ATOM     14  C   UNL     1       1.172  -3.445   3.250  0.00  0.00    +0.114 C 
BRANCH  14  15
ATOM     15  C   UNL     1      -0.167  -4.092   2.890  0.00  0.00    +0.052 C 
BRANCH  15  21
ATOM     16  C   UNL     1      -2.931  -0.563   0.666  0.00  0.00    +0.044 C 
ATOM     17  C   UNL     1      -2.034  -1.770   0.572  0.00  0.00    -0.050 A 
ATOM     18  C   UNL     1      -1.709  -2.295  -0.665  0.00  0.00    +0.003 A 
ATOM     19  C   UNL     1      -0.886  -3.402  -0.751  0.00  0.00    +0.001 A 
ATOM     20  C   UNL     1      -0.387  -3.984   0.399  0.00  0.00    +0.004 A 
ATOM     21  C   UNL     1      -0.711  -3.458   1.636  0.00  0.00    -0.046 A 
ATOM     22  C   UNL     1      -1.530  -2.348   1.722  0.00  0.00    +0.007 A 
ENDBRANCH  15  21
ENDBRANCH  14  15
ENDBRANCH   1  14
BRANCH   1  23
ATOM     23  C   UNL     1       2.152  -5.486   4.395  0.00  0.00    +0.126 C 
BRANCH  23  24
ATOM     24  C   UNL     1       3.675  -5.544   4.261  0.00  0.00    +0.114 C 
ATOM     25  C   UNL     1       4.107  -6.979   4.490  0.00  0.00    -0.003 C 
ATOM     26  C   UNL     1       4.803  -7.589   3.489  0.00  0.00    -0.007 A 
ATOM     27  C   UNL     1       5.259  -8.973   3.626  0.00  0.00    +0.009 A 
ATOM     28  C   UNL     1       5.949  -9.540   2.603  0.00  0.00    +0.001 A 
ATOM     29  C   UNL     1       6.228  -8.831   1.434  0.00  0.00    +0.005 A 
ATOM     30  C   UNL     1       5.833  -7.545   1.245  0.00  0.00    -0.029 A 
ATOM     31  C   UNL     1       5.111  -6.865   2.243  0.00  0.00    +0.043 A 
ATOM     32  N   UNL     1       4.728  -5.604   2.046  0.00  0.00    -0.284 N 
ATOM     33  C   UNL     1       4.050  -4.908   2.942  0.00  0.00    +0.225 C 
ATOM     34  O   UNL     1       3.727  -3.759   2.705  0.00  0.00    -0.275 OA
ATOM     35  C   UNL     1       6.170  -6.841  -0.044  0.00  0.00    +0.045 C 
ATOM     36  H   UNL     1       4.958  -5.176   1.206  0.00  0.00    +0.155 HD
ENDBRANCH  23  24
ENDBRANCH   1  23
TORSDOF 7
