REMARK  Name = ZINC08667503
REMARK  1 active torsions:
REMARK  status: ('A' for Active; 'I' for Inactive)
REMARK    1  A    between atoms: C_12  and  C_16
REMARK                            x       y       z     vdW  Elec       q    Type
REMARK                         _______ _______ _______ _____ _____    ______ ____
ROOT
ATOM      1  C   UNL     1      -5.769   9.317  -2.322  0.00  0.00    +0.002 A 
ATOM      2  C   UNL     1      -6.149   9.258  -0.995  0.00  0.00    +0.002 A 
ATOM      3  C   UNL     1      -5.274   8.768  -0.041  0.00  0.00    +0.025 A 
ATOM      4  C   UNL     1      -4.011   8.334  -0.414  0.00  0.00    +0.055 A 
ATOM      5  C   UNL     1      -3.630   8.393  -1.754  0.00  0.00    +0.053 A 
ATOM      6  C   UNL     1      -4.511   8.885  -2.704  0.00  0.00    +0.025 A 
ATOM      7  N   UNL     1      -2.353   7.955  -2.154  0.00  0.00    -0.306 N 
ATOM      8  C   UNL     1      -1.592   7.248  -1.180  0.00  0.00    +0.137 C 
ATOM      9  C   UNL     1      -1.987   7.199   0.151  0.00  0.00    +0.211 C 
ATOM     10  N   UNL     1      -3.134   7.840   0.571  0.00  0.00    -0.283 N 
ATOM     11  O   UNL     1      -1.130   6.482   0.887  0.00  0.00    -0.462 OA
ATOM     12  C   UNL     1      -0.079   6.003   0.036  0.00  0.00    +0.277 C 
ATOM     13  C   UNL     1      -0.418   6.534  -1.344  0.00  0.00    +0.227 C 
ATOM     14  O   UNL     1       0.209   6.367  -2.374  0.00  0.00    -0.286 OA
ATOM     15  H   UNL     1      -1.992   8.165  -3.171  0.00  0.00    +0.152 HD
ATOM     16  H   UNL     1      -3.374   7.971   1.636  0.00  0.00    +0.155 HD
ENDROOT
BRANCH  12  17
ATOM     17  C   UNL     1      -0.059   4.497   0.027  0.00  0.00    +0.000 A 
ATOM     18  C   UNL     1       1.148   3.822   0.012  0.00  0.00    +0.009 A 
ATOM     19  C   UNL     1       1.167   2.440   0.004  0.00  0.00    +0.020 A 
ATOM     20  C   UNL     1      -0.021   1.732   0.012  0.00  0.00    +0.041 A 
ATOM     21  C   UNL     1      -1.229   2.407   0.021  0.00  0.00    +0.020 A 
ATOM     22  C   UNL     1      -1.247   3.789   0.034  0.00  0.00    +0.009 A 
ATOM     23 CL   UNL     1       0.002  -0.004   0.002  0.00  0.00    -0.084 Cl
ENDBRANCH  12  17
TORSDOF 1
