REMARK  Name = ZINC57243909
REMARK  7 active torsions:
REMARK  status: ('A' for Active; 'I' for Inactive)
REMARK    1  A    between atoms: C_1  and  C_2
REMARK    2  A    between atoms: C_2  and  C_3
REMARK    3  A    between atoms: C_3  and  C_5
REMARK    4  A    between atoms: C_3  and  N_10
REMARK    5  A    between atoms: N_13  and  N_14
REMARK    6  A    between atoms: C_15  and  C_17
REMARK    7  A    between atoms: N_21  and  C_22
REMARK                            x       y       z     vdW  Elec       q    Type
REMARK                         _______ _______ _______ _____ _____    ______ ____
ROOT
ATOM      1  N   UNL     1      -2.941  -0.576   0.992  0.00  0.00    -0.291 N 
ATOM      2  C   UNL     1      -3.590   0.600   1.098  0.00  0.00    +0.316 C 
ATOM      3  O   UNL     1      -3.774   1.284   0.110  0.00  0.00    -0.251 OA
ATOM      4  N   UNL     1      -4.037   1.017   2.299  0.00  0.00    -0.218 N 
ATOM      5  H   UNL     1      -2.794  -1.122   1.780  0.00  0.00    +0.151 HD
ATOM      6  H   UNL     1      -4.505   1.863   2.375  0.00  0.00    +0.174 HD
ENDROOT
BRANCH   4   7
ATOM      7  N   UNL     1      -3.825   0.228   3.438  0.00  0.00    -0.228 N 
ATOM      8  C   UNL     1      -4.272   0.646   4.639  0.00  0.00    +0.277 C 
ATOM      9  O   UNL     1      -4.767   1.752   4.753  0.00  0.00    -0.267 OA
ATOM     10  H   UNL     1      -3.358  -0.618   3.361  0.00  0.00    +0.173 HD
BRANCH   8  11
ATOM     11  C   UNL     1      -4.162  -0.233   5.808  0.00  0.00    +0.107 A 
ATOM     12  C   UNL     1      -3.553  -1.469   5.843  0.00  0.00    +0.047 A 
ATOM     13  C   UNL     1      -3.678  -1.952   7.150  0.00  0.00    +0.036 A 
ATOM     14  C   UNL     1      -4.347  -1.022   7.874  0.00  0.00    +0.101 A 
ATOM     15  N   UNL     1      -4.642   0.030   7.071  0.00  0.00    -0.345 N 
ATOM     16  C   UNL     1      -5.355   1.242   7.479  0.00  0.00    +0.149 C 
ATOM     17 BR   UNL     1      -3.030  -3.609   7.792  0.00  0.00    -0.049 Br
ENDBRANCH   8  11
ENDBRANCH   4   7
BRANCH   1  18
ATOM     18  C   UNL     1      -2.455  -1.030  -0.314  0.00  0.00    +0.111 C 
BRANCH  18  19
ATOM     19  C   UNL     1      -2.340  -2.533  -0.313  0.00  0.00    +0.010 A 
ATOM     20  C   UNL     1      -2.647  -3.413  -1.297  0.00  0.00    +0.013 A 
ATOM     21  C   UNL     1      -2.457  -4.763  -1.071  0.00  0.00    +0.008 A 
ATOM     22  C   UNL     1      -1.971  -5.168   0.128  0.00  0.00    +0.045 A 
ATOM     23  S   UNL     1      -1.758  -3.615   0.983  0.00  0.00    -0.100 S 
ENDBRANCH  18  19
BRANCH  18  25
ATOM     24  C   UNL     1      -1.220   1.105  -0.715  0.00  0.00    +0.006 C 
ATOM     25  C   UNL     1      -1.082  -0.414  -0.590  0.00  0.00    +0.024 C 
ENDBRANCH  18  25
ENDBRANCH   1  18
TORSDOF 5
