REMARK  Name = ZINC03218618
REMARK  5 active torsions:
REMARK  status: ('A' for Active; 'I' for Inactive)
REMARK    1  A    between atoms: C_1  and  C_2
REMARK    2  A    between atoms: C_5  and  C_8
REMARK    3  A    between atoms: C_8  and  C_23
REMARK    4  A    between atoms: N_15  and  C_16
REMARK    5  A    between atoms: C_19  and  C_22
REMARK                            x       y       z     vdW  Elec       q    Type
REMARK                         _______ _______ _______ _____ _____    ______ ____
ROOT
ATOM      1  C   UNL     1       1.391  -1.076   0.363  0.00  0.00    +0.230 C 
ATOM      2  N   UNL     1       0.037  -0.576   0.464  0.00  0.00    -0.274 N 
ATOM      3  C   UNL     1      -0.384   0.679   0.366  0.00  0.00    +0.280 C 
ATOM      4  O   UNL     1      -1.552   0.918   0.607  0.00  0.00    -0.263 OA
ATOM      5  S   UNL     1       0.665   2.013  -0.103  0.00  0.00    -0.017 S 
ATOM      6  C   UNL     1       2.232   1.216   0.105  0.00  0.00    +0.072 C 
ATOM      7  C   UNL     1       3.286   1.851   0.609  0.00  0.00    +0.042 C 
ATOM      8  N   UNL     1       2.294  -0.131  -0.295  0.00  0.00    -0.262 N 
ATOM      9  H   UNL     1      -0.650  -1.242   0.623  0.00  0.00    +0.152 HD
ENDROOT
BRANCH   1  14
ATOM     10  C   UNL     1       1.339  -6.011  -2.643  0.00  0.00    +0.044 C 
ATOM     11  C   UNL     1       1.352  -4.724  -1.859  0.00  0.00    -0.050 A 
ATOM     12  C   UNL     1       2.391  -4.457  -0.987  0.00  0.00    +0.004 A 
ATOM     13  C   UNL     1       2.404  -3.276  -0.268  0.00  0.00    +0.008 A 
ATOM     14  C   UNL     1       1.378  -2.363  -0.421  0.00  0.00    +0.003 A 
ATOM     15  C   UNL     1       0.336  -2.632  -1.289  0.00  0.00    +0.008 A 
ATOM     16  C   UNL     1       0.326  -3.811  -2.011  0.00  0.00    +0.004 A 
ENDBRANCH   1  14
BRANCH   8  17
ATOM     17  C   UNL     1       3.185  -0.551  -1.286  0.00  0.00    +0.037 A 
ATOM     18  C   UNL     1       4.507  -0.830  -0.961  0.00  0.00    +0.024 A 
ATOM     19  C   UNL     1       5.384  -1.250  -1.942  0.00  0.00    +0.005 A 
ATOM     20  C   UNL     1       4.950  -1.383  -3.248  0.00  0.00    -0.050 A 
ATOM     21  C   UNL     1       3.636  -1.101  -3.576  0.00  0.00    +0.005 A 
ATOM     22  C   UNL     1       2.753  -0.686  -2.600  0.00  0.00    +0.024 A 
ATOM     23  C   UNL     1       5.911  -1.837  -4.317  0.00  0.00    +0.044 C 
ENDBRANCH   8  17
BRANCH   1  24
ATOM     24  C   UNL     1       1.919  -1.361   1.770  0.00  0.00    +0.432 C 
ATOM     25  F   UNL     1       1.170  -2.391   2.349  0.00  0.00    -0.166 F 
ATOM     26  F   UNL     1       3.262  -1.746   1.696  0.00  0.00    -0.166 F 
ATOM     27  F   UNL     1       1.807  -0.207   2.553  0.00  0.00    -0.166 F 
ENDBRANCH   1  24
TORSDOF 3
