REMARK  Name = ZINC09580625
REMARK  3 active torsions:
REMARK  status: ('A' for Active; 'I' for Inactive)
REMARK    1  A    between atoms: C_10  and  C_32
REMARK    2  A    between atoms: C_11  and  C_27
REMARK    3  A    between atoms: C_17  and  C_22
REMARK                            x       y       z     vdW  Elec       q    Type
REMARK                         _______ _______ _______ _____ _____    ______ ____
ROOT
ATOM      1  C   UNL     1      -0.013   1.075   0.008  0.00  0.00    +0.001 A 
ATOM      2  C   UNL     1       1.174   1.789   0.001  0.00  0.00    +0.002 A 
ATOM      3  C   UNL     1       1.165   3.170  -0.040  0.00  0.00    +0.024 A 
ATOM      4  C   UNL     1      -0.032   3.864  -0.094  0.00  0.00    +0.050 A 
ATOM      5  C   UNL     1      -1.233   3.138   0.041  0.00  0.00    +0.036 A 
ATOM      6  C   UNL     1      -1.217   1.743   0.064  0.00  0.00    +0.013 A 
ATOM      7  C   UNL     1      -2.493   3.882   0.181  0.00  0.00    +0.127 C 
ATOM      8  N   UNL     1      -2.446   5.197   0.216  0.00  0.00    -0.215 NA
ATOM      9  C   UNL     1      -1.299   5.876   0.059  0.00  0.00    +0.146 C 
ATOM     10  C   UNL     1      -1.366   7.258   0.192  0.00  0.00    +0.082 C 
ATOM     11  C   UNL     1      -0.105   8.058  -0.059  0.00  0.00    +0.098 C 
ATOM     12  C   UNL     1       1.079   7.287  -0.606  0.00  0.00    +0.025 C 
ATOM     13  C   UNL     1       0.967   5.944  -0.737  0.00  0.00    +0.025 C 
ATOM     14  N   UNL     1      -0.109   5.245  -0.257  0.00  0.00    -0.256 N 
ATOM     15  C   UNL     1       2.046   5.212  -1.505  0.00  0.00    +0.063 C 
ATOM     16  C   UNL     1       2.580   6.133  -2.608  0.00  0.00    +0.068 C 
ATOM     17  C   UNL     1       3.229   7.349  -1.942  0.00  0.00    +0.091 C 
ATOM     18  C   UNL     1       2.234   7.976  -0.996  0.00  0.00    +0.162 C 
ATOM     19  O   UNL     1       2.451   9.099  -0.585  0.00  0.00    -0.292 OA
ATOM     20  N   UNL     1      -3.691   3.223   0.295  0.00  0.00    -0.343 N 
ATOM     21  H   UNL     1      -4.513   3.727   0.403  0.00  0.00    +0.144 HD
ATOM     22  H   UNL     1      -3.717   2.254   0.268  0.00  0.00    +0.144 HD
ENDROOT
BRANCH  16  23
ATOM     23  C   UNL     1       3.605   5.394  -3.429  0.00  0.00    +0.109 A 
ATOM     24  C   UNL     1       3.541   5.173  -4.754  0.00  0.00    +0.045 A 
ATOM     25  C   UNL     1       4.703   4.449  -5.105  0.00  0.00    +0.041 A 
ATOM     26  C   UNL     1       5.408   4.270  -3.973  0.00  0.00    +0.195 A 
ATOM     27  O   UNL     1       4.741   4.850  -2.962  0.00  0.00    -0.468 OA
ENDBRANCH  16  23
BRANCH  11  28
ATOM     28  C   UNL     1      -0.458   9.142  -1.044  0.00  0.00    -0.028 A 
ATOM     29  C   UNL     1      -0.423  10.471  -0.666  0.00  0.00    +0.012 A 
ATOM     30  C   UNL     1      -0.747  11.422  -1.577  0.00  0.00    +0.045 A 
ATOM     31  S   UNL     1      -1.117  10.439  -3.021  0.00  0.00    -0.105 S 
ATOM     32  C   UNL     1      -0.810   8.829  -2.315  0.00  0.00    +0.049 A 
ENDBRANCH  11  28
BRANCH  10  33
ATOM     33  C   UNL     1      -2.591   7.907   0.552  0.00  0.00    +0.099 C 
ATOM     34  N   UNL     1      -3.562   8.421   0.837  0.00  0.00    -0.191 NA
ENDBRANCH  10  33
TORSDOF 3
