REMARK  Name = ZINC11065867
REMARK  7 active torsions:
REMARK  status: ('A' for Active; 'I' for Inactive)
REMARK    1  A    between atoms: C_1  and  C_2
REMARK    2  A    between atoms: C_16  and  C_17
REMARK    3  A    between atoms: C_17  and  O_19
REMARK    4  A    between atoms: O_19  and  C_20
REMARK    5  A    between atoms: C_20  and  C_21
REMARK    6  A    between atoms: N_26  and  C_27
REMARK    7  A    between atoms: C_33  and  C_35
REMARK                            x       y       z     vdW  Elec       q    Type
REMARK                         _______ _______ _______ _____ _____    ______ ____
ROOT
ATOM      1  C   UNL     1       5.036   2.161  -0.047  0.00  0.00    +0.347 C 
ATOM      2  O   UNL     1       5.444   1.015  -0.063  0.00  0.00    -0.244 OA
ENDROOT
BRANCH   1  18
ATOM      3  C   UNL     1       2.850   0.051  -0.040  0.00  0.00    +0.046 C 
ATOM      4  C   UNL     1       2.565   1.531  -0.021  0.00  0.00    -0.015 A 
ATOM      5  C   UNL     1       1.247   1.990   0.001  0.00  0.00    +0.076 A 
ATOM      6  C   UNL     1       1.084   3.394   0.016  0.00  0.00    +0.116 A 
ATOM      7  N   UNL     1      -0.116   3.960   0.036  0.00  0.00    -0.226 NA
ATOM      8  C   UNL     1      -1.209   3.251   0.035  0.00  0.00    +0.114 A 
ATOM      9  N   UNL     1      -1.178   1.887   0.018  0.00  0.00    -0.296 N 
ATOM     10  C   UNL     1      -0.014   1.214   0.009  0.00  0.00    +0.263 A 
ATOM     11  O   UNL     1       0.002  -0.004   0.002  0.00  0.00    -0.267 OA
ATOM     12  C   UNL     1      -2.457   1.163   0.024  0.00  0.00    +0.126 C 
ATOM     13  C   UNL     1      -3.098   1.277  -1.357  0.00  0.00    +0.022 C 
ATOM     14  C   UNL     1      -3.987   2.506  -1.450  0.00  0.00    +0.002 C 
ATOM     15  C   UNL     1      -3.195   3.796  -1.336  0.00  0.00    +0.008 C 
ATOM     16  C   UNL     1      -2.559   3.931   0.046  0.00  0.00    +0.074 C 
ATOM     17  S   UNL     1       2.753   3.999   0.001  0.00  0.00    -0.062 S 
ATOM     18  C   UNL     1       3.596   2.426  -0.025  0.00  0.00    +0.102 A 
ENDBRANCH   1  18
BRANCH   1  19
ATOM     19  O   UNL     1       5.911   3.188  -0.049  0.00  0.00    -0.451 OA
BRANCH  19  20
ATOM     20  C   UNL     1       7.323   2.852  -0.071  0.00  0.00    +0.328 C 
BRANCH  20  21
ATOM     21  C   UNL     1       8.142   4.117  -0.070  0.00  0.00    +0.258 C 
ATOM     22  O   UNL     1       7.589   5.196  -0.052  0.00  0.00    -0.272 OA
ATOM     23  N   UNL     1       9.488   4.049  -0.088  0.00  0.00    -0.237 N 
ATOM     24  C   UNL     1      10.219   5.181  -0.087  0.00  0.00    +0.306 C 
ATOM     25  O   UNL     1       9.666   6.263  -0.069  0.00  0.00    -0.252 OA
ATOM     26  N   UNL     1      11.565   5.113  -0.105  0.00  0.00    -0.296 N 
ATOM     27  H   UNL     1       9.929   3.186  -0.102  0.00  0.00    +0.159 HD
ATOM     28  H   UNL     1      12.007   4.250  -0.119  0.00  0.00    +0.151 HD
BRANCH  26  29
ATOM     29  C   UNL     1      12.361   6.343  -0.104  0.00  0.00    +0.077 C 
ATOM     30  C   UNL     1      12.513   6.853  -1.538  0.00  0.00    +0.022 C 
ATOM     31  C   UNL     1      13.344   8.138  -1.537  0.00  0.00    +0.002 C 
ATOM     32  C   UNL     1      14.727   7.851  -0.949  0.00  0.00    +0.000 C 
ATOM     33  C   UNL     1      14.574   7.340   0.486  0.00  0.00    +0.005 C 
ATOM     34  C   UNL     1      13.743   6.056   0.484  0.00  0.00    +0.006 C 
ATOM     35  C   UNL     1      13.591   5.545   1.919  0.00  0.00    +0.009 C 
ENDBRANCH  26  29
ENDBRANCH  20  21
ENDBRANCH  19  20
ENDBRANCH   1  19
TORSDOF 5
