REMARK  Name = ZINC62012293
REMARK  9 active torsions:
REMARK  status: ('A' for Active; 'I' for Inactive)
REMARK    1  A    between atoms: C_1  and  C_2
REMARK    2  A    between atoms: C_2  and  C_4
REMARK    3  A    between atoms: C_2  and  N_11
REMARK    4  A    between atoms: N_11  and  C_12
REMARK    5  A    between atoms: N_11  and  C_13
REMARK    6  A    between atoms: C_13  and  C_15
REMARK    7  A    between atoms: C_13  and  C_21
REMARK    8  A    between atoms: C_21  and  C_23
REMARK    9  A    between atoms: C_21  and  N_24
REMARK                            x       y       z     vdW  Elec       q    Type
REMARK                         _______ _______ _______ _____ _____    ______ ____
ROOT
ATOM      1  C   UNL     1      -0.810  -0.030   2.591  0.00  0.00    +0.079 C 
ENDROOT
BRANCH   1   2
ATOM      2  C   UNL     1      -0.561  -0.968   3.744  0.00  0.00    +0.006 A 
ATOM      3  C   UNL     1      -1.388  -1.305   4.764  0.00  0.00    +0.014 A 
ATOM      4  C   UNL     1      -0.942  -2.196   5.722  0.00  0.00    +0.023 A 
ATOM      5  C   UNL     1       0.310  -2.707   5.612  0.00  0.00    +0.055 A 
ATOM      6  S   UNL     1       0.896  -1.929   4.117  0.00  0.00    -0.085 S 
ATOM      7 BR   UNL     1       1.200  -3.932   6.746  0.00  0.00    -0.043 Br
ENDBRANCH   1   2
BRANCH   1   8
ATOM      8  N   UNL     1      -0.355  -0.657   1.343  0.00  0.00    -0.293 NA
ATOM      9  C   UNL     1       1.097  -0.508   1.178  0.00  0.00    +0.106 C 
BRANCH   8  11
ATOM     10  C   UNL     1      -0.582  -0.793  -1.092  0.00  0.00    +0.029 C 
ATOM     11  C   UNL     1      -1.075  -0.110   0.185  0.00  0.00    +0.084 C 
BRANCH  11  12
ATOM     12  C   UNL     1      -2.552  -0.359   0.349  0.00  0.00    -0.030 A 
ATOM     13  C   UNL     1      -3.001  -1.591   0.789  0.00  0.00    +0.006 A 
ATOM     14  C   UNL     1      -4.356  -1.820   0.940  0.00  0.00    +0.020 A 
ATOM     15  C   UNL     1      -5.263  -0.816   0.650  0.00  0.00    +0.041 A 
ATOM     16  C   UNL     1      -4.814   0.416   0.211  0.00  0.00    +0.020 A 
ATOM     17  C   UNL     1      -3.458   0.646   0.066  0.00  0.00    +0.006 A 
ATOM     18 CL   UNL     1      -6.965  -1.103   0.839  0.00  0.00    -0.084 Cl
ENDBRANCH  11  12
ENDBRANCH   8  11
ENDBRANCH   1   8
BRANCH   1  19
ATOM     19  C   UNL     1      -0.041   1.272   2.818  0.00  0.00    -0.056 C 
ATOM     20  C   UNL     1      -0.405   2.277   1.723  0.00  0.00    -0.012 C 
BRANCH  19  21
ATOM     21  N   UNL     1      -0.396   1.829   4.130  0.00  0.00    +0.381 N 
ATOM     22  H   UNL     1      -0.155   1.166   4.852  0.00  0.00    -0.090 HD
ATOM     23  H   UNL     1       0.112   2.688   4.280  0.00  0.00    -0.090 HD
ATOM     24  H   UNL     1      -1.387   2.014   4.160  0.00  0.00    -0.090 HD
ENDBRANCH  19  21
ENDBRANCH   1  19
TORSDOF 6
