REMARK  Name = ZINC58498979
REMARK  9 active torsions:
REMARK  status: ('A' for Active; 'I' for Inactive)
REMARK    1  A    between atoms: C_1  and  C_2
REMARK    2  A    between atoms: C_2  and  C_3
REMARK    3  A    between atoms: C_3  and  C_4
REMARK    4  A    between atoms: C_4  and  C_5
REMARK    5  A    between atoms: N_7  and  C_8
REMARK    6  A    between atoms: N_7  and  C_17
REMARK    7  A    between atoms: C_8  and  C_9
REMARK    8  A    between atoms: C_12  and  C_15
REMARK    9  A    between atoms: C_17  and  C_18
REMARK                            x       y       z     vdW  Elec       q    Type
REMARK                         _______ _______ _______ _____ _____    ______ ____
ROOT
ATOM      1  C   UNL     1       1.444  -2.513  -2.505  0.00  0.00    +0.216 C 
ATOM      2  O   UNL     1       1.887  -1.715  -3.303  0.00  0.00    -0.276 OA
ATOM      3  N   UNL     1       1.583  -3.835  -2.727  0.00  0.00    -0.289 N 
ENDROOT
BRANCH   1   4
ATOM      4  C   UNL     1       0.739  -2.027  -1.265  0.00  0.00    +0.096 C 
BRANCH   4   5
ATOM      5  C   UNL     1       0.718  -0.497  -1.257  0.00  0.00    +0.009 C 
BRANCH   5   7
ATOM      6  C   UNL     1      -0.019   1.526   0.010  0.00  0.00    +0.004 C 
ATOM      7  C   UNL     1       0.002  -0.004   0.002  0.00  0.00    -0.003 C 
ENDBRANCH   5   7
ENDBRANCH   4   5
ENDBRANCH   1   4
BRANCH   3   8
ATOM      8  C   UNL     1       2.269  -4.308  -3.932  0.00  0.00    +0.143 C 
BRANCH   8   9
ATOM      9  C   UNL     1       3.741  -4.457  -3.647  0.00  0.00    -0.030 A 
ATOM     10  C   UNL     1       4.595  -3.387  -3.853  0.00  0.00    +0.006 A 
ATOM     11  C   UNL     1       5.943  -3.517  -3.594  0.00  0.00    +0.019 A 
ATOM     12  C   UNL     1       6.447  -4.731  -3.122  0.00  0.00    +0.052 A 
ATOM     13  C   UNL     1       5.580  -5.806  -2.915  0.00  0.00    +0.019 A 
ATOM     14  C   UNL     1       4.233  -5.661  -3.174  0.00  0.00    +0.006 A 
BRANCH  12  15
ATOM     15  C   UNL     1       7.846  -4.872  -2.851  0.00  0.00    +0.099 C 
ATOM     16  N   UNL     1       8.956  -4.985  -2.636  0.00  0.00    -0.191 NA
ENDBRANCH  12  15
ENDBRANCH   8   9
ENDBRANCH   3   8
BRANCH   3  17
ATOM     17  C   UNL     1       1.049  -4.800  -1.762  0.00  0.00    +0.221 C 
BRANCH  17  18
ATOM     18  C   UNL     1      -0.393  -5.149  -2.136  0.00  0.00    +0.405 C 
ATOM     19  F   UNL     1      -0.420  -5.708  -3.418  0.00  0.00    -0.169 F 
ATOM     20  F   UNL     1      -0.904  -6.070  -1.215  0.00  0.00    -0.169 F 
ATOM     21  F   UNL     1      -1.174  -3.988  -2.116  0.00  0.00    -0.169 F 
ENDBRANCH  17  18
ENDBRANCH   3  17
TORSDOF 8
