REMARK  Name = ZINC15797175
REMARK  5 active torsions:
REMARK  status: ('A' for Active; 'I' for Inactive)
REMARK    1  A    between atoms: C_1  and  C_2
REMARK    2  A    between atoms: C_8  and  N_10
REMARK    3  A    between atoms: C_11  and  C_13
REMARK    4  A    between atoms: C_16  and  N_22
REMARK    5  A    between atoms: C_17  and  N_19
REMARK                            x       y       z     vdW  Elec       q    Type
REMARK                         _______ _______ _______ _____ _____    ______ ____
ROOT
ATOM      1  C   UNL     1       0.043  -0.629  -4.576  0.00  0.00    +0.039 A 
ATOM      2  C   UNL     1      -0.507  -1.249  -3.450  0.00  0.00    +0.015 A 
ATOM      3  C   UNL     1      -0.772  -0.511  -2.320  0.00  0.00    +0.026 A 
ATOM      4  C   UNL     1      -0.503   0.855  -2.300  0.00  0.00    +0.060 A 
ATOM      5  C   UNL     1       0.045   1.476  -3.419  0.00  0.00    +0.148 A 
ATOM      6  C   UNL     1       0.317   0.741  -4.551  0.00  0.00    +0.047 A 
ENDROOT
BRANCH   4   7
ATOM      7  N   UNL     1      -0.776   1.600  -1.158  0.00  0.00    -0.328 N 
ATOM      8  C   UNL     1      -0.013   1.086   0.008  0.00  0.00    +0.105 C 
ATOM      9  C   UNL     1      -0.782   1.607   1.240  0.00  0.00    +0.020 C 
ATOM     10  C   UNL     1      -2.223   1.850   0.736  0.00  0.00    +0.020 C 
ATOM     11  C   UNL     1      -2.199   1.455  -0.756  0.00  0.00    +0.105 C 
ENDBRANCH   4   7
BRANCH   1  13
ATOM     12  N   UNL     1       0.069  -2.741  -5.809  0.00  0.00    -0.308 N 
ATOM     13  C   UNL     1       0.334  -1.419  -5.787  0.00  0.00    +0.244 C 
ATOM     14  O   UNL     1       0.813  -0.879  -6.765  0.00  0.00    -0.270 OA
ATOM     15  H   UNL     1      -0.313  -3.172  -5.029  0.00  0.00    +0.149 HD
BRANCH  12  22
ATOM     16  C   UNL     1      -2.012  -4.315  -7.066  0.00  0.00    +0.009 C 
ATOM     17  C   UNL     1      -0.548  -4.758  -7.046  0.00  0.00    +0.006 C 
ATOM     18  C   UNL     1      -0.246  -5.578  -8.303  0.00  0.00    +0.005 C 
ATOM     19  C   UNL     1       1.218  -6.021  -8.283  0.00  0.00    +0.000 C 
ATOM     20  C   UNL     1       2.124  -4.788  -8.249  0.00  0.00    +0.002 C 
ATOM     21  C   UNL     1       1.822  -3.968  -6.993  0.00  0.00    +0.022 C 
ATOM     22  C   UNL     1       0.358  -3.525  -7.012  0.00  0.00    +0.076 C 
ENDBRANCH  12  22
ENDBRANCH   1  13
BRANCH   5  23
ATOM     23  N   UNL     1       0.336   2.927  -3.392  0.00  0.00    +0.058 N 
ATOM     24  O   UNL     1       0.815   3.470  -4.371  0.00  0.00    -0.126 OA
ATOM     25  O   UNL     1       0.096   3.578  -2.391  0.00  0.00    -0.126 OA
ENDBRANCH   5  23
TORSDOF 4
