REMARK  Name = ZINC58218339
REMARK  12 active torsions:
REMARK  status: ('A' for Active; 'I' for Inactive)
REMARK    1  A    between atoms: C_1  and  C_2
REMARK    2  A    between atoms: C_2  and  C_3
REMARK    3  A    between atoms: C_6  and  C_18
REMARK    4  A    between atoms: C_8  and  S_9
REMARK    5  A    between atoms: S_9  and  N_12
REMARK    6  A    between atoms: N_20  and  C_21
REMARK    7  A    between atoms: C_21  and  C_22
REMARK    8  A    between atoms: C_22  and  C_23
REMARK    9  A    between atoms: C_22  and  C_24
REMARK   10  A    between atoms: C_22  and  N_25
REMARK   11  A    between atoms: C_27  and  C_34
REMARK   12  A    between atoms: C_30  and  C_33
REMARK                            x       y       z     vdW  Elec       q    Type
REMARK                         _______ _______ _______ _____ _____    ______ ____
ROOT
ATOM      1  C   UNL     1      -1.657  -0.386   0.899  0.00  0.00    -0.021 A 
ATOM      2  C   UNL     1      -2.065  -1.004   2.067  0.00  0.00    +0.006 A 
ATOM      3  C   UNL     1      -3.265  -1.683   2.109  0.00  0.00    +0.013 A 
ATOM      4  C   UNL     1      -4.068  -1.745   0.969  0.00  0.00    +0.039 A 
ATOM      5  C   UNL     1      -3.650  -1.119  -0.206  0.00  0.00    +0.041 A 
ATOM      6  C   UNL     1      -2.450  -0.439  -0.233  0.00  0.00    +0.109 A 
ENDROOT
BRANCH   4   7
ATOM      7  C   UNL     1      -5.356  -2.471   1.006  0.00  0.00    +0.244 C 
ATOM      8  O   UNL     1      -6.053  -2.524   0.012  0.00  0.00    -0.270 OA
ATOM      9  N   UNL     1      -5.756  -3.075   2.142  0.00  0.00    -0.313 N 
ATOM     10  H   UNL     1      -5.200  -3.033   2.936  0.00  0.00    +0.149 HD
BRANCH   9  11
ATOM     11  C   UNL     1      -7.032  -3.794   2.179  0.00  0.00    +0.092 C 
BRANCH  11  12
ATOM     12  C   UNL     1      -7.301  -4.282   3.604  0.00  0.00    -0.055 C 
ATOM     13  C   UNL     1      -7.401  -3.079   4.545  0.00  0.00    -0.008 C 
ATOM     14  C   UNL     1      -8.616  -5.064   3.636  0.00  0.00    -0.008 C 
BRANCH  12  15
ATOM     15  N   UNL     1      -6.202  -5.154   4.039  0.00  0.00    +0.384 N 
ATOM     16  C   UNL     1      -6.084  -6.288   3.115  0.00  0.00    -0.075 C 
ATOM     17  C   UNL     1      -4.890  -7.157   3.517  0.00  0.00    -0.031 C 
ATOM     18  C   UNL     1      -5.101  -7.677   4.941  0.00  0.00    +0.003 C 
ATOM     19  C   UNL     1      -5.297  -6.487   5.885  0.00  0.00    -0.031 C 
ATOM     20  C   UNL     1      -6.476  -5.644   5.396  0.00  0.00    -0.075 C 
ATOM     21  C   UNL     1      -4.028  -5.633   5.901  0.00  0.00    +0.005 C 
ATOM     22  C   UNL     1      -4.770  -8.338   2.552  0.00  0.00    +0.005 C 
ATOM     23  H   UNL     1      -5.339  -4.632   4.039  0.00  0.00    -0.081 HD
ENDBRANCH  12  15
ENDBRANCH  11  12
ENDBRANCH   9  11
ENDBRANCH   4   7
BRANCH   6  24
ATOM     24  S   UNL     1      -1.924   0.357  -1.714  0.00  0.00    +0.061 S 
ATOM     25  O   UNL     1      -2.236   1.736  -1.566  0.00  0.00    -0.153 OA
ATOM     26  O   UNL     1      -0.604  -0.102  -1.975  0.00  0.00    -0.153 OA
BRANCH  24  27
ATOM     27  N   UNL     1      -2.876  -0.214  -2.942  0.00  0.00    -0.172 NA
ATOM     28  C   UNL     1      -2.560  -1.484  -3.617  0.00  0.00    +0.137 C 
ATOM     29  C   UNL     1      -3.826  -2.348  -3.637  0.00  0.00    +0.177 C 
ATOM     30  O   UNL     1      -4.906  -1.588  -4.186  0.00  0.00    -0.377 OA
ATOM     31  C   UNL     1      -5.255  -0.431  -3.423  0.00  0.00    +0.177 C 
ATOM     32  C   UNL     1      -4.065   0.529  -3.388  0.00  0.00    +0.137 C 
ENDBRANCH  24  27
ENDBRANCH   6  24
BRANCH   1  34
ATOM     33  C   UNL     1      -0.589   1.840   1.132  0.00  0.00    +0.009 C 
ATOM     34  C   UNL     1      -0.344   0.354   0.861  0.00  0.00    +0.034 C 
ENDBRANCH   1  34
TORSDOF 7
