REMARK  Name = ZINC13313376
REMARK  8 active torsions:
REMARK  status: ('A' for Active; 'I' for Inactive)
REMARK    1  A    between atoms: C_1  and  C_2
REMARK    2  A    between atoms: C_5  and  C_24
REMARK    3  A    between atoms: C_6  and  N_8
REMARK    4  A    between atoms: C_9  and  C_11
REMARK    5  A    between atoms: C_11  and  C_13
REMARK    6  A    between atoms: C_11  and  O_14
REMARK    7  A    between atoms: O_14  and  C_15
REMARK    8  A    between atoms: C_20  and  C_21
REMARK                            x       y       z     vdW  Elec       q    Type
REMARK                         _______ _______ _______ _____ _____    ______ ____
ROOT
ATOM      1  C   UNL     1       5.032   3.389   0.037  0.00  0.00    +0.256 C 
ATOM      2  C   UNL     1       5.438   3.471   1.510  0.00  0.00    +0.062 C 
ENDROOT
BRANCH   1   4
ATOM      3  N   UNL     1       6.137   5.491  -0.656  0.00  0.00    -0.282 N 
ATOM      4  C   UNL     1       4.999   4.776  -0.552  0.00  0.00    +0.258 C 
ATOM      5  O   UNL     1       3.949   5.248  -0.933  0.00  0.00    -0.271 OA
ATOM      6  H   UNL     1       6.985   5.092  -0.407  0.00  0.00    +0.155 HD
BRANCH   3  12
ATOM      7  C   UNL     1       4.127   8.874  -3.603  0.00  0.00    +0.044 C 
ATOM      8  C   UNL     1       5.130   8.477  -2.551  0.00  0.00    -0.049 A 
ATOM      9  C   UNL     1       6.011   9.416  -2.047  0.00  0.00    +0.004 A 
ATOM     10  C   UNL     1       6.934   9.055  -1.082  0.00  0.00    +0.005 A 
ATOM     11  C   UNL     1       6.978   7.755  -0.619  0.00  0.00    -0.029 A 
ATOM     12  C   UNL     1       6.095   6.809  -1.123  0.00  0.00    +0.037 A 
ATOM     13  C   UNL     1       5.173   7.174  -2.096  0.00  0.00    +0.027 A 
ATOM     14  C   UNL     1       7.984   7.362   0.432  0.00  0.00    +0.045 C 
ENDBRANCH   3  12
ENDBRANCH   1   4
BRANCH   1  15
ATOM     15  O   UNL     1       3.735   2.797  -0.067  0.00  0.00    -0.479 OA
BRANCH  15  16
ATOM     16  C   UNL     1       3.676   1.442  -0.064  0.00  0.00    +0.136 A 
ATOM     17  C   UNL     1       4.843   0.693  -0.054  0.00  0.00    +0.048 A 
ATOM     18  C   UNL     1       4.782  -0.686  -0.058  0.00  0.00    +0.023 A 
ATOM     19  C   UNL     1       3.555  -1.333  -0.065  0.00  0.00    +0.042 A 
ATOM     20  C   UNL     1       2.385  -0.605  -0.069  0.00  0.00    +0.038 A 
ATOM     21  C   UNL     1       2.434   0.792  -0.066  0.00  0.00    +0.106 A 
ATOM     22 CL   UNL     1       3.494  -3.068  -0.069  0.00  0.00    -0.084 Cl
BRANCH  21  23
ATOM     23  C   UNL     1       1.186   1.577  -0.071  0.00  0.00    +0.390 C 
ATOM     24  O   UNL     1       1.233   2.791  -0.068  0.00  0.00    -0.240 OA
ATOM     25  O   UNL     1      -0.006   0.948  -0.078  0.00  0.00    -0.240 OA
ENDBRANCH  21  23
ENDBRANCH  15  16
ENDBRANCH   1  15
TORSDOF 5
