REMARK  Name = ZINC23337908
REMARK  9 active torsions:
REMARK  status: ('A' for Active; 'I' for Inactive)
REMARK    1  A    between atoms: C_1  and  C_2
REMARK    2  A    between atoms: C_2  and  C_3
REMARK    3  A    between atoms: C_3  and  C_4
REMARK    4  A    between atoms: C_4  and  C_5
REMARK    5  A    between atoms: C_9  and  C_11
REMARK    6  A    between atoms: C_11  and  N_12
REMARK    7  A    between atoms: C_16  and  C_19
REMARK    8  A    between atoms: N_21  and  C_22
REMARK    9  A    between atoms: C_25  and  C_28
REMARK                            x       y       z     vdW  Elec       q    Type
REMARK                         _______ _______ _______ _____ _____    ______ ____
ROOT
ATOM      1  N   UNL     1      -1.212   4.604   4.452  0.00  0.00    -0.296 NA
ATOM      2  C   UNL     1      -0.100   4.668   3.495  0.00  0.00    +0.085 C 
ATOM      3  C   UNL     1       1.142   5.229   4.191  0.00  0.00    +0.016 C 
ATOM      4  C   UNL     1       0.829   6.627   4.733  0.00  0.00    +0.015 C 
ATOM      5  C   UNL     1      -0.364   6.540   5.689  0.00  0.00    +0.089 C 
ATOM      6  C   UNL     1      -1.562   5.940   4.950  0.00  0.00    +0.097 C 
ENDROOT
BRANCH   5   7
ATOM      7  C   UNL     1      -0.716   7.920   6.182  0.00  0.00    +0.222 C 
ATOM      8  O   UNL     1      -1.816   8.380   5.963  0.00  0.00    -0.275 OA
ATOM      9  N   UNL     1       0.193   8.644   6.865  0.00  0.00    -0.285 N 
ATOM     10  H   UNL     1       1.160   8.195   7.140  0.00  0.00    +0.155 HD
BRANCH   9  11
ATOM     11  C   UNL     1      -0.093   9.964   7.226  0.00  0.00    +0.033 A 
ATOM     12  C   UNL     1      -0.872  10.758   6.393  0.00  0.00    +0.024 A 
ATOM     13  C   UNL     1      -1.161  12.058   6.748  0.00  0.00    +0.013 A 
ATOM     14  C   UNL     1      -0.660  12.581   7.942  0.00  0.00    +0.017 A 
ATOM     15  C   UNL     1       0.128  11.783   8.774  0.00  0.00    +0.013 A 
ATOM     16  C   UNL     1       0.407  10.482   8.415  0.00  0.00    +0.024 A 
BRANCH  14  17
ATOM     17  C   UNL     1      -0.962  13.976   8.323  0.00  0.00    +0.135 A 
ATOM     18  C   UNL     1      -1.708  14.856   7.604  0.00  0.00    +0.050 A 
ATOM     19  C   UNL     1      -1.738  16.059   8.338  0.00  0.00    +0.042 A 
ATOM     20  C   UNL     1      -1.010  15.858   9.454  0.00  0.00    +0.196 A 
ATOM     21  O   UNL     1      -0.542  14.598   9.441  0.00  0.00    -0.463 OA
ENDBRANCH  14  17
ENDBRANCH   9  11
ENDBRANCH   5   7
BRANCH   1  22
ATOM     22  C   UNL     1      -2.381   3.942   3.857  0.00  0.00    +0.139 C 
BRANCH  22  27
ATOM     23  C   UNL     1      -1.191   1.381   1.599  0.00  0.00    +0.084 A 
ATOM     24  N   UNL     1      -1.464   0.614   2.677  0.00  0.00    -0.350 N 
ATOM     25  H   UNL     1      -1.289  -0.471   2.638  0.00  0.00    +0.166 HD
ATOM     26  C   UNL     1      -1.939   1.445   3.655  0.00  0.00    +0.106 A 
ATOM     27  C   UNL     1      -1.940   2.690   3.143  0.00  0.00    +0.047 A 
ATOM     28  N   UNL     1      -1.473   2.622   1.887  0.00  0.00    -0.346 N 
ATOM     29  H   UNL     1      -1.313   3.410   1.137  0.00  0.00    +0.167 HD
BRANCH  23  30
ATOM     30  C   UNL     1      -0.645   0.886   0.285  0.00  0.00    +0.072 C 
BRANCH  30  31
ATOM     31  C   UNL     1      -1.570   1.328  -0.851  0.00  0.00    +0.007 C 
BRANCH  31  33
ATOM     32  C   UNL     1      -1.941   1.267  -3.321  0.00  0.00    +0.004 C 
ATOM     33  C   UNL     1      -1.015   0.825  -2.185  0.00  0.00    -0.003 C 
ENDBRANCH  31  33
ENDBRANCH  30  31
ENDBRANCH  23  30
ENDBRANCH  22  27
ENDBRANCH   1  22
TORSDOF 8
