REMARK  Name = ZINC44785576
REMARK  4 active torsions:
REMARK  status: ('A' for Active; 'I' for Inactive)
REMARK    1  A    between atoms: C_1  and  C_2
REMARK    2  A    between atoms: C_8  and  C_10
REMARK    3  A    between atoms: C_10  and  C_17
REMARK    4  A    between atoms: N_18  and  O_19
REMARK                            x       y       z     vdW  Elec       q    Type
REMARK                         _______ _______ _______ _____ _____    ______ ____
ROOT
ATOM      1  C   UNL     1       1.297  -0.828   3.517  0.00  0.00    +0.105 C 
ATOM      2  C   UNL     1       1.357  -2.325   3.387  0.00  0.00    +0.024 C 
ATOM      3  C   UNL     1       0.095  -2.910   2.723  0.00  0.00    +0.001 C 
ATOM      4  C   UNL     1      -1.204  -2.251   3.225  0.00  0.00    +0.000 C 
ATOM      5  C   UNL     1      -1.196  -2.023   4.713  0.00  0.00    +0.000 C 
ATOM      6  C   UNL     1      -0.701  -0.588   4.986  0.00  0.00    +0.001 C 
ATOM      7  C   UNL     1       0.748  -0.479   4.916  0.00  0.00    +0.024 C 
ENDROOT
BRANCH   1  14
ATOM      8  C   UNL     1      -2.106   1.072   1.278  0.00  0.00    +0.028 C 
ATOM      9  C   UNL     1      -0.746   1.746   1.472  0.00  0.00    +0.073 C 
ATOM     10  C   UNL     1      -0.945   3.196   1.962  0.00  0.00    +0.024 C 
ATOM     11  C   UNL     1      -0.768   3.071   3.498  0.00  0.00    +0.021 C 
ATOM     12  C   UNL     1       0.327   1.980   3.598  0.00  0.00    +0.108 C 
ATOM     13  N   UNL     1       0.022   1.034   2.505  0.00  0.00    -0.298 N 
ATOM     14  C   UNL     1       0.384  -0.263   2.460  0.00  0.00    +0.229 C 
ATOM     15  O   UNL     1      -0.026  -0.976   1.568  0.00  0.00    -0.275 OA
ENDBRANCH   1  14
BRANCH   1  16
ATOM     16  C   UNL     1       2.678  -0.246   3.356  0.00  0.00    +0.147 C 
ATOM     17  N   UNL     1       3.253   0.339   4.354  0.00  0.00    -0.076 NA
ATOM     18  N   UNL     1       3.327  -0.339   2.145  0.00  0.00    -0.343 N 
ATOM     19  H   UNL     1       2.928  -0.842   1.418  0.00  0.00    +0.144 HD
ATOM     20  H   UNL     1       4.184   0.098   2.019  0.00  0.00    +0.144 HD
BRANCH  17  21
ATOM     21  O   UNL     1       4.551   0.886   4.202  0.00  0.00    -0.408 OA
ATOM     22  H   UNL     1       4.898   1.303   5.002  0.00  0.00    +0.328 HD
ENDBRANCH  17  21
ENDBRANCH   1  16
TORSDOF 3
