REMARK  Name = ZINC28057641
REMARK  3 active torsions:
REMARK  status: ('A' for Active; 'I' for Inactive)
REMARK    1  A    between atoms: C_1  and  C_2
REMARK    2  A    between atoms: C_10  and  C_18
REMARK    3  A    between atoms: C_25  and  C_28
REMARK                            x       y       z     vdW  Elec       q    Type
REMARK                         _______ _______ _______ _____ _____    ______ ____
ROOT
ATOM      1  C   UNL     1       6.919   6.274  -3.940  0.00  0.00    +0.044 C 
ATOM      2  C   UNL     1       5.455   5.945  -3.804  0.00  0.00    -0.050 A 
ATOM      3  C   UNL     1       4.609   6.107  -4.887  0.00  0.00    +0.007 A 
ATOM      4  C   UNL     1       3.263   5.808  -4.779  0.00  0.00    +0.046 A 
ATOM      5  C   UNL     1       2.757   5.345  -3.578  0.00  0.00    +0.131 A 
ATOM      6  C   UNL     1       3.611   5.183  -2.480  0.00  0.00    +0.038 A 
ATOM      7  C   UNL     1       4.962   5.484  -2.598  0.00  0.00    +0.016 A 
ATOM      8  C   UNL     1       3.036   4.689  -1.206  0.00  0.00    +0.050 C 
ATOM      9  C   UNL     1       1.833   4.110  -1.235  0.00  0.00    +0.026 C 
ATOM     10  C   UNL     1       1.155   3.595   0.010  0.00  0.00    +0.177 C 
ATOM     11  N   UNL     1       1.846   4.080   1.196  0.00  0.00    -0.201 N 
ATOM     12  C   UNL     1       3.074   4.663   1.171  0.00  0.00    +0.240 A 
ATOM     13  N   UNL     1       3.387   4.961   2.399  0.00  0.00    -0.092 NA
ATOM     14  N   UNL     1       2.437   4.611   3.199  0.00  0.00    -0.021 NA
ATOM     15  N   UNL     1       1.466   4.070   2.537  0.00  0.00    -0.042 NA
ATOM     16  N   UNL     1       3.757   4.854  -0.018  0.00  0.00    -0.282 N 
ATOM     17  C   UNL     1       1.124   3.952  -2.561  0.00  0.00    +0.241 C 
ATOM     18  O   UNL     1       1.443   5.036  -3.433  0.00  0.00    -0.479 OA
ATOM     19  H   UNL     1       4.823   5.125  -0.055  0.00  0.00    +0.155 HD
ENDROOT
BRANCH  10  20
ATOM     20  C   UNL     1       1.173   2.088   0.002  0.00  0.00    +0.017 A 
ATOM     21  C   UNL     1       2.379   1.412  -0.013  0.00  0.00    +0.009 A 
ATOM     22  C   UNL     1       2.396   0.029  -0.020  0.00  0.00    +0.001 A 
ATOM     23  C   UNL     1       1.208  -0.678  -0.013  0.00  0.00    +0.003 A 
ATOM     24  C   UNL     1       0.002  -0.004   0.002  0.00  0.00    +0.039 A 
ATOM     25  C   UNL     1      -0.017   1.381   0.010  0.00  0.00    +0.129 A 
ATOM     26  F   UNL     1      -1.196   2.041   0.019  0.00  0.00    -0.205 F 
ENDBRANCH  10  20
BRANCH  17  27
ATOM     27  C   UNL     1       1.551   2.657  -3.202  0.00  0.00    +0.034 A 
ATOM     28  C   UNL     1       0.914   1.460  -3.216  0.00  0.00    +0.015 A 
ATOM     29  C   UNL     1       1.501   0.396  -3.875  0.00  0.00    +0.008 A 
ATOM     30  C   UNL     1       2.696   0.581  -4.489  0.00  0.00    +0.045 A 
ATOM     31  S   UNL     1       3.024   2.302  -4.147  0.00  0.00    -0.098 S 
ENDBRANCH  17  27
TORSDOF 2
