REMARK  Name = ZINC59346271
REMARK  7 active torsions:
REMARK  status: ('A' for Active; 'I' for Inactive)
REMARK    1  A    between atoms: N_7  and  C_11
REMARK    2  A    between atoms: C_11  and  C_12
REMARK    3  A    between atoms: C_12  and  C_13
REMARK    4  A    between atoms: C_19  and  S_21
REMARK    5  A    between atoms: S_21  and  C_22
REMARK    6  A    between atoms: C_22  and  C_23
REMARK    7  A    between atoms: N_25  and  C_26
REMARK                            x       y       z     vdW  Elec       q    Type
REMARK                         _______ _______ _______ _____ _____    ______ ____
ROOT
ATOM      1  C   UNL     1      -0.634  -4.738  -1.457  0.00  0.00    +0.220 C 
ATOM      2  O   UNL     1      -1.006  -5.214  -0.406  0.00  0.00    -0.275 OA
ATOM      3  N   UNL     1      -1.081  -5.246  -2.623  0.00  0.00    -0.263 N 
ATOM      4  C   UNL     1      -1.971  -6.318  -2.619  0.00  0.00    +0.189 A 
ATOM      5  N   UNL     1      -2.504  -6.977  -1.604  0.00  0.00    -0.125 NA
ATOM      6  N   UNL     1      -3.304  -7.937  -1.776  0.00  0.00    -0.133 NA
ATOM      7  C   UNL     1      -3.659  -8.344  -2.986  0.00  0.00    +0.160 A 
ATOM      8  S   UNL     1      -2.726  -7.191  -3.988  0.00  0.00    -0.024 S 
ATOM      9  H   UNL     1      -0.783  -4.865  -3.464  0.00  0.00    +0.157 HD
ENDROOT
BRANCH   1  10
ATOM     10  C   UNL     1       0.329  -3.579  -1.461  0.00  0.00    +0.118 C 
BRANCH  10  11
ATOM     11  C   UNL     1       0.676  -3.199  -0.020  0.00  0.00    +0.138 C 
BRANCH  11  18
ATOM     12  C   UNL     1       0.052   1.341   0.030  0.00  0.00    +0.002 A 
ATOM     13  C   UNL     1       1.242   2.047   0.020  0.00  0.00    +0.004 A 
ATOM     14  C   UNL     1       2.450   1.378  -0.003  0.00  0.00    +0.048 A 
ATOM     15  C   UNL     1       2.473  -0.008  -0.016  0.00  0.00    +0.157 A 
ATOM     16  C   UNL     1       1.273  -0.719  -0.006  0.00  0.00    +0.090 A 
ATOM     17  C   UNL     1       0.065  -0.041   0.017  0.00  0.00    +0.030 A 
ATOM     18  N   UNL     1       1.611  -2.072  -0.023  0.00  0.00    -0.274 N 
ATOM     19  C   UNL     1       2.957  -2.153  -0.043  0.00  0.00    +0.421 A 
ATOM     20  O   UNL     1       3.598  -3.186  -0.061  0.00  0.00    -0.223 OA
ATOM     21  O   UNL     1       3.479  -0.916  -0.038  0.00  0.00    -0.407 OA
ENDBRANCH  11  18
ENDBRANCH  10  11
ENDBRANCH   1  10
BRANCH   7  22
ATOM     22  S   UNL     1      -4.745  -9.644  -3.470  0.00  0.00    -0.088 S 
BRANCH  22  23
ATOM     23  C   UNL     1      -5.310 -10.352  -1.898  0.00  0.00    +0.172 C 
BRANCH  23  24
ATOM     24  C   UNL     1      -6.259 -11.491  -2.172  0.00  0.00    +0.227 C 
ATOM     25  O   UNL     1      -6.528 -11.795  -3.315  0.00  0.00    -0.275 OA
ATOM     26  N   UNL     1      -6.809 -12.171  -1.147  0.00  0.00    -0.285 N 
ATOM     27  H   UNL     1      -6.543 -11.973  -0.235  0.00  0.00    +0.155 HD
BRANCH  26  28
ATOM     28  C   UNL     1      -7.763 -13.164  -1.398  0.00  0.00    +0.033 A 
ATOM     29  C   UNL     1      -8.819 -13.352  -0.516  0.00  0.00    +0.025 A 
ATOM     30  C   UNL     1      -9.760 -14.332  -0.765  0.00  0.00    +0.022 A 
ATOM     31  C   UNL     1      -9.650 -15.127  -1.893  0.00  0.00    +0.041 A 
ATOM     32  C   UNL     1      -8.599 -14.941  -2.774  0.00  0.00    +0.022 A 
ATOM     33  C   UNL     1      -7.659 -13.959  -2.532  0.00  0.00    +0.025 A 
ATOM     34 CL   UNL     1     -10.834 -16.358  -2.204  0.00  0.00    -0.084 Cl
ENDBRANCH  26  28
ENDBRANCH  23  24
ENDBRANCH  22  23
ENDBRANCH   7  22
TORSDOF 7
