REMARK  Name = ZINC02776471
REMARK  14 active torsions:
REMARK  status: ('A' for Active; 'I' for Inactive)
REMARK    1  A    between atoms: C_1  and  C_2
REMARK    2  A    between atoms: C_2  and  O_3
REMARK    3  A    between atoms: O_3  and  C_4
REMARK    4  A    between atoms: C_4  and  C_5
REMARK    5  A    between atoms: C_5  and  O_6
REMARK    6  A    between atoms: O_6  and  C_7
REMARK    7  A    between atoms: C_7  and  C_9
REMARK    8  A    between atoms: C_10  and  C_39
REMARK    9  A    between atoms: C_14  and  C_16
REMARK   10  A    between atoms: C_20  and  O_24
REMARK   11  A    between atoms: C_21  and  O_22
REMARK   12  A    between atoms: O_22  and  C_23
REMARK   13  A    between atoms: O_24  and  C_25
REMARK   14  A    between atoms: C_29  and  C_32
REMARK                            x       y       z     vdW  Elec       q    Type
REMARK                         _______ _______ _______ _____ _____    ______ ____
ROOT
ATOM      1  C   UNL     1      -0.113  -2.732   0.352  0.00  0.00    +0.065 C 
ATOM      2  C   UNL     1      -0.913  -1.915  -0.354  0.00  0.00    +0.016 C 
ATOM      3  N   UNL     1      -0.547  -0.618  -0.586  0.00  0.00    -0.321 N 
ATOM      4  C   UNL     1       0.400  -0.011   0.194  0.00  0.00    +0.016 C 
ATOM      5  C   UNL     1       1.261  -0.749   0.926  0.00  0.00    +0.024 C 
ATOM      6  C   UNL     1       1.201  -2.256   0.897  0.00  0.00    +0.096 C 
ATOM      7  C   UNL     1       2.239  -0.138   1.730  0.00  0.00    +0.162 C 
ATOM      8  O   UNL     1       2.988  -0.831   2.390  0.00  0.00    -0.292 OA
ATOM      9  C   UNL     1       2.376   1.359   1.788  0.00  0.00    +0.088 C 
ATOM     10  C   UNL     1       1.894   1.956   0.461  0.00  0.00    +0.032 C 
ATOM     11  C   UNL     1       0.454   1.497   0.218  0.00  0.00    +0.059 C 
ATOM     12  C   UNL     1      -2.222  -2.431  -0.893  0.00  0.00    +0.061 C 
ATOM     13  H   UNL     1      -1.014  -0.053  -1.406  0.00  0.00    +0.152 HD
ENDROOT
BRANCH  10  14
ATOM     14  C   UNL     1       1.940   3.460   0.535  0.00  0.00    -0.043 A 
ATOM     15  C   UNL     1       1.207   4.127   1.499  0.00  0.00    +0.005 A 
ATOM     16  C   UNL     1       1.254   5.507   1.571  0.00  0.00    +0.020 A 
ATOM     17  C   UNL     1       2.025   6.220   0.672  0.00  0.00    +0.041 A 
ATOM     18  C   UNL     1       2.754   5.553  -0.296  0.00  0.00    +0.020 A 
ATOM     19  C   UNL     1       2.711   4.173  -0.364  0.00  0.00    +0.005 A 
ATOM     20 CL   UNL     1       2.079   7.954   0.758  0.00  0.00    -0.084 Cl
ENDBRANCH  10  14
BRANCH   6  21
ATOM     21  C   UNL     1       2.316  -2.779   0.029  0.00  0.00    +0.010 A 
ATOM     22  C   UNL     1       2.333  -2.489  -1.323  0.00  0.00    +0.008 A 
ATOM     23  C   UNL     1       3.355  -2.967  -2.122  0.00  0.00    +0.004 A 
ATOM     24  C   UNL     1       4.364  -3.736  -1.573  0.00  0.00    +0.049 A 
ATOM     25  C   UNL     1       4.353  -4.030  -0.220  0.00  0.00    +0.162 A 
ATOM     26  C   UNL     1       3.327  -3.545   0.586  0.00  0.00    +0.166 A 
BRANCH  26  27
ATOM     27  O   UNL     1       3.314  -3.826   1.917  0.00  0.00    -0.491 OA
ATOM     28  C   UNL     1       2.744  -5.076   2.310  0.00  0.00    +0.277 C 
ENDBRANCH  26  27
BRANCH  25  29
ATOM     29  O   UNL     1       5.345  -4.787   0.322  0.00  0.00    -0.491 OA
ATOM     30  C   UNL     1       6.368  -5.245  -0.564  0.00  0.00    +0.277 C 
ENDBRANCH  25  29
ENDBRANCH   6  21
BRANCH   1  31
ATOM     31  C   UNL     1      -0.517  -4.067   0.585  0.00  0.00    +0.338 C 
ATOM     32  O   UNL     1      -1.000  -4.378   1.658  0.00  0.00    -0.245 OA
BRANCH  31  33
ATOM     33  O   UNL     1      -0.368  -4.996  -0.382  0.00  0.00    -0.459 OA
BRANCH  33  34
ATOM     34  C   UNL     1      -0.691  -6.346  -0.041  0.00  0.00    +0.260 C 
BRANCH  34  35
ATOM     35  C   UNL     1      -0.350  -7.264  -1.216  0.00  0.00    +0.201 C 
BRANCH  35  36
ATOM     36  O   UNL     1       1.062  -7.255  -1.435  0.00  0.00    -0.377 OA
BRANCH  36  38
ATOM     37  C   UNL     1       3.010  -7.999  -2.657  0.00  0.00    +0.034 C 
ATOM     38  C   UNL     1       1.489  -8.086  -2.516  0.00  0.00    +0.156 C 
ENDBRANCH  36  38
ENDBRANCH  35  36
ENDBRANCH  34  35
ENDBRANCH  33  34
ENDBRANCH  31  33
ENDBRANCH   1  31
TORSDOF 10
