REMARK  Name = ZINC20284011
REMARK  12 active torsions:
REMARK  status: ('A' for Active; 'I' for Inactive)
REMARK    1  A    between atoms: C_1  and  C_2
REMARK    2  A    between atoms: C_2  and  O_3
REMARK    3  A    between atoms: O_3  and  C_4
REMARK    4  A    between atoms: C_4  and  C_6
REMARK    5  A    between atoms: C_7  and  C_24
REMARK    6  A    between atoms: C_12  and  C_14
REMARK    7  A    between atoms: C_18  and  O_22
REMARK    8  A    between atoms: C_19  and  O_20
REMARK    9  A    between atoms: O_20  and  C_21
REMARK   10  A    between atoms: O_22  and  C_23
REMARK   11  A    between atoms: C_24  and  N_25
REMARK   12  A    between atoms: C_33  and  C_35
REMARK                            x       y       z     vdW  Elec       q    Type
REMARK                         _______ _______ _______ _____ _____    ______ ____
ROOT
ATOM      1  C   UNL     1       2.881   3.896   0.253  0.00  0.00    +0.079 C 
ATOM      2  C   UNL     1       3.112   5.212   0.055  0.00  0.00    +0.038 C 
ATOM      3  N   UNL     1       4.356   5.667  -0.277  0.00  0.00    -0.271 N 
ATOM      4  C   UNL     1       5.419   4.870  -0.439  0.00  0.00    +0.304 C 
ATOM      5  O   UNL     1       6.487   5.369  -0.739  0.00  0.00    -0.252 OA
ATOM      6  N   UNL     1       5.345   3.534  -0.279  0.00  0.00    -0.288 N 
ATOM      7  C   UNL     1       4.047   2.943   0.085  0.00  0.00    +0.147 C 
ATOM      8  H   UNL     1       4.526   6.744  -0.426  0.00  0.00    +0.156 HD
ATOM      9  H   UNL     1       6.225   2.888  -0.414  0.00  0.00    +0.151 HD
ENDROOT
BRANCH   7  10
ATOM     10  C   UNL     1       3.678   1.942  -0.980  0.00  0.00    +0.023 A 
ATOM     11  C   UNL     1       2.648   2.218  -1.861  0.00  0.00    +0.009 A 
ATOM     12  C   UNL     1       2.311   1.304  -2.842  0.00  0.00    +0.004 A 
ATOM     13  C   UNL     1       2.994   0.106  -2.940  0.00  0.00    +0.049 A 
ATOM     14  C   UNL     1       4.023  -0.178  -2.058  0.00  0.00    +0.162 A 
ATOM     15  C   UNL     1       4.367   0.744  -1.073  0.00  0.00    +0.167 A 
BRANCH  15  16
ATOM     16  O   UNL     1       5.376   0.469  -0.204  0.00  0.00    -0.491 OA
ATOM     17  C   UNL     1       5.044  -0.301   0.953  0.00  0.00    +0.277 C 
ENDBRANCH  15  16
BRANCH  14  18
ATOM     18  O   UNL     1       4.697  -1.356  -2.153  0.00  0.00    -0.491 OA
ATOM     19  C   UNL     1       4.290  -2.254  -3.187  0.00  0.00    +0.277 C 
ENDBRANCH  14  18
ENDBRANCH   7  10
BRANCH   1  20
ATOM     20  C   UNL     1       1.594   3.424   0.602  0.00  0.00    +0.339 C 
ATOM     21  O   UNL     1       0.700   4.214   0.840  0.00  0.00    -0.245 OA
BRANCH  20  22
ATOM     22  O   UNL     1       1.358   2.097   0.670  0.00  0.00    -0.462 OA
BRANCH  22  24
ATOM     23  C   UNL     1      -0.040   0.169   1.081  0.00  0.00    +0.048 C 
ATOM     24  C   UNL     1       0.011   1.689   0.917  0.00  0.00    +0.229 C 
ENDBRANCH  22  24
ENDBRANCH  20  22
ENDBRANCH   1  20
BRANCH   2  25
ATOM     25  C   UNL     1       1.979   6.194   0.207  0.00  0.00    +0.136 C 
BRANCH  25  26
ATOM     26  N   UNL     1       1.836   6.561   1.622  0.00  0.00    -0.287 NA
ATOM     27  C   UNL     1       3.121   6.996   2.186  0.00  0.00    +0.107 C 
ATOM     28  C   UNL     1       3.041   7.004   3.717  0.00  0.00    +0.137 C 
ATOM     29  N   UNL     1       1.835   7.745   4.109  0.00  0.00    -0.348 N 
ATOM     30  C   UNL     1       1.531   8.263   5.326  0.00  0.00    +0.086 A 
ATOM     31  C   UNL     1       0.327   8.868   5.237  0.00  0.00    +0.019 A 
ATOM     32  C   UNL     1      -0.128   8.715   3.910  0.00  0.00    +0.024 A 
ATOM     33  C   UNL     1       0.810   8.024   3.244  0.00  0.00    +0.036 A 
ATOM     34  C   UNL     1       0.801   7.596   1.797  0.00  0.00    +0.101 C 
ATOM     35  C   UNL     1      -0.570   7.023   1.435  0.00  0.00    +0.031 C 
ENDBRANCH  25  26
ENDBRANCH   2  25
TORSDOF 8
