REMARK  Name = ZINC22658910
REMARK  12 active torsions:
REMARK  status: ('A' for Active; 'I' for Inactive)
REMARK    1  A    between atoms: C_1  and  C_2
REMARK    2  A    between atoms: C_2  and  C_4
REMARK    3  A    between atoms: C_2  and  S_21
REMARK    4  A    between atoms: N_6  and  C_7
REMARK    5  A    between atoms: C_11  and  S_13
REMARK    6  A    between atoms: S_13  and  N_16
REMARK    7  A    between atoms: N_16  and  C_17
REMARK    8  A    between atoms: C_17  and  C_18
REMARK    9  A    between atoms: C_17  and  C_19
REMARK   10  A    between atoms: C_17  and  C_20
REMARK   11  A    between atoms: S_21  and  C_22
REMARK   12  A    between atoms: C_25  and  N_28
REMARK                            x       y       z     vdW  Elec       q    Type
REMARK                         _______ _______ _______ _____ _____    ______ ____
ROOT
ATOM      1  C   UNL     1      -3.697   3.107  -4.949  0.00  0.00    +0.230 C 
ATOM      2  O   UNL     1      -2.641   3.333  -5.500  0.00  0.00    -0.274 OA
ATOM      3  N   UNL     1      -3.787   3.183  -3.606  0.00  0.00    -0.285 N 
ATOM      4  H   UNL     1      -4.721   2.898  -3.100  0.00  0.00    +0.155 HD
ENDROOT
BRANCH   3   5
ATOM      5  C   UNL     1      -2.691   3.625  -2.856  0.00  0.00    +0.035 A 
ATOM      6  C   UNL     1      -1.809   4.553  -3.394  0.00  0.00    +0.023 A 
ATOM      7  C   UNL     1      -0.729   4.987  -2.651  0.00  0.00    +0.004 A 
ATOM      8  C   UNL     1      -0.528   4.503  -1.371  0.00  0.00    +0.028 A 
ATOM      9  C   UNL     1      -1.402   3.575  -0.835  0.00  0.00    +0.107 A 
ATOM     10  C   UNL     1      -2.484   3.137  -1.573  0.00  0.00    +0.051 A 
BRANCH   9  11
ATOM     11  S   UNL     1      -1.139   2.957   0.794  0.00  0.00    +0.059 S 
ATOM     12  O   UNL     1      -2.340   2.301   1.178  0.00  0.00    -0.153 OA
ATOM     13  O   UNL     1      -0.578   4.023   1.547  0.00  0.00    -0.153 OA
BRANCH  11  14
ATOM     14  N   UNL     1       0.027   1.785   0.690  0.00  0.00    -0.185 NA
ATOM     15  H   UNL     1       0.939   1.879   1.298  0.00  0.00    +0.149 HD
BRANCH  14  16
ATOM     16  C   UNL     1      -0.248   0.539  -0.029  0.00  0.00    +0.032 C 
ATOM     17  C   UNL     1      -0.827   0.863  -1.408  0.00  0.00    +0.029 C 
ATOM     18  C   UNL     1       1.051  -0.252  -0.195  0.00  0.00    +0.029 C 
ATOM     19  C   UNL     1      -1.256  -0.295   0.764  0.00  0.00    +0.029 C 
ENDBRANCH  14  16
ENDBRANCH  11  14
ENDBRANCH   9  11
ENDBRANCH   3   5
BRANCH   1  21
ATOM     20  C   UNL     1      -5.109   1.224  -5.731  0.00  0.00    +0.029 C 
ATOM     21  C   UNL     1      -4.910   2.740  -5.765  0.00  0.00    +0.134 C 
BRANCH  21  22
ATOM     22  S   UNL     1      -4.670   3.280  -7.481  0.00  0.00    -0.113 S 
BRANCH  22  23
ATOM     23  C   UNL     1      -6.216   2.941  -8.255  0.00  0.00    +0.009 A 
ATOM     24  C   UNL     1      -6.454   1.693  -8.819  0.00  0.00    +0.017 A 
ATOM     25  C   UNL     1      -7.669   1.429  -9.419  0.00  0.00    +0.034 A 
ATOM     26  C   UNL     1      -8.644   2.408  -9.470  0.00  0.00    +0.126 A 
ATOM     27  C   UNL     1      -8.409   3.653  -8.914  0.00  0.00    +0.034 A 
ATOM     28  C   UNL     1      -7.199   3.922  -8.307  0.00  0.00    +0.017 A 
BRANCH  26  29
ATOM     29  N   UNL     1      -9.943   2.123 -10.119  0.00  0.00    +0.056 N 
ATOM     30  O   UNL     1     -10.804   2.984 -10.164  0.00  0.00    -0.126 OA
ATOM     31  O   UNL     1     -10.152   1.028 -10.609  0.00  0.00    -0.126 OA
ENDBRANCH  26  29
ENDBRANCH  22  23
ENDBRANCH  21  22
ENDBRANCH   1  21
TORSDOF 8
