REMARK  Name = ZINC23196917
REMARK  12 active torsions:
REMARK  status: ('A' for Active; 'I' for Inactive)
REMARK    1  A    between atoms: C_1  and  C_2
REMARK    2  A    between atoms: C_2  and  N_3
REMARK    3  A    between atoms: N_3  and  C_4
REMARK    4  A    between atoms: N_3  and  C_6
REMARK    5  A    between atoms: C_4  and  C_5
REMARK    6  A    between atoms: C_6  and  C_8
REMARK    7  A    between atoms: C_6  and  C_15
REMARK    8  A    between atoms: C_8  and  C_9
REMARK    9  A    between atoms: C_15  and  N_16
REMARK   10  A    between atoms: C_17  and  C_19
REMARK   11  A    between atoms: C_19  and  N_20
REMARK   12  A    between atoms: C_28  and  C_30
REMARK                            x       y       z     vdW  Elec       q    Type
REMARK                         _______ _______ _______ _____ _____    ______ ____
ROOT
ATOM      1  N   UNL     1      -3.262   0.431   6.995  0.00  0.00    -0.316 N 
ATOM      2  C   UNL     1      -2.618   0.332   5.815  0.00  0.00    +0.231 C 
ATOM      3  O   UNL     1      -1.411   0.223   5.791  0.00  0.00    -0.274 OA
ATOM      4  H   UNL     1      -4.362   0.445   7.022  0.00  0.00    +0.149 HD
ENDROOT
BRANCH   1   5
ATOM      5  C   UNL     1      -2.498   0.522   8.242  0.00  0.00    +0.089 C 
BRANCH   5   6
ATOM      6  C   UNL     1      -3.454   0.449   9.433  0.00  0.00    -0.047 C 
BRANCH   6   7
ATOM      7  N   UNL     1      -4.168  -0.835   9.410  0.00  0.00    +0.382 N 
ATOM      8  H   UNL     1      -4.340  -1.145  10.451  0.00  0.00    -0.081 HD
BRANCH   7  10
ATOM      9  C   UNL     1      -6.438   0.040   9.691  0.00  0.00    -0.017 C 
ATOM     10  C   UNL     1      -5.477  -0.699   8.757  0.00  0.00    -0.082 C 
ENDBRANCH   7  10
BRANCH   7  11
ATOM     11  C   UNL     1      -3.360  -1.875   8.758  0.00  0.00    -0.082 C 
ATOM     12  C   UNL     1      -2.205  -2.275   9.678  0.00  0.00    -0.017 C 
ENDBRANCH   7  11
ENDBRANCH   6   7
BRANCH   6  13
ATOM     13  C   UNL     1      -2.658   0.566  10.734  0.00  0.00    +0.021 C 
BRANCH  13  14
ATOM     14  C   UNL     1      -3.610   0.627  11.902  0.00  0.00    -0.049 A 
ATOM     15  C   UNL     1      -4.160   1.837  12.282  0.00  0.00    +0.003 A 
ATOM     16  C   UNL     1      -5.037   1.892  13.350  0.00  0.00    +0.000 A 
ATOM     17  C   UNL     1      -5.354   0.739  14.043  0.00  0.00    +0.000 A 
ATOM     18  C   UNL     1      -4.800  -0.469  13.666  0.00  0.00    +0.000 A 
ATOM     19  C   UNL     1      -3.927  -0.525  12.595  0.00  0.00    +0.003 A 
ENDBRANCH  13  14
ENDBRANCH   6  13
ENDBRANCH   5   6
ENDBRANCH   1   5
BRANCH   2  20
ATOM     20  C   UNL     1      -3.399   0.356   4.526  0.00  0.00    +0.213 C 
BRANCH  20  21
ATOM     21  N   UNL     1      -2.471   0.359   3.393  0.00  0.00    -0.215 N 
ATOM     22  C   UNL     1      -1.978   1.477   2.820  0.00  0.00    +0.247 C 
ATOM     23  O   UNL     1      -2.209   2.625   3.132  0.00  0.00    -0.273 OA
ATOM     24  C   UNL     1      -1.075   0.996   1.707  0.00  0.00    +0.115 C 
ATOM     25  C   UNL     1      -1.582   1.494   0.358  0.00  0.00    +0.035 C 
ATOM     26  C   UNL     1      -0.674   0.966  -0.756  0.00  0.00    +0.003 C 
ATOM     27  C   UNL     1       0.758   1.451  -0.518  0.00  0.00    +0.000 C 
ATOM     28  C   UNL     1       1.260   0.926   0.829  0.00  0.00    +0.006 C 
ATOM     29  C   UNL     1       0.359   1.454   1.949  0.00  0.00    +0.018 C 
ATOM     30  C   UNL     1       0.848   0.913   3.294  0.00  0.00    +0.010 C 
ATOM     31  N   UNL     1      -1.167  -0.468   1.782  0.00  0.00    -0.285 N 
ATOM     32  C   UNL     1      -2.006  -0.746   2.798  0.00  0.00    +0.310 C 
ATOM     33  O   UNL     1      -2.307  -1.873   3.137  0.00  0.00    -0.252 OA
ATOM     34  H   UNL     1      -0.600  -1.091   1.075  0.00  0.00    +0.151 HD
ENDBRANCH  20  21
ENDBRANCH   2  20
TORSDOF 9
