REMARK  Name = ZINC10902051
REMARK  10 active torsions:
REMARK  status: ('A' for Active; 'I' for Inactive)
REMARK    1  A    between atoms: C_1  and  C_2
REMARK    2  A    between atoms: C_2  and  C_3
REMARK    3  A    between atoms: C_2  and  C_4
REMARK    4  A    between atoms: C_4  and  C_6
REMARK    5  A    between atoms: C_4  and  N_22
REMARK    6  A    between atoms: N_8  and  C_9
REMARK    7  A    between atoms: C_9  and  C_10
REMARK    8  A    between atoms: C_13  and  N_16
REMARK    9  A    between atoms: C_17  and  C_19
REMARK   10  A    between atoms: C_23  and  C_25
REMARK                            x       y       z     vdW  Elec       q    Type
REMARK                         _______ _______ _______ _____ _____    ______ ____
ROOT
ATOM      1  C   UNL     1       2.183   5.106   3.136  0.00  0.00    +0.161 C 
ENDROOT
BRANCH   1   2
ATOM      2  C   UNL     1       1.663   4.908   1.735  0.00  0.00    +0.234 C 
ATOM      3  O   UNL     1       1.009   5.779   1.202  0.00  0.00    -0.274 OA
ATOM      4  N   UNL     1       1.926   3.762   1.075  0.00  0.00    -0.310 N 
ATOM      5  H   UNL     1       2.387   3.037   1.526  0.00  0.00    +0.149 HD
BRANCH   4   6
ATOM      6  C   UNL     1       1.516   3.612  -0.323  0.00  0.00    +0.139 C 
BRANCH   6   7
ATOM      7  C   UNL     1       1.924   2.251  -0.823  0.00  0.00    -0.030 A 
ATOM      8  C   UNL     1       1.059   1.180  -0.695  0.00  0.00    +0.007 A 
ATOM      9  C   UNL     1       1.430  -0.069  -1.152  0.00  0.00    +0.023 A 
ATOM     10  C   UNL     1       2.675  -0.249  -1.741  0.00  0.00    +0.033 A 
ATOM     11  C   UNL     1       3.542   0.828  -1.868  0.00  0.00    +0.023 A 
ATOM     12  C   UNL     1       3.164   2.075  -1.409  0.00  0.00    +0.007 A 
BRANCH  10  13
ATOM     13  N   UNL     1       3.055  -1.514  -2.205  0.00  0.00    -0.285 N 
ATOM     14  C   UNL     1       2.125  -2.362  -2.687  0.00  0.00    +0.220 C 
ATOM     15  O   UNL     1       0.974  -1.997  -2.804  0.00  0.00    -0.275 OA
ATOM     16  H   UNL     1       3.987  -1.780  -2.180  0.00  0.00    +0.155 HD
BRANCH  14  17
ATOM     17  C   UNL     1       2.515  -3.763  -3.081  0.00  0.00    +0.075 C 
ATOM     18  C   UNL     1       2.475  -4.116  -4.569  0.00  0.00    +0.013 C 
ATOM     19  C   UNL     1       1.414  -4.678  -3.621  0.00  0.00    +0.013 C 
ENDBRANCH  14  17
ENDBRANCH  10  13
ENDBRANCH   6   7
ENDBRANCH   4   6
ENDBRANCH   1   2
BRANCH   1  20
ATOM     20  N   UNL     1       2.170   6.534   3.464  0.00  0.00    -0.303 N 
ATOM     21  C   UNL     1       3.012   7.018   4.398  0.00  0.00    +0.220 C 
ATOM     22  O   UNL     1       3.781   6.272   4.967  0.00  0.00    -0.275 OA
ATOM     23  H   UNL     1       1.555   7.130   3.009  0.00  0.00    +0.149 HD
BRANCH  21  24
ATOM     24  C   UNL     1       2.999   8.487   4.735  0.00  0.00    +0.048 C 
ATOM     25  C   UNL     1       1.613   8.880   5.249  0.00  0.00    +0.019 C 
ATOM     26  C   UNL     1       1.599  10.371   5.591  0.00  0.00    -0.009 C 
ATOM     27  C   UNL     1       2.643  10.655   6.673  0.00  0.00    +0.007 C 
ATOM     28  C   UNL     1       4.030  10.262   6.159  0.00  0.00    -0.009 C 
ATOM     29  C   UNL     1       4.043   8.771   5.817  0.00  0.00    +0.019 C 
ATOM     30  C   UNL     1       4.359  11.076   4.906  0.00  0.00    +0.007 C 
ATOM     31  C   UNL     1       3.315  10.792   3.824  0.00  0.00    -0.009 C 
ATOM     32  C   UNL     1       1.929  11.185   4.338  0.00  0.00    +0.007 C 
ATOM     33  C   UNL     1       3.329   9.301   3.482  0.00  0.00    +0.019 C 
ENDBRANCH  21  24
ENDBRANCH   1  20
BRANCH   1  35
ATOM     34  C   UNL     1       1.893   4.438   5.526  0.00  0.00    +0.009 C 
ATOM     35  C   UNL     1       1.291   4.348   4.122  0.00  0.00    +0.012 C 
ATOM     36  C   UNL     1      -0.107   4.969   4.127  0.00  0.00    +0.009 C 
ENDBRANCH   1  35
TORSDOF 8
