REMARK  Name = ZINC14551855
REMARK  5 active torsions:
REMARK  status: ('A' for Active; 'I' for Inactive)
REMARK    1  A    between atoms: C_1  and  S_2
REMARK    2  A    between atoms: S_2  and  C_3
REMARK    3  A    between atoms: C_6  and  C_9
REMARK    4  A    between atoms: C_19  and  N_26
REMARK    5  A    between atoms: C_22  and  O_25
REMARK                            x       y       z     vdW  Elec       q    Type
REMARK                         _______ _______ _______ _____ _____    ______ ____
ROOT
ATOM      1  C   UNL     1       2.973  -1.388   5.137  0.00  0.00    +0.105 C 
ATOM      2  C   UNL     1       4.404  -1.754   4.785  0.00  0.00    +0.029 C 
ATOM      3  C   UNL     1       5.314  -0.622   4.288  0.00  0.00    +0.033 C 
ATOM      4  C   UNL     1       6.689  -1.107   4.752  0.00  0.00    -0.030 C 
ATOM      5  C   UNL     1       6.557  -1.910   5.801  0.00  0.00    -0.023 C 
ATOM      6  C   UNL     1       5.108  -2.034   6.146  0.00  0.00    +0.051 C 
ATOM      7  C   UNL     1       4.519  -3.266   6.715  0.00  0.00    +0.014 A 
ATOM      8  C   UNL     1       5.261  -4.173   7.443  0.00  0.00    +0.132 A 
ATOM      9  C   UNL     1       4.665  -5.304   7.968  0.00  0.00    +0.037 A 
ATOM     10  C   UNL     1       3.315  -5.532   7.765  0.00  0.00    +0.049 A 
ATOM     11  C   UNL     1       2.562  -4.631   7.033  0.00  0.00    +0.138 A 
ATOM     12  C   UNL     1       3.158  -3.492   6.495  0.00  0.00    +0.076 A 
ATOM     13  N   UNL     1       2.381  -2.609   5.727  0.00  0.00    -0.334 N 
ATOM     14  H   UNL     1       1.442  -2.803   5.580  0.00  0.00    +0.147 HD
ENDROOT
BRANCH   1  18
ATOM     15  C   UNL     1       0.828  -0.262   1.615  0.00  0.00    +0.008 A 
ATOM     16  C   UNL     1       1.300   0.714   2.485  0.00  0.00    +0.015 A 
ATOM     17  C   UNL     1       1.993   0.346   3.622  0.00  0.00    +0.006 A 
ATOM     18  C   UNL     1       2.217  -0.991   3.895  0.00  0.00    -0.027 A 
ATOM     19  C   UNL     1       1.748  -1.965   3.032  0.00  0.00    +0.006 A 
ATOM     20  C   UNL     1       1.049  -1.605   1.897  0.00  0.00    +0.015 A 
BRANCH  15  22
ATOM     21  C   UNL     1      -0.090   2.015   0.231  0.00  0.00    +0.090 C 
ATOM     22  S   UNL     1      -0.057   0.202   0.164  0.00  0.00    -0.129 S 
ENDBRANCH  15  22
ENDBRANCH   1  18
BRANCH   8  23
ATOM     23  N   UNL     1       6.705  -3.934   7.663  0.00  0.00    +0.057 N 
ATOM     24  O   UNL     1       7.510  -4.790   7.378  0.00  0.00    -0.126 OA
ATOM     25  O   UNL     1       7.080  -2.883   8.129  0.00  0.00    -0.126 OA
ENDBRANCH   8  23
BRANCH  11  26
ATOM     26  O   UNL     1       1.236  -4.859   6.838  0.00  0.00    -0.505 OA
ATOM     27  H   UNL     1       0.667  -4.479   7.521  0.00  0.00    +0.292 HD
ENDBRANCH  11  26
TORSDOF 4
