REMARK  Name = ZINC37316724
REMARK  7 active torsions:
REMARK  status: ('A' for Active; 'I' for Inactive)
REMARK    1  A    between atoms: C_1  and  C_2
REMARK    2  A    between atoms: C_2  and  C_4
REMARK    3  A    between atoms: C_2  and  N_10
REMARK    4  A    between atoms: N_10  and  C_11
REMARK    5  A    between atoms: C_14  and  S_17
REMARK    6  A    between atoms: S_17  and  N_20
REMARK    7  A    between atoms: N_20  and  C_21
REMARK                            x       y       z     vdW  Elec       q    Type
REMARK                         _______ _______ _______ _____ _____    ______ ____
ROOT
ATOM      1  C   UNL     1       2.103  -0.604   1.173  0.00  0.00    +0.027 A 
ATOM      2  C   UNL     1       2.817  -0.253   0.035  0.00  0.00    +0.025 A 
ATOM      3  C   UNL     1       4.193  -0.366   0.023  0.00  0.00    +0.030 A 
ATOM      4  C   UNL     1       4.860  -0.830   1.142  0.00  0.00    +0.105 A 
ATOM      5  C   UNL     1       4.152  -1.181   2.277  0.00  0.00    +0.030 A 
ATOM      6  C   UNL     1       2.776  -1.064   2.298  0.00  0.00    +0.025 A 
ENDROOT
BRANCH   4   7
ATOM      7  S   UNL     1       6.616  -0.975   1.122  0.00  0.00    +0.058 S 
ATOM      8  O   UNL     1       6.955  -1.947   2.101  0.00  0.00    -0.153 OA
ATOM      9  O   UNL     1       6.998  -1.102  -0.241  0.00  0.00    -0.153 OA
BRANCH   7  10
ATOM     10  N   UNL     1       7.232   0.467   1.654  0.00  0.00    -0.193 NA
ATOM     11  C   UNL     1       6.988   0.905   3.030  0.00  0.00    +0.127 C 
ATOM     12  H   UNL     1       7.756   1.022   1.054  0.00  0.00    +0.148 HD
ENDBRANCH   7  10
ENDBRANCH   4   7
BRANCH   1  13
ATOM     13  N   UNL     1       0.711  -0.489   1.189  0.00  0.00    -0.341 N 
ATOM     14  H   UNL     1       0.213  -0.731   1.986  0.00  0.00    +0.146 HD
BRANCH  13  16
ATOM     15  C   UNL     1      -0.019   1.526   0.010  0.00  0.00    +0.028 C 
ATOM     16  C   UNL     1       0.002  -0.004   0.002  0.00  0.00    +0.070 C 
BRANCH  16  17
ATOM     17  C   UNL     1      -1.433  -0.534   0.013  0.00  0.00    +0.009 C 
ATOM     18  C   UNL     1      -1.413  -2.063   0.004  0.00  0.00    +0.005 C 
ATOM     19  C   UNL     1      -2.848  -2.593   0.015  0.00  0.00    +0.000 C 
ATOM     20  C   UNL     1      -3.588  -2.086  -1.224  0.00  0.00    +0.000 C 
ATOM     21  C   UNL     1      -3.609  -0.556  -1.216  0.00  0.00    +0.000 C 
ATOM     22  C   UNL     1      -2.173  -0.027  -1.227  0.00  0.00    +0.005 C 
ENDBRANCH  16  17
ENDBRANCH  13  16
ENDBRANCH   1  13
TORSDOF 5
