REMARK  Name = ZINC43758561
REMARK  14 active torsions:
REMARK  status: ('A' for Active; 'I' for Inactive)
REMARK    1  A    between atoms: C_1  and  C_2
REMARK    2  A    between atoms: C_2  and  C_4
REMARK    3  A    between atoms: C_2  and  C_12
REMARK    4  A    between atoms: C_5  and  C_6
REMARK    5  A    between atoms: C_6  and  C_8
REMARK    6  A    between atoms: C_6  and  C_9
REMARK    7  A    between atoms: C_9  and  C_10
REMARK    8  A    between atoms: C_9  and  C_11
REMARK    9  A    between atoms: C_17  and  C_37
REMARK   10  A    between atoms: C_24  and  O_36
REMARK   11  A    between atoms: C_25  and  C_35
REMARK   12  A    between atoms: C_28  and  O_31
REMARK   13  A    between atoms: O_31  and  C_32
REMARK   14  A    between atoms: C_32  and  C_34
REMARK                            x       y       z     vdW  Elec       q    Type
REMARK                         _______ _______ _______ _____ _____    ______ ____
ROOT
ATOM      1  C   UNL     1       0.753  -0.599  -1.192  0.00  0.00    +0.010 C 
ATOM      2  C   UNL     1       0.075  -0.204  -2.526  0.00  0.00    +0.032 C 
ATOM      3  C   UNL     1      -0.883  -1.337  -2.821  0.00  0.00    -0.022 C 
ATOM      4  C   UNL     1      -0.574  -2.403  -2.108  0.00  0.00    -0.042 C 
ATOM      5  C   UNL     1       0.620  -2.134  -1.218  0.00  0.00    -0.003 C 
ATOM      6  C   UNL     1       0.334  -2.686   0.163  0.00  0.00    +0.016 C 
ATOM      7  C   UNL     1      -0.346  -4.021   0.187  0.00  0.00    +0.032 C 
ATOM      8  C   UNL     1      -1.144  -4.453  -1.006  0.00  0.00    -0.057 C 
ATOM      9  C   UNL     1      -1.273  -3.710  -2.095  0.00  0.00    -0.044 C 
ATOM     10  C   UNL     1      -2.056  -4.095  -3.317  0.00  0.00    +0.038 C 
ATOM     11  C   UNL     1      -2.979  -5.279  -3.031  0.00  0.00    +0.040 C 
ATOM     12  C   UNL     1      -2.155  -6.338  -2.291  0.00  0.00    +0.079 C 
ATOM     13  C   UNL     1      -1.825  -5.806  -0.899  0.00  0.00    +0.018 C 
ATOM     14  C   UNL     1      -3.113  -5.629  -0.090  0.00  0.00    +0.017 C 
ATOM     15  C   UNL     1      -3.851  -6.964   0.009  0.00  0.00    +0.046 C 
ATOM     16  C   UNL     1      -4.212  -7.447  -1.398  0.00  0.00    +0.179 C 
ATOM     17  C   UNL     1      -2.930  -7.648  -2.205  0.00  0.00    +0.080 C 
ATOM     18  C   UNL     1      -0.899  -6.789  -0.180  0.00  0.00    +0.019 C 
ATOM     19  C   UNL     1       1.881  -2.768  -1.810  0.00  0.00    +0.016 C 
ENDROOT
BRANCH   1  21
ATOM     20  C   UNL     1      -1.499  -0.244  -0.169  0.00  0.00    +0.012 C 
ATOM     21  C   UNL     1       0.003  -0.005   0.002  0.00  0.00    +0.013 C 
BRANCH  21  22
ATOM     22  C   UNL     1       0.270   1.476   0.076  0.00  0.00    -0.027 C 
ATOM     23  C   UNL     1       0.923   1.974   1.097  0.00  0.00    -0.027 C 
BRANCH  23  24
ATOM     24  C   UNL     1       1.290   3.435   1.118  0.00  0.00    +0.011 C 
ATOM     25  C   UNL     1       2.811   3.578   1.204  0.00  0.00    +0.012 C 
BRANCH  24  26
ATOM     26  C   UNL     1       0.645   4.106   2.332  0.00  0.00    -0.011 C 
ATOM     27  C   UNL     1       1.017   5.590   2.353  0.00  0.00    +0.008 C 
ATOM     28  C   UNL     1      -0.876   3.963   2.246  0.00  0.00    +0.008 C 
ENDBRANCH  24  26
ENDBRANCH  23  24
ENDBRANCH  21  22
ENDBRANCH   1  21
BRANCH  12  29
ATOM     29  O   UNL     1      -0.931  -6.560  -2.994  0.00  0.00    -0.388 OA
ATOM     30  H   UNL     1      -1.050  -6.871  -3.902  0.00  0.00    +0.210 HD
ENDBRANCH  12  29
BRANCH  16  31
ATOM     31  O   UNL     1      -4.924  -8.682  -1.311  0.00  0.00    -0.461 OA
BRANCH  31  32
ATOM     32  C   UNL     1      -6.261  -8.609  -1.215  0.00  0.00    +0.304 C 
ATOM     33  O   UNL     1      -6.808  -7.532  -1.204  0.00  0.00    -0.251 OA
ATOM     34  C   UNL     1      -7.080  -9.871  -1.119  0.00  0.00    +0.136 C 
ENDBRANCH  31  32
ENDBRANCH  16  31
TORSDOF 7
