REMARK  Name = ZINC20575694
REMARK  7 active torsions:
REMARK  status: ('A' for Active; 'I' for Inactive)
REMARK    1  A    between atoms: C_1  and  C_2
REMARK    2  A    between atoms: C_5  and  C_8
REMARK    3  A    between atoms: C_8  and  N_9
REMARK    4  A    between atoms: C_18  and  N_19
REMARK    5  A    between atoms: N_19  and  C_20
REMARK    6  A    between atoms: C_24  and  C_27
REMARK    7  A    between atoms: C_25  and  C_26
REMARK                            x       y       z     vdW  Elec       q    Type
REMARK                         _______ _______ _______ _____ _____    ______ ____
ROOT
ATOM      1  N   UNL     1      -1.161   1.991   0.526  0.00  0.00    -0.197 N 
ATOM      2  C   UNL     1       0.003   1.301   0.114  0.00  0.00    +0.070 A 
ATOM      3  C   UNL     1       1.249   1.911   0.009  0.00  0.00    +0.033 A 
ATOM      4  C   UNL     1       2.327   1.187  -0.373  0.00  0.00    +0.048 A 
ATOM      5  S   UNL     1       1.677  -0.403  -0.618  0.00  0.00    -0.091 S 
ATOM      6  C   UNL     1      -0.013  -0.056  -0.207  0.00  0.00    +0.083 A 
ATOM      7  C   UNL     1      -1.145  -0.970  -0.214  0.00  0.00    +0.222 C 
ATOM      8  O   UNL     1      -1.074  -2.095  -0.682  0.00  0.00    -0.285 OA
ATOM      9  C   UNL     1      -2.394  -0.438   0.391  0.00  0.00    +0.170 C 
ATOM     10  C   UNL     1      -3.270  -1.215   1.059  0.00  0.00    +0.105 C 
ATOM     11  S   UNL     1      -2.636   1.308   0.161  0.00  0.00    +0.080 S 
ATOM     12  O   UNL     1      -2.859   1.517  -1.227  0.00  0.00    -0.150 OA
ATOM     13  O   UNL     1      -3.552   1.735   1.160  0.00  0.00    -0.150 OA
ENDROOT
BRANCH  10  14
ATOM     14  N   UNL     1      -4.466  -0.695   1.477  0.00  0.00    -0.319 N 
ATOM     15  H   UNL     1      -4.764   0.318   1.166  0.00  0.00    +0.152 HD
BRANCH  14  16
ATOM     16  C   UNL     1      -5.308  -1.450   2.298  0.00  0.00    +0.034 A 
ATOM     17  C   UNL     1      -4.936  -2.731   2.686  0.00  0.00    +0.023 A 
ATOM     18  C   UNL     1      -5.768  -3.472   3.502  0.00  0.00    +0.002 A 
ATOM     19  C   UNL     1      -6.975  -2.946   3.923  0.00  0.00    +0.004 A 
ATOM     20  C   UNL     1      -7.351  -1.673   3.533  0.00  0.00    -0.046 A 
ATOM     21  C   UNL     1      -6.522  -0.924   2.722  0.00  0.00    -0.026 A 
ATOM     22  C   UNL     1      -6.933   0.463   2.298  0.00  0.00    +0.046 C 
ATOM     23  C   UNL     1      -8.668  -1.104   3.994  0.00  0.00    +0.044 C 
ENDBRANCH  14  16
ENDBRANCH  10  14
BRANCH   1  24
ATOM     24  C   UNL     1      -1.073   3.263   1.247  0.00  0.00    +0.166 C 
BRANCH  24  29
ATOM     25  C   UNL     1      -0.470   2.234   6.901  0.00  0.00    +0.044 C 
ATOM     26  C   UNL     1      -0.628   2.502   5.427  0.00  0.00    -0.050 A 
ATOM     27  C   UNL     1       0.485   2.528   4.606  0.00  0.00    +0.003 A 
ATOM     28  C   UNL     1       0.340   2.774   3.254  0.00  0.00    +0.005 A 
ATOM     29  C   UNL     1      -0.916   2.994   2.722  0.00  0.00    -0.028 A 
ATOM     30  C   UNL     1      -2.028   2.974   3.543  0.00  0.00    +0.005 A 
ATOM     31  C   UNL     1      -1.884   2.722   4.894  0.00  0.00    +0.003 A 
ENDBRANCH  24  29
ENDBRANCH   1  24
TORSDOF 4
