REMARK  Name = ZINC40149629
REMARK  14 active torsions:
REMARK  status: ('A' for Active; 'I' for Inactive)
REMARK    1  A    between atoms: C_1  and  C_2
REMARK    2  A    between atoms: C_2  and  C_4
REMARK    3  A    between atoms: C_2  and  N_15
REMARK    4  A    between atoms: N_6  and  C_7
REMARK    5  A    between atoms: N_11  and  C_12
REMARK    6  A    between atoms: C_12  and  C_13
REMARK    7  A    between atoms: C_12  and  C_14
REMARK    8  A    between atoms: C_19  and  N_22
REMARK    9  A    between atoms: C_23  and  C_25
REMARK   10  A    between atoms: C_32  and  O_34
REMARK   11  A    between atoms: O_34  and  C_35
REMARK   12  A    between atoms: C_35  and  C_36
REMARK   13  A    between atoms: C_35  and  C_37
REMARK   14  A    between atoms: C_35  and  C_38
REMARK                            x       y       z     vdW  Elec       q    Type
REMARK                         _______ _______ _______ _____ _____    ______ ____
ROOT
ATOM      1  N   UNL     1       0.019  -0.916  -1.150  0.00  0.00    +0.388 N 
ATOM      2  C   UNL     1      -0.711  -0.304  -2.267  0.00  0.00    -0.078 C 
ATOM      3  C   UNL     1      -0.627  -1.213  -3.495  0.00  0.00    -0.017 C 
ATOM      4  C   UNL     1      -1.249  -2.572  -3.160  0.00  0.00    +0.018 C 
ATOM      5  C   UNL     1      -0.528  -3.167  -1.947  0.00  0.00    +0.056 C 
ATOM      6  C   UNL     1      -0.615  -2.186  -0.776  0.00  0.00    -0.055 C 
ATOM      7  H   UNL     1       0.974  -1.087  -1.428  0.00  0.00    -0.081 HD
ENDROOT
BRANCH   5   8
ATOM      8  N   UNL     1      -1.163  -4.433  -1.573  0.00  0.00    -0.314 N 
ATOM      9  C   UNL     1      -0.799  -5.577  -2.187  0.00  0.00    +0.218 C 
ATOM     10  O   UNL     1       0.054  -5.558  -3.049  0.00  0.00    -0.275 OA
ATOM     11  H   UNL     1      -1.845  -4.449  -0.883  0.00  0.00    +0.149 HD
BRANCH   9  12
ATOM     12  C   UNL     1      -1.452  -6.879  -1.802  0.00  0.00    +0.092 C 
ATOM     13  C   UNL     1      -0.865  -8.014  -2.644  0.00  0.00    +0.016 C 
ATOM     14  C   UNL     1      -1.504  -9.342  -2.232  0.00  0.00    +0.020 C 
ATOM     15  C   UNL     1      -3.013  -9.280  -2.490  0.00  0.00    +0.111 C 
ATOM     16  N   UNL     1      -3.562  -8.105  -1.800  0.00  0.00    -0.267 N 
ATOM     17  C   UNL     1      -2.961  -6.789  -2.055  0.00  0.00    +0.123 C 
ATOM     18  C   UNL     1      -4.600  -8.232  -0.948  0.00  0.00    +0.403 C 
ATOM     19  O   UNL     1      -5.045  -7.253  -0.384  0.00  0.00    -0.226 OA
BRANCH  18  20
ATOM     20  O   UNL     1      -5.142  -9.444  -0.723  0.00  0.00    -0.445 OA
BRANCH  20  21
ATOM     21  C   UNL     1      -6.238  -9.504   0.191  0.00  0.00    +0.107 C 
ATOM     22  C   UNL     1      -7.383  -8.632  -0.327  0.00  0.00    +0.055 C 
ATOM     23  C   UNL     1      -6.717 -10.952   0.317  0.00  0.00    +0.055 C 
ATOM     24  C   UNL     1      -5.788  -8.995   1.562  0.00  0.00    +0.055 C 
ENDBRANCH  20  21
ENDBRANCH  18  20
ENDBRANCH   9  12
ENDBRANCH   5   8
BRANCH   1  26
ATOM     25  C   UNL     1       0.628   1.334  -0.397  0.00  0.00    -0.004 C 
ATOM     26  C   UNL     1       0.002  -0.004   0.002  0.00  0.00    +0.017 C 
BRANCH  26  27
ATOM     27  C   UNL     1       0.791  -0.610   1.134  0.00  0.00    +0.204 C 
ATOM     28  O   UNL     1       1.690  -1.389   0.898  0.00  0.00    -0.277 OA
ATOM     29  N   UNL     1       0.496  -0.287   2.409  0.00  0.00    -0.272 N 
ATOM     30  H   UNL     1      -0.223   0.335   2.598  0.00  0.00    +0.156 HD
BRANCH  29  31
ATOM     31  C   UNL     1       1.226  -0.849   3.457  0.00  0.00    +0.123 A 
ATOM     32  C   UNL     1       2.260  -1.726   3.337  0.00  0.00    +0.065 A 
ATOM     33  C   UNL     1       2.708  -2.037   4.624  0.00  0.00    +0.136 A 
ATOM     34  N   UNL     1       1.978  -1.375   5.485  0.00  0.00    -0.178 NA
ATOM     35  N   UNL     1       1.040  -0.615   4.776  0.00  0.00    -0.248 N 
BRANCH  35  36
ATOM     36  C   UNL     1       0.032   0.274   5.360  0.00  0.00    +0.103 C 
ATOM     37  C   UNL     1      -0.889  -0.532   6.278  0.00  0.00    +0.032 C 
ATOM     38  C   UNL     1       0.728   1.371   6.169  0.00  0.00    +0.032 C 
ENDBRANCH  35  36
ENDBRANCH  29  31
ENDBRANCH  26  27
ENDBRANCH   1  26
TORSDOF 8
