REMARK  Name = ZINC63584641
REMARK  9 active torsions:
REMARK  status: ('A' for Active; 'I' for Inactive)
REMARK    1  A    between atoms: C_1  and  N_2
REMARK    2  A    between atoms: N_2  and  C_3
REMARK    3  A    between atoms: N_2  and  C_30
REMARK    4  A    between atoms: C_3  and  C_4
REMARK    5  A    between atoms: C_4  and  C_5
REMARK    6  A    between atoms: C_5  and  N_6
REMARK    7  A    between atoms: N_6  and  C_7
REMARK    8  A    between atoms: C_7  and  C_8
REMARK    9  A    between atoms: N_21  and  C_24
REMARK                            x       y       z     vdW  Elec       q    Type
REMARK                         _______ _______ _______ _____ _____    ______ ____
ROOT
ATOM      1  C   UNL     1       6.528  -0.193   3.356  0.00  0.00    +0.039 A 
ATOM      2  C   UNL     1       7.063   0.909   3.918  0.00  0.00    +0.024 A 
ATOM      3  C   UNL     1       8.434   0.928   3.591  0.00  0.00    +0.020 A 
ATOM      4  C   UNL     1       8.686  -0.164   2.840  0.00  0.00    +0.093 A 
ATOM      5  N   UNL     1       7.520  -0.860   2.695  0.00  0.00    -0.297 N 
ATOM      6  C   UNL     1       7.368  -2.054   1.988  0.00  0.00    +0.202 A 
ATOM      7  N   UNL     1       6.288  -2.791   1.786  0.00  0.00    -0.121 NA
ATOM      8  N   UNL     1       6.322  -3.857   1.113  0.00  0.00    -0.124 NA
ATOM      9  C   UNL     1       7.443  -4.305   0.567  0.00  0.00    +0.186 A 
ATOM     10  S   UNL     1       8.577  -3.021   1.088  0.00  0.00    -0.013 S 
ATOM     11  N   UNL     1       7.671  -5.441  -0.197  0.00  0.00    -0.305 N 
ATOM     12  C   UNL     1       9.018  -5.746  -0.700  0.00  0.00    +0.126 C 
ATOM     13  C   UNL     1       9.407  -7.155  -0.236  0.00  0.00    +0.124 C 
ATOM     14  N   UNL     1       8.307  -8.076  -0.555  0.00  0.00    -0.327 N 
ATOM     15  C   UNL     1       6.960  -7.771  -0.052  0.00  0.00    +0.124 C 
ATOM     16  C   UNL     1       6.572  -6.365  -0.511  0.00  0.00    +0.126 C 
ENDROOT
BRANCH  14  17
ATOM     17  C   UNL     1       8.537  -9.219  -1.323  0.00  0.00    +0.030 A 
ATOM     18  C   UNL     1       9.786  -9.438  -1.890  0.00  0.00    +0.023 A 
ATOM     19  C   UNL     1      10.010 -10.570  -2.648  0.00  0.00    +0.002 A 
ATOM     20  C   UNL     1       8.992 -11.485  -2.844  0.00  0.00    +0.000 A 
ATOM     21  C   UNL     1       7.747 -11.271  -2.281  0.00  0.00    +0.002 A 
ATOM     22  C   UNL     1       7.518 -10.144  -1.517  0.00  0.00    +0.023 A 
ENDBRANCH  14  17
BRANCH   1  23
ATOM     23  C   UNL     1       5.085  -0.619   3.445  0.00  0.00    +0.135 C 
BRANCH  23  24
ATOM     24  N   UNL     1       4.359  -0.140   2.261  0.00  0.00    -0.311 NA
ATOM     25  H   UNL     1       4.795  -0.468   1.412  0.00  0.00    +0.122 HD
BRANCH  24  26
ATOM     26  C   UNL     1       2.946  -0.537   2.314  0.00  0.00    +0.079 C 
BRANCH  26  27
ATOM     27  C   UNL     1       2.224  -0.022   1.067  0.00  0.00    -0.003 C 
BRANCH  27  28
ATOM     28  C   UNL     1       0.752  -0.436   1.122  0.00  0.00    -0.078 C 
BRANCH  28  30
ATOM     29  C   UNL     1       0.051   1.528  -0.064  0.00  0.00    -0.096 C 
ATOM     30  N   UNL     1       0.059   0.059  -0.075  0.00  0.00    +0.380 N 
ATOM     31  H   UNL     1       0.538  -0.268  -0.900  0.00  0.00    -0.082 HD
BRANCH  30  32
ATOM     32  C   UNL     1      -1.323  -0.439  -0.082  0.00  0.00    -0.069 C 
ATOM     33  C   UNL     1      -1.314  -1.968  -0.093  0.00  0.00    -0.015 C 
ATOM     34  C   UNL     1      -2.753  -2.487  -0.101  0.00  0.00    -0.002 C 
ATOM     35  C   UNL     1      -3.475  -1.972  -1.347  0.00  0.00    -0.000 C 
ATOM     36  C   UNL     1      -3.484  -0.442  -1.335  0.00  0.00    -0.002 C 
ATOM     37  C   UNL     1      -2.045   0.077  -1.329  0.00  0.00    -0.015 C 
ENDBRANCH  30  32
ENDBRANCH  28  30
ENDBRANCH  27  28
ENDBRANCH  26  27
ENDBRANCH  24  26
ENDBRANCH  23  24
ENDBRANCH   1  23
TORSDOF 8
