REMARK  Name = ZINC26171962
REMARK  13 active torsions:
REMARK  status: ('A' for Active; 'I' for Inactive)
REMARK    1  A    between atoms: C_1  and  C_2
REMARK    2  A    between atoms: C_9  and  N_17
REMARK    3  A    between atoms: C_10  and  C_11
REMARK    4  A    between atoms: C_11  and  O_13
REMARK    5  A    between atoms: O_13  and  C_14
REMARK    6  A    between atoms: C_14  and  C_15
REMARK    7  A    between atoms: C_14  and  C_16
REMARK    8  A    between atoms: C_18  and  C_20
REMARK    9  A    between atoms: C_20  and  C_22
REMARK   10  A    between atoms: C_20  and  N_23
REMARK   11  A    between atoms: N_23  and  C_24
REMARK   12  A    between atoms: N_23  and  C_25
REMARK   13  A    between atoms: C_25  and  C_26
REMARK                            x       y       z     vdW  Elec       q    Type
REMARK                         _______ _______ _______ _____ _____    ______ ____
ROOT
ATOM      1  N   UNL     1       1.940  -5.826   1.701  0.00  0.00    -0.278 N 
ATOM      2  C   UNL     1       2.250  -6.085   2.987  0.00  0.00    +0.235 C 
ATOM      3  O   UNL     1       2.229  -5.192   3.808  0.00  0.00    -0.274 OA
ATOM      4  H   UNL     1       1.957  -6.540   1.045  0.00  0.00    +0.155 HD
ENDROOT
BRANCH   1  12
ATOM      5  C   UNL     1      -0.019   1.526   0.010  0.00  0.00    +0.008 C 
ATOM      6  C   UNL     1       0.002  -0.004   0.002  0.00  0.00    -0.009 C 
ATOM      7  C   UNL     1       0.724  -0.500  -1.254  0.00  0.00    +0.008 C 
ATOM      8  C   UNL     1       0.537  -2.012  -1.399  0.00  0.00    +0.037 C 
ATOM      9  C   UNL     1       0.935  -2.680  -0.091  0.00  0.00    -0.021 A 
ATOM     10  C   UNL     1       1.020  -1.977   1.059  0.00  0.00    -0.004 A 
ATOM     11  S   UNL     1       1.507  -3.164   2.276  0.00  0.00    -0.077 S 
ATOM     12  C   UNL     1       1.598  -4.539   1.316  0.00  0.00    +0.086 A 
ATOM     13  C   UNL     1       1.254  -4.091   0.050  0.00  0.00    +0.091 A 
ATOM     14  C   UNL     1       0.750  -0.515   1.242  0.00  0.00    +0.046 C 
BRANCH  13  15
ATOM     15  C   UNL     1       1.213  -5.001  -1.097  0.00  0.00    +0.342 C 
ATOM     16  O   UNL     1       2.208  -5.170  -1.774  0.00  0.00    -0.245 OA
BRANCH  15  17
ATOM     17  O   UNL     1       0.071  -5.651  -1.401  0.00  0.00    -0.458 OA
BRANCH  17  18
ATOM     18  C   UNL     1       0.103  -6.523  -2.533  0.00  0.00    +0.171 C 
ATOM     19  C   UNL     1      -0.890  -7.668  -2.323  0.00  0.00    +0.052 C 
ATOM     20  C   UNL     1      -0.281  -5.740  -3.791  0.00  0.00    +0.052 C 
ENDBRANCH  17  18
ENDBRANCH  15  17
ENDBRANCH  13  15
ENDBRANCH   1  12
BRANCH   2  21
ATOM     21  C   UNL     1       2.621  -7.484   3.406  0.00  0.00    +0.140 C 
ATOM     22  C   UNL     1       1.458  -8.432   3.108  0.00  0.00    +0.034 C 
BRANCH  21  23
ATOM     23  N   UNL     1       2.912  -7.504   4.845  0.00  0.00    -0.288 NA
ATOM     24  C   UNL     1       1.705  -7.213   5.630  0.00  0.00    +0.106 C 
BRANCH  23  25
ATOM     25  C   UNL     1       3.504  -8.787   5.245  0.00  0.00    +0.159 C 
BRANCH  25  26
ATOM     26  C   UNL     1       4.012  -8.687   6.661  0.00  0.00    +0.125 A 
ATOM     27  N   UNL     1       4.603  -9.779   7.212  0.00  0.00    -0.309 N 
ATOM     28  H   UNL     1       4.687 -10.594   6.693  0.00  0.00    +0.170 HD
ATOM     29  C   UNL     1       5.077  -9.740   8.480  0.00  0.00    +0.259 A 
ATOM     30  O   UNL     1       5.609 -10.710   8.986  0.00  0.00    -0.267 OA
ATOM     31  C   UNL     1       4.924  -8.479   9.221  0.00  0.00    +0.065 A 
ATOM     32  C   UNL     1       5.376  -8.334  10.530  0.00  0.00    +0.015 A 
ATOM     33  C   UNL     1       5.207  -7.130  11.178  0.00  0.00    +0.001 A 
ATOM     34  C   UNL     1       4.590  -6.064  10.537  0.00  0.00    +0.002 A 
ATOM     35  C   UNL     1       4.136  -6.186   9.243  0.00  0.00    +0.028 A 
ATOM     36  C   UNL     1       4.296  -7.396   8.565  0.00  0.00    +0.078 A 
ATOM     37  N   UNL     1       3.868  -7.559   7.288  0.00  0.00    -0.232 NA
ENDBRANCH  25  26
ENDBRANCH  23  25
ENDBRANCH  21  23
ENDBRANCH   2  21
TORSDOF 8
