REMARK  Name = ZINC02104677
REMARK  8 active torsions:
REMARK  status: ('A' for Active; 'I' for Inactive)
REMARK    1  A    between atoms: C_1  and  C_2
REMARK    2  A    between atoms: C_3  and  O_17
REMARK    3  A    between atoms: O_17  and  C_18
REMARK    4  A    between atoms: C_18  and  C_20
REMARK    5  A    between atoms: C_18  and  C_21
REMARK    6  A    between atoms: N_23  and  CA_24
REMARK    7  A    between atoms: CA_24  and  C_26
REMARK    8  A    between atoms: CA_24  and  C_32
REMARK                            x       y       z     vdW  Elec       q    Type
REMARK                         _______ _______ _______ _____ _____    ______ ____
ROOT
ATOM      1  O   UNL     1      -0.010  -0.006  -2.370  0.00  0.00    -0.480 OA
ENDROOT
BRANCH   1   4
ATOM      2  C   UNL     1      -0.004   1.467   0.033  0.00  0.00    +0.051 C 
ATOM      3  C   UNL     1      -0.219  -0.024  -0.007  0.00  0.00    +0.034 A 
ATOM      4  C   UNL     1      -0.211  -0.696  -1.219  0.00  0.00    +0.128 A 
ATOM      5  C   UNL     1      -0.408  -2.075  -1.266  0.00  0.00    +0.047 A 
ATOM      6  C   UNL     1      -0.613  -2.784  -0.117  0.00  0.00    +0.015 A 
ATOM      7  C   UNL     1      -0.624  -2.120   1.115  0.00  0.00    +0.022 A 
ATOM      8  C   UNL     1      -0.419  -0.730   1.169  0.00  0.00    +0.146 A 
ATOM      9  O   UNL     1      -0.428  -0.100   2.363  0.00  0.00    -0.422 OA
ATOM     10  C   UNL     1      -0.610  -0.775   3.505  0.00  0.00    +0.341 A 
ATOM     11  O   UNL     1      -0.599  -0.165   4.559  0.00  0.00    -0.245 OA
ATOM     12  C   UNL     1      -0.817  -2.177   3.528  0.00  0.00    +0.041 A 
ATOM     13  C   UNL     1      -0.843  -2.862   2.364  0.00  0.00    -0.027 A 
ATOM     14  C   UNL     1      -1.073  -4.346   2.287  0.00  0.00    +0.036 C 
ATOM     15  C   UNL     1      -0.852  -4.997   3.651  0.00  0.00    +0.005 C 
ATOM     16  C   UNL     1      -1.663  -4.218   4.693  0.00  0.00    +0.005 C 
ATOM     17  C   UNL     1      -1.005  -2.842   4.866  0.00  0.00    +0.042 C 
ENDBRANCH   1   4
BRANCH   1  18
ATOM     18  C   UNL     1       0.106  -0.769  -3.573  0.00  0.00    +0.255 C 
ATOM     19  C   UNL     1      -1.290  -1.063  -4.126  0.00  0.00    +0.062 C 
BRANCH  18  20
ATOM     20  C   UNL     1       0.894   0.013  -4.591  0.00  0.00    +0.254 C 
ATOM     21  O   UNL     1       1.317   1.116  -4.314  0.00  0.00    -0.272 OA
ATOM     22  N   UNL     1       1.131  -0.512  -5.809  0.00  0.00    -0.296 N 
ATOM     23  H   UNL     1       0.794  -1.394  -6.031  0.00  0.00    +0.150 HD
BRANCH  22  24
ATOM     24  CA  UNL     1       1.898   0.249  -6.799  0.00  0.00    +0.217 C 
BRANCH  24  25
ATOM     25  C   UNL     1       2.541  -0.702  -7.775  0.00  0.00    -0.016 A 
ATOM     26  C   UNL     1       1.840  -1.804  -8.231  0.00  0.00    +0.006 A 
ATOM     27  C   UNL     1       2.430  -2.676  -9.127  0.00  0.00    +0.000 A 
ATOM     28  C   UNL     1       3.720  -2.447  -9.567  0.00  0.00    +0.000 A 
ATOM     29  C   UNL     1       4.420  -1.345  -9.112  0.00  0.00    +0.000 A 
ATOM     30  C   UNL     1       3.829  -0.470  -8.220  0.00  0.00    +0.006 A 
ENDBRANCH  24  25
BRANCH  24  31
ATOM     31  C   UNL     1       0.976   1.182  -7.540  0.00  0.00    +0.380 C 
ATOM     32  O   UNL     1       1.399   2.239  -7.976  0.00  0.00    -0.244 OA
ATOM     33  OXT UNL     1      -0.194   0.880  -7.703  0.00  0.00    -0.244 OA
ENDBRANCH  24  31
ENDBRANCH  22  24
ENDBRANCH  18  20
ENDBRANCH   1  18
TORSDOF 6
