REMARK  Name = ZINC62038812
REMARK  8 active torsions:
REMARK  status: ('A' for Active; 'I' for Inactive)
REMARK    1  A    between atoms: C_1  and  C_2
REMARK    2  A    between atoms: C_14  and  S_16
REMARK    3  A    between atoms: S_16  and  C_17
REMARK    4  A    between atoms: C_17  and  C_19
REMARK    5  A    between atoms: C_17  and  C_20
REMARK    6  A    between atoms: N_22  and  C_23
REMARK    7  A    between atoms: C_25  and  C_30
REMARK    8  A    between atoms: C_28  and  O_29
REMARK                            x       y       z     vdW  Elec       q    Type
REMARK                         _______ _______ _______ _____ _____    ______ ____
ROOT
ATOM      1  S   UNL     1       2.331  -8.424   0.690  0.00  0.00    -0.075 S 
ENDROOT
BRANCH   1  14
ATOM      2  C   UNL     1      -0.120   1.503  -0.005  0.00  0.00    +0.008 C 
ATOM      3  C   UNL     1      -0.087  -0.026  -0.012  0.00  0.00    -0.009 C 
ATOM      4  C   UNL     1       0.641  -0.519  -1.266  0.00  0.00    +0.008 C 
ATOM      5  C   UNL     1       0.464  -2.031  -1.409  0.00  0.00    +0.037 C 
ATOM      6  C   UNL     1       0.882  -2.703  -0.103  0.00  0.00    -0.023 A 
ATOM      7  C   UNL     1       0.957  -1.989   1.044  0.00  0.00    -0.004 A 
ATOM      8  S   UNL     1       1.472  -3.155   2.280  0.00  0.00    -0.075 S 
ATOM      9  C   UNL     1       1.584  -4.585   1.257  0.00  0.00    +0.092 A 
ATOM     10  C   UNL     1       1.217  -4.113  -0.014  0.00  0.00    +0.075 A 
ATOM     11  C   UNL     1       1.214  -5.105  -1.119  0.00  0.00    +0.282 A 
ATOM     12  O   UNL     1       0.911  -4.799  -2.261  0.00  0.00    -0.265 OA
ATOM     13  N   UNL     1       1.564  -6.360  -0.787  0.00  0.00    -0.185 NA
ATOM     14  C   UNL     1       1.898  -6.737   0.426  0.00  0.00    +0.171 A 
ATOM     15  N   UNL     1       1.925  -5.881   1.498  0.00  0.00    -0.328 N 
ATOM     16  C   UNL     1       0.664  -0.531   1.228  0.00  0.00    +0.046 C 
ATOM     17  H   UNL     1       2.174  -6.184   2.385  0.00  0.00    +0.168 HD
ENDBRANCH   1  14
BRANCH   1  18
ATOM     18  C   UNL     1       2.165  -9.182  -0.950  0.00  0.00    +0.137 C 
ATOM     19  C   UNL     1       0.699  -9.138  -1.386  0.00  0.00    +0.029 C 
BRANCH  18  20
ATOM     20  C   UNL     1       2.629 -10.615  -0.890  0.00  0.00    +0.230 C 
ATOM     21  O   UNL     1       2.599 -11.219   0.161  0.00  0.00    -0.274 OA
ATOM     22  N   UNL     1       3.077 -11.225  -2.005  0.00  0.00    -0.282 N 
ATOM     23  H   UNL     1       3.040 -10.764  -2.858  0.00  0.00    +0.155 HD
BRANCH  22  24
ATOM     24  C   UNL     1       3.595 -12.525  -1.933  0.00  0.00    +0.076 A 
ATOM     25  C   UNL     1       3.062 -13.433  -1.038  0.00  0.00    +0.038 A 
ATOM     26  C   UNL     1       3.583 -14.730  -0.969  0.00  0.00    +0.016 A 
ATOM     27  C   UNL     1       4.642 -15.101  -1.806  0.00  0.00    +0.015 A 
ATOM     28  C   UNL     1       5.168 -14.190  -2.695  0.00  0.00    +0.048 A 
ATOM     29  C   UNL     1       4.647 -12.904  -2.768  0.00  0.00    +0.138 A 
BRANCH  29  30
ATOM     30  O   UNL     1       5.167 -12.013  -3.650  0.00  0.00    -0.505 OA
ATOM     31  H   UNL     1       5.898 -11.489  -3.296  0.00  0.00    +0.292 HD
ENDBRANCH  29  30
BRANCH  26  32
ATOM     32  C   UNL     1       3.021 -15.700  -0.020  0.00  0.00    +0.258 C 
ATOM     33  O   UNL     1       3.473 -16.824   0.039  0.00  0.00    -0.296 OA
ENDBRANCH  26  32
ENDBRANCH  22  24
ENDBRANCH  18  20
ENDBRANCH   1  18
TORSDOF 6
