REMARK  Name = ZINC12650928
REMARK  9 active torsions:
REMARK  status: ('A' for Active; 'I' for Inactive)
REMARK    1  A    between atoms: C_1  and  C_2
REMARK    2  A    between atoms: C_5  and  C_8
REMARK    3  A    between atoms: C_10  and  N_13
REMARK    4  A    between atoms: C_14  and  C_16
REMARK    5  A    between atoms: C_16  and  N_58
REMARK    6  A    between atoms: C_17  and  N_58
REMARK    7  A    between atoms: C_18  and  C_19
REMARK    8  A    between atoms: C_18  and  N_58
REMARK    9  A    between atoms: C_24  and  N_25
REMARK                            x       y       z     vdW  Elec       q    Type
REMARK                         _______ _______ _______ _____ _____    ______ ____
ROOT
ATOM      1  N   UNL     1      -0.057   1.179   0.142  0.00  0.00    -0.256 N 
ATOM      2  C   UNL     1       1.126   1.825   0.139  0.00  0.00    +0.203 C 
ATOM      3  O   UNL     1       1.156   3.036   0.202  0.00  0.00    -0.277 OA
ATOM      4  H   UNL     1      -0.081   0.211   0.092  0.00  0.00    +0.158 HD
ENDROOT
BRANCH   1   7
ATOM      5  C   UNL     1      -3.333   2.542   0.302  0.00  0.00    +0.115 A 
ATOM      6  C   UNL     1      -2.506   1.393   0.214  0.00  0.00    +0.097 A 
ATOM      7  C   UNL     1      -1.241   1.900   0.212  0.00  0.00    +0.224 A 
ATOM      8  O   UNL     1      -1.366   3.235   0.286  0.00  0.00    -0.339 OA
ATOM      9  N   UNL     1      -2.525   3.574   0.335  0.00  0.00    -0.076 NA
BRANCH   5  14
ATOM     10  C   UNL     1      -9.090   2.653   0.461  0.00  0.00    +0.044 C 
ATOM     11  C   UNL     1      -7.584   2.624   0.419  0.00  0.00    -0.050 A 
ATOM     12  C   UNL     1      -6.870   3.808   0.463  0.00  0.00    +0.004 A 
ATOM     13  C   UNL     1      -5.491   3.787   0.425  0.00  0.00    +0.010 A 
ATOM     14  C   UNL     1      -4.817   2.571   0.343  0.00  0.00    +0.004 A 
ATOM     15  C   UNL     1      -5.541   1.381   0.293  0.00  0.00    +0.010 A 
ATOM     16  C   UNL     1      -6.920   1.413   0.338  0.00  0.00    +0.004 A 
ENDBRANCH   5  14
ENDBRANCH   1   7
BRANCH   2  17
ATOM     17  C   UNL     1       2.411   1.043   0.057  0.00  0.00    +0.019 C 
BRANCH  17  19
ATOM     18  C   UNL     1       3.647   2.667   1.359  0.00  0.00    -0.095 C 
ATOM     19  N   UNL     1       3.546   1.990   0.049  0.00  0.00    +0.386 N 
ATOM     20  H   UNL     1       3.387   2.696  -0.679  0.00  0.00    -0.081 HD
BRANCH  19  21
ATOM     21  C   UNL     1       4.803   1.270  -0.246  0.00  0.00    -0.041 C 
BRANCH  21  22
ATOM     22  C   UNL     1       5.915   2.275  -0.398  0.00  0.00    -0.043 A 
ATOM     23  C   UNL     1       6.883   2.389   0.581  0.00  0.00    +0.003 A 
ATOM     24  C   UNL     1       7.907   3.308   0.440  0.00  0.00    +0.000 A 
ATOM     25  C   UNL     1       7.960   4.122  -0.676  0.00  0.00    +0.002 A 
ATOM     26  C   UNL     1       6.994   4.017  -1.657  0.00  0.00    +0.023 A 
ATOM     27  C   UNL     1       5.966   3.091  -1.521  0.00  0.00    +0.031 A 
BRANCH  27  28
ATOM     28  N   UNL     1       4.987   2.983  -2.510  0.00  0.00    -0.330 N 
ATOM     29  C   UNL     1       5.177   4.012  -3.563  0.00  0.00    +0.105 C 
ATOM     30  C   UNL     1       4.396   3.434  -4.770  0.00  0.00    +0.020 C 
ATOM     31  C   UNL     1       4.679   1.918  -4.670  0.00  0.00    +0.020 C 
ATOM     32  C   UNL     1       5.074   1.678  -3.201  0.00  0.00    +0.105 C 
ENDBRANCH  27  28
ENDBRANCH  21  22
ENDBRANCH  19  21
ENDBRANCH  17  19
ENDBRANCH   2  17
TORSDOF 7
