REMARK  Name = ZINC18055596
REMARK  10 active torsions:
REMARK  status: ('A' for Active; 'I' for Inactive)
REMARK    1  A    between atoms: C_1  and  C_2
REMARK    2  A    between atoms: C_5  and  C_8
REMARK    3  A    between atoms: N_15  and  C_18
REMARK    4  A    between atoms: C_18  and  C_19
REMARK    5  A    between atoms: C_19  and  C_20
REMARK    6  A    between atoms: N_22  and  N_23
REMARK    7  A    between atoms: C_24  and  C_26
REMARK    8  A    between atoms: C_26  and  C_28
REMARK    9  A    between atoms: C_26  and  O_29
REMARK   10  A    between atoms: O_29  and  C_30
REMARK                            x       y       z     vdW  Elec       q    Type
REMARK                         _______ _______ _______ _____ _____    ______ ____
ROOT
ATOM      1  C   UNL     1       3.611   1.850   0.783  0.00  0.00    +0.119 C 
ENDROOT
BRANCH   1   2
ATOM      2  C   UNL     1       2.342   1.074   0.539  0.00  0.00    +0.231 C 
ATOM      3  O   UNL     1       2.388  -0.125   0.365  0.00  0.00    -0.274 OA
ATOM      4  N   UNL     1       1.155   1.713   0.516  0.00  0.00    -0.234 N 
ATOM      5  H   UNL     1       1.118   2.672   0.656  0.00  0.00    +0.173 HD
BRANCH   4   6
ATOM      6  N   UNL     1      -0.024   0.992   0.289  0.00  0.00    -0.231 N 
ATOM      7  C   UNL     1      -1.210   1.631   0.260  0.00  0.00    +0.270 C 
ATOM      8  O   UNL     1      -1.257   2.830   0.435  0.00  0.00    -0.270 OA
ATOM      9  H   UNL     1       0.013   0.032   0.150  0.00  0.00    +0.173 HD
BRANCH   7  10
ATOM     10  C   UNL     1      -2.478   0.856   0.011  0.00  0.00    +0.257 C 
ATOM     11  C   UNL     1      -2.720  -0.114   1.169  0.00  0.00    +0.062 C 
BRANCH  10  12
ATOM     12  O   UNL     1      -3.579   1.763  -0.089  0.00  0.00    -0.477 OA
BRANCH  12  13
ATOM     13  C   UNL     1      -4.660   1.345  -0.800  0.00  0.00    +0.157 A 
ATOM     14  C   UNL     1      -4.708   0.051  -1.294  0.00  0.00    +0.048 A 
ATOM     15  C   UNL     1      -5.808  -0.371  -2.017  0.00  0.00    +0.004 A 
ATOM     16  C   UNL     1      -6.861   0.495  -2.247  0.00  0.00    +0.003 A 
ATOM     17  C   UNL     1      -6.816   1.787  -1.756  0.00  0.00    +0.042 A 
ATOM     18  C   UNL     1      -5.720   2.213  -1.028  0.00  0.00    +0.165 A 
ATOM     19  F   UNL     1      -5.678   3.474  -0.544  0.00  0.00    -0.202 F 
ENDBRANCH  12  13
ENDBRANCH  10  12
ENDBRANCH   7  10
ENDBRANCH   4   6
ENDBRANCH   1   2
BRANCH   1  20
ATOM     20  C   UNL     1       4.805   0.894   0.760  0.00  0.00    +0.135 C 
BRANCH  20  28
ATOM     21  C   UNL     1       8.356   2.867   3.736  0.00  0.00    +0.004 A 
ATOM     22  C   UNL     1       9.501   3.590   3.699  0.00  0.00    +0.056 A 
ATOM     23  S   UNL     1       9.743   3.892   1.959  0.00  0.00    -0.076 S 
ATOM     24  C   UNL     1       8.315   3.049   1.328  0.00  0.00    +0.116 A 
ATOM     25  C   UNL     1       7.684   2.553   2.480  0.00  0.00    +0.080 A 
ATOM     26  C   UNL     1       6.478   1.815   2.258  0.00  0.00    +0.263 A 
ATOM     27  O   UNL     1       5.859   1.344   3.196  0.00  0.00    -0.267 OA
ATOM     28  N   UNL     1       6.039   1.648   0.997  0.00  0.00    -0.298 N 
ATOM     29  C   UNL     1       6.719   2.160  -0.061  0.00  0.00    +0.203 A 
ATOM     30  N   UNL     1       7.819   2.843   0.111  0.00  0.00    -0.230 NA
BRANCH  21  35
ATOM     31  C   UNL     1       6.183   1.066   8.755  0.00  0.00    +0.044 C 
ATOM     32  C   UNL     1       6.751   1.537   7.441  0.00  0.00    -0.050 A 
ATOM     33  C   UNL     1       8.084   1.312   7.147  0.00  0.00    +0.004 A 
ATOM     34  C   UNL     1       8.611   1.742   5.946  0.00  0.00    +0.009 A 
ATOM     35  C   UNL     1       7.796   2.403   5.028  0.00  0.00    -0.017 A 
ATOM     36  C   UNL     1       6.455   2.632   5.332  0.00  0.00    +0.009 A 
ATOM     37  C   UNL     1       5.938   2.193   6.534  0.00  0.00    +0.004 A 
ENDBRANCH  21  35
ENDBRANCH  20  28
ENDBRANCH   1  20
TORSDOF 8
