REMARK  Name = ZINC36073792
REMARK  15 active torsions:
REMARK  status: ('A' for Active; 'I' for Inactive)
REMARK    1  A    between atoms: C_1  and  C_2
REMARK    2  A    between atoms: C_4  and  O_22
REMARK    3  A    between atoms: C_6  and  C_19
REMARK    4  A    between atoms: C_8  and  O_18
REMARK    5  A    between atoms: C_11  and  C_17
REMARK    6  A    between atoms: C_19  and  C_20
REMARK    7  A    between atoms: C_19  and  C_21
REMARK    8  A    between atoms: O_22  and  C_23
REMARK    9  A    between atoms: C_23  and  C_25
REMARK   10  A    between atoms: C_27  and  O_35
REMARK   11  A    between atoms: C_28  and  O_33
REMARK   12  A    between atoms: C_29  and  O_31
REMARK   13  A    between atoms: O_31  and  C_32
REMARK   14  A    between atoms: O_33  and  C_34
REMARK   15  A    between atoms: O_35  and  C_36
REMARK                            x       y       z     vdW  Elec       q    Type
REMARK                         _______ _______ _______ _____ _____    ______ ____
ROOT
ATOM      1  C   UNL     1       1.198   1.094   0.035  0.00  0.00    +0.039 C 
ATOM      2  C   UNL     1       1.067  -0.382  -0.164  0.00  0.00    -0.073 C 
ATOM      3  C   UNL     1       0.546  -0.984  -1.183  0.00  0.00    +0.016 C 
ATOM      4  C   UNL     1       0.087  -0.398  -2.481  0.00  0.00    +0.205 C 
ATOM      5  C   UNL     1       0.663  -1.333  -3.575  0.00  0.00    +0.065 C 
ATOM      6  C   UNL     1       2.170  -1.445  -3.411  0.00  0.00    +0.124 C 
ATOM      7  C   UNL     1       2.717  -2.801  -3.055  0.00  0.00    +0.069 C 
ATOM      8  C   UNL     1       2.002  -3.622  -2.002  0.00  0.00    +0.096 C 
ATOM      9  C   UNL     1       2.035  -3.363  -0.510  0.00  0.00    +0.151 C 
ATOM     10  O   UNL     1       2.892  -4.340  -1.107  0.00  0.00    -0.365 OA
ATOM     11  C   UNL     1       2.714  -2.159   0.132  0.00  0.00    +0.039 C 
ATOM     12  C   UNL     1       1.668  -1.315   0.885  0.00  0.00    +0.033 C 
ATOM     13  C   UNL     1       0.887  -4.545  -2.551  0.00  0.00    +0.044 C 
ENDROOT
BRANCH   5  14
ATOM     14  C   UNL     1       0.340  -0.732  -4.953  0.00  0.00    -0.008 C 
ATOM     15  C   UNL     1       0.901  -1.640  -6.049  0.00  0.00    +0.008 C 
ATOM     16  C   UNL     1      -1.176  -0.614  -5.114  0.00  0.00    +0.008 C 
ENDBRANCH   5  14
BRANCH   6  17
ATOM     17  O   UNL     1       2.678  -0.456  -2.519  0.00  0.00    -0.391 OA
ATOM     18  H   UNL     1       3.636  -0.497  -2.390  0.00  0.00    +0.210 HD
ENDBRANCH   6  17
BRANCH   4  19
ATOM     19  O   UNL     1       0.528   0.937  -2.698  0.00  0.00    -0.453 OA
BRANCH  19  20
ATOM     20  C   UNL     1      -0.412   1.903  -2.674  0.00  0.00    +0.340 C 
ATOM     21  O   UNL     1      -1.575   1.614  -2.474  0.00  0.00    -0.245 OA
BRANCH  20  22
ATOM     22  C   UNL     1      -0.028   3.310  -2.891  0.00  0.00    +0.066 A 
ATOM     23  C   UNL     1       1.309   3.643  -3.127  0.00  0.00    +0.064 A 
ATOM     24  C   UNL     1       1.665   4.963  -3.330  0.00  0.00    +0.166 A 
ATOM     25  C   UNL     1       0.694   5.960  -3.299  0.00  0.00    +0.204 A 
ATOM     26  C   UNL     1      -0.638   5.632  -3.064  0.00  0.00    +0.166 A 
ATOM     27  C   UNL     1      -1.002   4.313  -2.867  0.00  0.00    +0.064 A 
BRANCH  26  28
ATOM     28  O   UNL     1      -1.584   6.609  -3.034  0.00  0.00    -0.491 OA
ATOM     29  C   UNL     1      -2.931   6.200  -2.787  0.00  0.00    +0.277 C 
ENDBRANCH  26  28
BRANCH  25  30
ATOM     30  O   UNL     1       1.048   7.257  -3.499  0.00  0.00    -0.488 OA
ATOM     31  C   UNL     1       1.030   7.734  -4.846  0.00  0.00    +0.277 C 
ENDBRANCH  25  30
BRANCH  24  32
ATOM     32  O   UNL     1       2.966   5.288  -3.560  0.00  0.00    -0.491 OA
ATOM     33  C   UNL     1       3.909   4.214  -3.578  0.00  0.00    +0.277 C 
ENDBRANCH  24  32
ENDBRANCH  20  22
ENDBRANCH  19  20
ENDBRANCH   4  19
TORSDOF 8
