REMARK  Name = ZINC12243544
REMARK  6 active torsions:
REMARK  status: ('A' for Active; 'I' for Inactive)
REMARK    1  A    between atoms: C_9  and  C_12
REMARK    2  A    between atoms: C_12  and  N_64
REMARK    3  A    between atoms: C_13  and  N_64
REMARK    4  A    between atoms: N_16  and  C_19
REMARK    5  A    between atoms: C_22  and  N_25
REMARK    6  A    between atoms: C_26  and  C_28
REMARK                            x       y       z     vdW  Elec       q    Type
REMARK                         _______ _______ _______ _____ _____    ______ ____
ROOT
ATOM      1  C   UNL     1      -0.218  -8.801   1.516  0.00  0.00    -0.069 C 
ATOM      2  C   UNL     1       0.587  -8.223   0.350  0.00  0.00    +0.003 C 
ATOM      3  C   UNL     1       0.537  -6.695   0.409  0.00  0.00    +0.103 C 
ATOM      4  N   UNL     1      -0.859  -6.246   0.334  0.00  0.00    -0.330 N 
ATOM      5  C   UNL     1      -1.641  -6.750   1.470  0.00  0.00    +0.103 C 
ATOM      6  C   UNL     1      -1.656  -8.280   1.441  0.00  0.00    +0.003 C 
ENDROOT
BRANCH   4   7
ATOM      7  C   UNL     1      -0.933  -4.851   0.253  0.00  0.00    +0.030 A 
ATOM      8  C   UNL     1      -2.171  -4.226   0.173  0.00  0.00    +0.025 A 
ATOM      9  C   UNL     1      -2.244  -2.849   0.093  0.00  0.00    +0.025 A 
ATOM     10  C   UNL     1      -1.081  -2.091   0.092  0.00  0.00    +0.034 A 
ATOM     11  C   UNL     1       0.156  -2.717   0.166  0.00  0.00    +0.025 A 
ATOM     12  C   UNL     1       0.230  -4.093   0.252  0.00  0.00    +0.025 A 
BRANCH  10  13
ATOM     13  N   UNL     1      -1.156  -0.694   0.009  0.00  0.00    -0.285 N 
ATOM     14  C   UNL     1      -2.169  -0.037   0.608  0.00  0.00    +0.220 C 
ATOM     15  O   UNL     1      -3.061  -0.658   1.146  0.00  0.00    -0.275 OA
ATOM     16  H   UNL     1      -0.478  -0.200  -0.478  0.00  0.00    +0.155 HD
BRANCH  14  17
ATOM     17  C   UNL     1      -2.194   1.470   0.609  0.00  0.00    +0.075 C 
ATOM     18  C   UNL     1      -0.974   2.018   1.377  0.00  0.00    +0.013 C 
ATOM     19  C   UNL     1      -1.520   3.264   2.118  0.00  0.00    +0.001 C 
ATOM     20  C   UNL     1      -2.939   2.814   2.543  0.00  0.00    +0.001 C 
ATOM     21  C   UNL     1      -3.444   1.976   1.350  0.00  0.00    +0.013 C 
ENDBRANCH  14  17
ENDBRANCH  10  13
ENDBRANCH   4   7
BRANCH   1  22
ATOM     22  N   UNL     1      -0.222 -10.274   1.422  0.00  0.00    +0.383 N 
ATOM     23  H   UNL     1      -0.976 -10.571   0.791  0.00  0.00    -0.085 HD
ATOM     24  H   UNL     1       0.681 -10.591   1.049  0.00  0.00    -0.085 HD
BRANCH  22  25
ATOM     25  C   UNL     1      -0.436 -10.872   2.753  0.00  0.00    -0.034 C 
BRANCH  25  34
ATOM     26  C   UNL     1      -2.492 -16.814   1.736  0.00  0.00    +0.004 A 
ATOM     27  C   UNL     1      -2.881 -15.996   0.692  0.00  0.00    +0.004 A 
ATOM     28  C   UNL     1      -2.540 -14.656   0.696  0.00  0.00    +0.049 A 
ATOM     29  C   UNL     1      -1.808 -14.129   1.748  0.00  0.00    +0.162 A 
ATOM     30  C   UNL     1      -1.415 -14.951   2.797  0.00  0.00    +0.162 A 
ATOM     31  C   UNL     1      -1.760 -16.294   2.788  0.00  0.00    +0.049 A 
ATOM     32  O   UNL     1      -0.691 -14.455   3.838  0.00  0.00    -0.485 OA
ATOM     33  C   UNL     1      -0.686 -13.032   3.998  0.00  0.00    +0.271 C 
ATOM     34  C   UNL     1      -0.434 -12.396   2.624  0.00  0.00    +0.194 C 
ATOM     35  O   UNL     1      -1.483 -12.807   1.740  0.00  0.00    -0.484 OA
ENDBRANCH  25  34
ENDBRANCH  22  25
ENDBRANCH   1  22
TORSDOF 6
