REMARK  Name = ZINC09725554
REMARK  14 active torsions:
REMARK  status: ('A' for Active; 'I' for Inactive)
REMARK    1  A    between atoms: C_1  and  C_2
REMARK    2  A    between atoms: C_2  and  N_3
REMARK    3  A    between atoms: C_5  and  C_20
REMARK    4  A    between atoms: C_12  and  S_14
REMARK    5  A    between atoms: S_14  and  N_17
REMARK    6  A    between atoms: N_17  and  C_18
REMARK    7  A    between atoms: N_17  and  C_19
REMARK    8  A    between atoms: N_22  and  C_23
REMARK    9  A    between atoms: C_23  and  C_24
REMARK   10  A    between atoms: C_24  and  C_25
REMARK   11  A    between atoms: C_28  and  O_33
REMARK   12  A    between atoms: C_29  and  O_31
REMARK   13  A    between atoms: O_31  and  C_32
REMARK   14  A    between atoms: O_33  and  C_34
REMARK                            x       y       z     vdW  Elec       q    Type
REMARK                         _______ _______ _______ _____ _____    ______ ____
ROOT
ATOM      1  N   UNL     1       3.665  -0.648  -0.038  0.00  0.00    -0.346 N 
ATOM      2  C   UNL     1       2.478  -0.028  -0.028  0.00  0.00    +0.103 A 
ATOM      3  C   UNL     1       1.286  -0.722  -0.014  0.00  0.00    +0.100 A 
ATOM      4  C   UNL     1       1.320  -2.193  -0.022  0.00  0.00    +0.202 A 
ATOM      5  O   UNL     1       0.295  -2.852  -0.016  0.00  0.00    -0.286 OA
ATOM      6  C   UNL     1       2.647  -2.836  -0.039  0.00  0.00    +0.048 A 
ATOM      7  C   UNL     1       3.791  -2.020  -0.046  0.00  0.00    +0.053 A 
ATOM      8  C   UNL     1       5.050  -2.615  -0.062  0.00  0.00    +0.028 A 
ATOM      9  C   UNL     1       5.163  -3.988  -0.070  0.00  0.00    +0.030 A 
ATOM     10  C   UNL     1       4.032  -4.792  -0.063  0.00  0.00    +0.106 A 
ATOM     11  C   UNL     1       2.776  -4.225  -0.048  0.00  0.00    +0.042 A 
ENDROOT
BRANCH   3  12
ATOM     12  C   UNL     1       0.002  -0.004   0.002  0.00  0.00    +0.249 C 
ATOM     13  O   UNL     1      -1.043  -0.626   0.009  0.00  0.00    -0.270 OA
ATOM     14  N   UNL     1      -0.016   1.344   0.009  0.00  0.00    -0.311 N 
ATOM     15  H   UNL     1       0.817   1.840   0.004  0.00  0.00    +0.149 HD
BRANCH  14  16
ATOM     16  C   UNL     1      -1.295   2.059   0.019  0.00  0.00    +0.109 C 
BRANCH  16  17
ATOM     17  C   UNL     1      -1.036   3.567   0.026  0.00  0.00    +0.054 C 
BRANCH  17  18
ATOM     18  C   UNL     1      -2.351   4.302   0.037  0.00  0.00    -0.042 A 
ATOM     19  C   UNL     1      -2.956   4.651  -1.157  0.00  0.00    +0.007 A 
ATOM     20  C   UNL     1      -4.165   5.320  -1.153  0.00  0.00    +0.049 A 
ATOM     21  C   UNL     1      -4.768   5.654   0.049  0.00  0.00    +0.161 A 
ATOM     22  C   UNL     1      -4.156   5.309   1.250  0.00  0.00    +0.162 A 
ATOM     23  C   UNL     1      -2.947   4.633   1.239  0.00  0.00    +0.053 A 
BRANCH  22  24
ATOM     24  O   UNL     1      -4.744   5.634   2.433  0.00  0.00    -0.491 OA
ATOM     25  C   UNL     1      -4.060   5.247   3.626  0.00  0.00    +0.277 C 
ENDBRANCH  22  24
BRANCH  21  26
ATOM     26  O   UNL     1      -5.955   6.318   0.055  0.00  0.00    -0.491 OA
ATOM     27  C   UNL     1      -6.524   6.640  -1.216  0.00  0.00    +0.277 C 
ENDBRANCH  21  26
ENDBRANCH  17  18
ENDBRANCH  16  17
ENDBRANCH  14  16
ENDBRANCH   3  12
BRANCH  10  28
ATOM     28  S   UNL     1       4.202  -6.545  -0.075  0.00  0.00    +0.060 S 
ATOM     29  O   UNL     1       2.997  -7.067  -0.616  0.00  0.00    -0.153 OA
ATOM     30  O   UNL     1       5.476  -6.826  -0.640  0.00  0.00    -0.153 OA
BRANCH  28  31
ATOM     31  N   UNL     1       4.266  -7.041   1.504  0.00  0.00    -0.183 NA
ATOM     32  C   UNL     1       3.031  -7.383   2.214  0.00  0.00    +0.131 C 
ATOM     33  C   UNL     1       5.556  -7.138   2.191  0.00  0.00    +0.131 C 
ENDBRANCH  28  31
ENDBRANCH  10  28
BRANCH   1  35
ATOM     34  C   UNL     1       5.362   0.355  -1.486  0.00  0.00    +0.027 C 
ATOM     35  C   UNL     1       4.882   0.168  -0.045  0.00  0.00    +0.118 C 
ENDBRANCH   1  35
TORSDOF 9
