REMARK  Name = ZINC40814550
REMARK  11 active torsions:
REMARK  status: ('A' for Active; 'I' for Inactive)
REMARK    1  A    between atoms: C_1  and  C_2
REMARK    2  A    between atoms: C_2  and  C_3
REMARK    3  A    between atoms: C_3  and  C_4
REMARK    4  A    between atoms: C_4  and  C_5
REMARK    5  A    between atoms: C_8  and  N_11
REMARK    6  A    between atoms: C_12  and  C_14
REMARK    7  A    between atoms: C_15  and  C_37
REMARK    8  A    between atoms: N_23  and  N_24
REMARK    9  A    between atoms: C_25  and  C_27
REMARK   10  A    between atoms: C_27  and  C_28
REMARK   11  A    between atoms: C_31  and  N_34
REMARK                            x       y       z     vdW  Elec       q    Type
REMARK                         _______ _______ _______ _____ _____    ______ ____
ROOT
ATOM      1  C   UNL     1       3.576  -4.450   8.207  0.00  0.00    +0.193 A 
ATOM      2  C   UNL     1       3.026  -4.638   9.445  0.00  0.00    +0.009 A 
ATOM      3  C   UNL     1       4.082  -4.989  10.294  0.00  0.00    +0.042 A 
ATOM      4  C   UNL     1       5.232  -4.999   9.540  0.00  0.00    +0.115 A 
ATOM      5  O   UNL     1       4.906  -4.680   8.289  0.00  0.00    -0.454 OA
ATOM      6  C   UNL     1       6.587  -5.329  10.114  0.00  0.00    +0.075 C 
ATOM      7  C   UNL     1       6.558  -5.129  11.631  0.00  0.00    +0.014 C 
ATOM      8  C   UNL     1       5.395  -5.905  12.257  0.00  0.00    +0.058 C 
ATOM      9  C   UNL     1       4.093  -5.313  11.738  0.00  0.00    +0.070 C 
ATOM     10  N   UNL     1       3.067  -5.108  12.505  0.00  0.00    -0.184 NA
ATOM     11  C   UNL     1       1.573  -4.496   9.819  0.00  0.00    +0.048 C 
ENDROOT
BRANCH   1  13
ATOM     12  N   UNL     1       3.506  -3.920   5.828  0.00  0.00    -0.279 N 
ATOM     13  C   UNL     1       2.845  -4.069   6.994  0.00  0.00    +0.284 C 
ATOM     14  O   UNL     1       1.643  -3.889   7.039  0.00  0.00    -0.266 OA
ATOM     15  H   UNL     1       4.450  -4.138   5.774  0.00  0.00    +0.155 HD
BRANCH  12  19
ATOM     16  C   UNL     1       1.495  -2.523   2.459  0.00  0.00    -0.047 A 
ATOM     17  C   UNL     1       2.522  -3.439   2.319  0.00  0.00    +0.005 A 
ATOM     18  C   UNL     1       3.191  -3.904   3.434  0.00  0.00    +0.023 A 
ATOM     19  C   UNL     1       2.831  -3.451   4.697  0.00  0.00    +0.034 A 
ATOM     20  C   UNL     1       1.800  -2.531   4.834  0.00  0.00    +0.023 A 
ATOM     21  C   UNL     1       1.139  -2.066   3.714  0.00  0.00    +0.005 A 
BRANCH  16  22
ATOM     22  C   UNL     1       0.767  -2.018   1.240  0.00  0.00    +0.035 C 
BRANCH  22  23
ATOM     23  C   UNL     1       1.473  -0.770   0.705  0.00  0.00    +0.004 C 
BRANCH  23  25
ATOM     24  C   UNL     1       1.440   0.990  -1.067  0.00  0.00    +0.004 C 
ATOM     25  C   UNL     1       0.735  -0.258  -0.533  0.00  0.00    -0.003 C 
ENDBRANCH  23  25
ENDBRANCH  22  23
ENDBRANCH  16  22
ENDBRANCH  12  19
ENDBRANCH   1  13
BRANCH  10  26
ATOM     26  N   UNL     1       3.133  -5.434  13.866  0.00  0.00    -0.206 N 
ATOM     27  C   UNL     1       2.068  -5.220  14.663  0.00  0.00    +0.237 C 
ATOM     28  O   UNL     1       1.051  -4.745  14.201  0.00  0.00    -0.274 OA
ATOM     29  H   UNL     1       3.946  -5.813  14.234  0.00  0.00    +0.177 HD
BRANCH  27  30
ATOM     30  C   UNL     1       2.139  -5.571  16.126  0.00  0.00    +0.132 C 
BRANCH  30  31
ATOM     31  C   UNL     1       0.827  -5.237  16.788  0.00  0.00    -0.038 A 
ATOM     32  C   UNL     1       0.626  -3.981  17.330  0.00  0.00    +0.006 A 
ATOM     33  C   UNL     1      -0.578  -3.675  17.936  0.00  0.00    +0.033 A 
ATOM     34  C   UNL     1      -1.581  -4.624  18.000  0.00  0.00    +0.126 A 
ATOM     35  C   UNL     1      -1.381  -5.879  17.457  0.00  0.00    +0.033 A 
ATOM     36  C   UNL     1      -0.178  -6.184  16.847  0.00  0.00    +0.006 A 
BRANCH  34  37
ATOM     37  N   UNL     1      -2.870  -4.296  18.651  0.00  0.00    +0.056 N 
ATOM     38  O   UNL     1      -3.045  -3.198  19.126  0.00  0.00    -0.126 OA
ATOM     39  O   UNL     1      -3.747  -5.126  18.706  0.00  0.00    -0.126 OA
ENDBRANCH  34  37
ENDBRANCH  30  31
ENDBRANCH  27  30
ENDBRANCH  10  26
TORSDOF 9
