REMARK  Name = ZINC22060054
REMARK  12 active torsions:
REMARK  status: ('A' for Active; 'I' for Inactive)
REMARK    1  A    between atoms: C_1  and  C_2
REMARK    2  A    between atoms: C_2  and  C_3
REMARK    3  A    between atoms: C_2  and  C_4
REMARK    4  A    between atoms: C_4  and  N_5
REMARK    5  A    between atoms: C_6  and  N_35
REMARK    6  A    between atoms: C_7  and  C_14
REMARK    7  A    between atoms: C_14  and  C_16
REMARK    8  A    between atoms: C_16  and  S_17
REMARK    9  A    between atoms: S_17  and  C_18
REMARK   10  A    between atoms: C_21  and  C_30
REMARK   11  A    between atoms: N_22  and  C_23
REMARK   12  A    between atoms: C_23  and  C_24
REMARK                            x       y       z     vdW  Elec       q    Type
REMARK                         _______ _______ _______ _____ _____    ______ ____
ROOT
ATOM      1  C   UNL     1      -4.796   5.448   0.015  0.00  0.00    +0.157 C 
ENDROOT
BRANCH   1   2
ATOM      2  C   UNL     1      -5.529   6.754  -0.146  0.00  0.00    +0.182 C 
ATOM      3  O   UNL     1      -4.923   7.756  -0.469  0.00  0.00    -0.291 OA
BRANCH   2   6
ATOM      4  N   UNL     1      -8.956   8.047   0.271  0.00  0.00    -0.281 N 
ATOM      5  C   UNL     1      -7.608   8.040   0.053  0.00  0.00    +0.116 A 
ATOM      6  C   UNL     1      -6.921   6.814   0.079  0.00  0.00    +0.120 A 
ATOM      7  C   UNL     1      -7.698   5.598   0.353  0.00  0.00    +0.266 A 
ATOM      8  O   UNL     1      -7.154   4.510   0.392  0.00  0.00    -0.267 OA
ATOM      9  N   UNL     1      -9.026   5.713   0.561  0.00  0.00    -0.274 N 
ATOM     10  H   UNL     1      -9.629   4.817   0.768  0.00  0.00    +0.173 HD
ATOM     11  C   UNL     1      -9.629   6.912   0.518  0.00  0.00    +0.331 A 
ATOM     12  O   UNL     1     -10.827   6.971   0.710  0.00  0.00    -0.246 OA
BRANCH   5  13
ATOM     13  N   UNL     1      -6.941   9.201  -0.190  0.00  0.00    -0.344 N 
ATOM     14  H   UNL     1      -5.856   9.186  -0.364  0.00  0.00    +0.144 HD
ATOM     15  H   UNL     1      -7.489  10.155  -0.213  0.00  0.00    +0.144 HD
ENDBRANCH   5  13
BRANCH   4  16
ATOM     16  C   UNL     1      -9.682   9.319   0.240  0.00  0.00    +0.131 C 
BRANCH  16  18
ATOM     17  C   UNL     1      -8.272  10.289   2.060  0.00  0.00    +0.009 C 
ATOM     18  C   UNL     1      -9.700   9.930   1.643  0.00  0.00    +0.003 C 
ATOM     19  C   UNL     1     -10.562  11.194   1.637  0.00  0.00    +0.009 C 
ENDBRANCH  16  18
ENDBRANCH   4  16
ENDBRANCH   2   6
ENDBRANCH   1   2
BRANCH   1  20
ATOM     20  S   UNL     1      -3.038   5.695  -0.340  0.00  0.00    -0.078 S 
BRANCH  20  21
ATOM     21  C   UNL     1      -2.441   4.058  -0.083  0.00  0.00    +0.193 A 
ATOM     22  N   UNL     1      -3.156   3.014   0.268  0.00  0.00    -0.122 NA
ATOM     23  N   UNL     1      -2.405   1.976   0.368  0.00  0.00    -0.128 NA
ATOM     24  C   UNL     1      -1.161   2.293   0.085  0.00  0.00    +0.172 A 
ATOM     25  N   UNL     1      -1.145   3.639  -0.207  0.00  0.00    -0.297 N 
BRANCH  24  26
ATOM     26  C   UNL     1      -0.004   1.384   0.087  0.00  0.00    +0.056 A 
ATOM     27  C   UNL     1       0.018   0.012   0.098  0.00  0.00    +0.019 A 
ATOM     28  C   UNL     1       1.236  -0.630   0.092  0.00  0.00    +0.008 A 
ATOM     29  C   UNL     1       2.375   0.111   0.076  0.00  0.00    +0.046 A 
ATOM     30  S   UNL     1       1.737   1.778   0.068  0.00  0.00    -0.094 S 
ENDBRANCH  24  26
BRANCH  25  31
ATOM     31  C   UNL     1       0.017   4.451  -0.576  0.00  0.00    +0.161 C 
BRANCH  31  32
ATOM     32  C   UNL     1       0.187   4.434  -2.073  0.00  0.00    -0.028 A 
ATOM     33  C   UNL     1       0.972   3.466  -2.669  0.00  0.00    +0.005 A 
ATOM     34  C   UNL     1       1.124   3.448  -4.043  0.00  0.00    +0.000 A 
ATOM     35  C   UNL     1       0.498   4.405  -4.820  0.00  0.00    +0.000 A 
ATOM     36  C   UNL     1      -0.283   5.377  -4.224  0.00  0.00    +0.000 A 
ATOM     37  C   UNL     1      -0.439   5.392  -2.850  0.00  0.00    +0.005 A 
ENDBRANCH  31  32
ENDBRANCH  25  31
ENDBRANCH  20  21
ENDBRANCH   1  20
TORSDOF 10
