REMARK  Name = ZINC55332858
REMARK  4 active torsions:
REMARK  status: ('A' for Active; 'I' for Inactive)
REMARK    1  A    between atoms: C_1  and  C_2
REMARK    2  A    between atoms: C_5  and  C_8
REMARK    3  A    between atoms: C_9  and  C_14
REMARK    4  A    between atoms: C_12  and  N_13
REMARK                            x       y       z     vdW  Elec       q    Type
REMARK                         _______ _______ _______ _____ _____    ______ ____
ROOT
ATOM      1  C   UNL     1       0.059  -4.254  -0.021  0.00  0.00    +0.071 A 
ATOM      2  C   UNL     1      -0.994  -5.145   0.470  0.00  0.00    +0.124 A 
ATOM      3  N   UNL     1      -0.580  -6.375   0.278  0.00  0.00    -0.075 NA
ATOM      4  O   UNL     1       0.700  -6.339  -0.319  0.00  0.00    -0.339 OA
ATOM      5  C   UNL     1       1.071  -5.062  -0.499  0.00  0.00    +0.224 A 
ENDROOT
BRANCH   1  10
ATOM      6  C   UNL     1      -0.018   1.503   0.010  0.00  0.00    +0.044 C 
ATOM      7  C   UNL     1       0.002  -0.004   0.002  0.00  0.00    -0.050 A 
ATOM      8  C   UNL     1       0.006  -0.686  -1.201  0.00  0.00    +0.004 A 
ATOM      9  C   UNL     1       0.024  -2.066  -1.216  0.00  0.00    +0.009 A 
ATOM     10  C   UNL     1       0.040  -2.773  -0.013  0.00  0.00    -0.011 A 
ATOM     11  C   UNL     1       0.036  -2.079   1.197  0.00  0.00    +0.009 A 
ATOM     12  C   UNL     1       0.023  -0.699   1.198  0.00  0.00    +0.004 A 
ENDBRANCH   1  10
BRANCH   2  13
ATOM     13  C   UNL     1      -2.286  -4.734   1.073  0.00  0.00    +0.018 A 
ATOM     14  C   UNL     1      -2.595  -3.382   1.210  0.00  0.00    +0.011 A 
ATOM     15  C   UNL     1      -3.798  -3.006   1.771  0.00  0.00    +0.001 A 
ATOM     16  C   UNL     1      -4.697  -3.967   2.197  0.00  0.00    +0.001 A 
ATOM     17  C   UNL     1      -4.396  -5.310   2.064  0.00  0.00    +0.016 A 
ATOM     18  C   UNL     1      -3.198  -5.699   1.498  0.00  0.00    +0.027 A 
ATOM     19 BR   UNL     1      -2.791  -7.536   1.309  0.00  0.00    -0.050 Br
ENDBRANCH   2  13
BRANCH   5  20
ATOM     20  N   UNL     1       2.256  -4.634  -1.060  0.00  0.00    -0.327 N 
ATOM     21  H   UNL     1       2.436  -3.684  -1.147  0.00  0.00    +0.145 HD
ATOM     22  H   UNL     1       2.909  -5.281  -1.369  0.00  0.00    +0.145 HD
ENDBRANCH   5  20
TORSDOF 3
