REMARK  Name = ZINC35640871
REMARK  11 active torsions:
REMARK  status: ('A' for Active; 'I' for Inactive)
REMARK    1  A    between atoms: C_1  and  C_2
REMARK    2  A    between atoms: C_2  and  O_3
REMARK    3  A    between atoms: O_3  and  C_4
REMARK    4  A    between atoms: C_4  and  C_6
REMARK    5  A    between atoms: C_7  and  C_25
REMARK    6  A    between atoms: N_8  and  C_22
REMARK    7  A    between atoms: C_12  and  C_14
REMARK    8  A    between atoms: C_22  and  C_23
REMARK    9  A    between atoms: C_25  and  N_26
REMARK   10  A    between atoms: N_26  and  C_27
REMARK   11  A    between atoms: N_26  and  C_28
REMARK                            x       y       z     vdW  Elec       q    Type
REMARK                         _______ _______ _______ _____ _____    ______ ____
ROOT
ATOM      1  C   UNL     1       1.097  -2.386  -2.061  0.00  0.00    +0.076 C 
ATOM      2  C   UNL     1       1.520  -3.646  -2.304  0.00  0.00    +0.011 C 
ATOM      3  N   UNL     1       2.313  -3.928  -3.379  0.00  0.00    -0.257 N 
ATOM      4  C   UNL     1       2.727  -3.007  -4.258  0.00  0.00    +0.307 C 
ATOM      5  O   UNL     1       3.432  -3.354  -5.186  0.00  0.00    -0.252 OA
ATOM      6  N   UNL     1       2.388  -1.707  -4.149  0.00  0.00    -0.288 N 
ATOM      7  C   UNL     1       1.528  -1.299  -3.025  0.00  0.00    +0.143 C 
ATOM      8  H   UNL     1       2.700  -1.056  -4.797  0.00  0.00    +0.151 HD
ENDROOT
BRANCH   7   9
ATOM      9  C   UNL     1       0.286  -0.661  -3.591  0.00  0.00    -0.021 A 
ATOM     10  C   UNL     1      -0.404  -1.282  -4.615  0.00  0.00    +0.007 A 
ATOM     11  C   UNL     1      -1.543  -0.698  -5.136  0.00  0.00    +0.022 A 
ATOM     12  C   UNL     1      -1.994   0.509  -4.632  0.00  0.00    +0.059 A 
ATOM     13  C   UNL     1      -1.303   1.131  -3.606  0.00  0.00    +0.060 A 
ATOM     14  C   UNL     1      -0.166   0.542  -3.082  0.00  0.00    +0.027 A 
ATOM     15 CL   UNL     1      -1.867   2.645  -2.972  0.00  0.00    -0.082 Cl
ATOM     16 CL   UNL     1      -3.425   1.243  -5.285  0.00  0.00    -0.082 Cl
ENDBRANCH   7   9
BRANCH   1  17
ATOM     17  C   UNL     1       0.276  -2.092  -0.947  0.00  0.00    +0.339 C 
ATOM     18  O   UNL     1      -0.153  -2.995  -0.253  0.00  0.00    -0.245 OA
BRANCH  17  19
ATOM     19  O   UNL     1      -0.032  -0.811  -0.655  0.00  0.00    -0.462 OA
BRANCH  19  21
ATOM     20  C   UNL     1      -1.104   0.913   0.655  0.00  0.00    +0.048 C 
ATOM     21  C   UNL     1      -0.866  -0.588   0.483  0.00  0.00    +0.229 C 
ENDBRANCH  19  21
ENDBRANCH  17  19
ENDBRANCH   1  17
BRANCH   3  22
ATOM     22  C   UNL     1       2.734  -5.316  -3.582  0.00  0.00    +0.141 C 
BRANCH  22  23
ATOM     23  C   UNL     1       1.777  -5.998  -4.526  0.00  0.00    -0.015 C 
ATOM     24  C   UNL     1       2.228  -6.575  -5.612  0.00  0.00    +0.005 C 
ENDBRANCH  22  23
ENDBRANCH   3  22
BRANCH   2  25
ATOM     25  C   UNL     1       1.110  -4.758  -1.373  0.00  0.00    -0.027 C 
BRANCH  25  26
ATOM     26  N   UNL     1       2.144  -4.942  -0.346  0.00  0.00    +0.379 N 
ATOM     27  C   UNL     1       2.217  -3.742   0.498  0.00  0.00    -0.096 C 
ATOM     28  C   UNL     1       1.806  -6.106   0.485  0.00  0.00    -0.096 C 
ATOM     29  H   UNL     1       3.037  -5.095  -0.791  0.00  0.00    -0.082 HD
ENDBRANCH  25  26
ENDBRANCH   2  25
TORSDOF 8
