REMARK  Name = ZINC10494099
REMARK  5 active torsions:
REMARK  status: ('A' for Active; 'I' for Inactive)
REMARK    1  A    between atoms: C_1  and  C_2
REMARK    2  A    between atoms: C_2  and  C_27
REMARK    3  A    between atoms: C_6  and  C_16
REMARK    4  A    between atoms: C_19  and  O_22
REMARK    5  A    between atoms: O_22  and  C_23
REMARK                            x       y       z     vdW  Elec       q    Type
REMARK                         _______ _______ _______ _____ _____    ______ ____
ROOT
ATOM      1  C   UNL     1      -2.272   2.713  -4.125  0.00  0.00    +0.011 C 
ATOM      2  C   UNL     1      -3.248   3.889  -4.194  0.00  0.00    -0.023 C 
ATOM      3  C   UNL     1      -4.489   3.582  -3.358  0.00  0.00    +0.058 C 
ATOM      4  C   UNL     1      -4.096   3.353  -1.909  0.00  0.00    +0.017 C 
ATOM      5  C   UNL     1      -3.044   3.998  -1.375  0.00  0.00    +0.036 C 
ATOM      6  C   UNL     1      -2.553   3.867   0.046  0.00  0.00    +0.137 C 
ATOM      7  N   UNL     1      -3.456   3.168   0.936  0.00  0.00    -0.318 N 
ATOM      8  C   UNL     1      -3.752   1.825   0.747  0.00  0.00    +0.119 A 
ATOM      9  C   UNL     1      -4.422   1.460  -0.414  0.00  0.00    +0.071 A 
ATOM     10  C   UNL     1      -4.610   0.121  -0.710  0.00  0.00    +0.043 A 
ATOM     11  C   UNL     1      -4.144  -0.816   0.207  0.00  0.00    +0.036 A 
ATOM     12  C   UNL     1      -3.524  -0.383   1.363  0.00  0.00    +0.099 A 
ATOM     13 BR   UNL     1      -4.356  -2.665  -0.126  0.00  0.00    -0.049 Br
ATOM     14  N   UNL     1      -4.887   2.480  -1.234  0.00  0.00    -0.315 N 
ATOM     15  C   UNL     1      -2.284   4.894  -2.164  0.00  0.00    +0.163 C 
ATOM     16  O   UNL     1      -1.351   5.479  -1.652  0.00  0.00    -0.292 OA
ATOM     17  C   UNL     1      -2.591   5.145  -3.610  0.00  0.00    +0.086 C 
ATOM     18  C   UNL     1      -3.652   4.144  -5.648  0.00  0.00    +0.011 C 
ATOM     19  H   UNL     1      -3.861   3.647   1.676  0.00  0.00    +0.148 HD
ATOM     20  H   UNL     1      -5.847   2.575  -1.332  0.00  0.00    +0.152 HD
ATOM     21  N   UNL     1      -3.312   0.926   1.670  0.00  0.00    -0.347 N 
ATOM     22  H   UNL     1      -2.852   1.217   2.540  0.00  0.00    +0.167 HD
ENDROOT
BRANCH   6  23
ATOM     23  C   UNL     1      -1.237   3.133   0.030  0.00  0.00    -0.022 A 
ATOM     24  C   UNL     1      -1.182   1.824  -0.410  0.00  0.00    +0.009 A 
ATOM     25  C   UNL     1       0.022   1.147  -0.421  0.00  0.00    +0.046 A 
ATOM     26  C   UNL     1       1.179   1.786   0.000  0.00  0.00    +0.120 A 
ATOM     27  C   UNL     1       1.122   3.102   0.437  0.00  0.00    +0.046 A 
ATOM     28  C   UNL     1      -0.086   3.772   0.451  0.00  0.00    +0.009 A 
BRANCH  26  29
ATOM     29  O   UNL     1       2.366   1.125  -0.015  0.00  0.00    -0.495 OA
ATOM     30  C   UNL     1       3.516   1.846   0.433  0.00  0.00    +0.277 C 
ENDBRANCH  26  29
ENDBRANCH   6  23
TORSDOF 2
