REMARK  Name = ZINC18196867
REMARK  3 active torsions:
REMARK  status: ('A' for Active; 'I' for Inactive)
REMARK    1  A    between atoms: C_1  and  O_2
REMARK    2  A    between atoms: O_2  and  C_3
REMARK    3  A    between atoms: C_6  and  C_9
REMARK                            x       y       z     vdW  Elec       q    Type
REMARK                         _______ _______ _______ _____ _____    ______ ____
ROOT
ATOM      1  C   UNL     1       3.684   2.179  -0.033  0.00  0.00    +0.086 C 
ATOM      2  C   UNL     1       2.390   1.417  -0.015  0.00  0.00    -0.011 A 
ATOM      3  C   UNL     1       2.407   0.033  -0.019  0.00  0.00    +0.056 A 
ATOM      4  C   UNL     1       1.220  -0.680  -0.011  0.00  0.00    +0.167 A 
ATOM      5  C   UNL     1       0.002  -0.004   0.002  0.00  0.00    +0.168 A 
ATOM      6  C   UNL     1      -0.017   1.380   0.010  0.00  0.00    +0.073 A 
ATOM      7  C   UNL     1       1.177   2.090   0.002  0.00  0.00    +0.039 A 
ATOM      8  N   UNL     1       1.162   3.486   0.013  0.00  0.00    -0.317 N 
ATOM      9  C   UNL     1       2.269   4.187   0.397  0.00  0.00    +0.016 C 
ATOM     10  C   UNL     1       3.491   3.612   0.391  0.00  0.00    +0.024 C 
ATOM     11  C   UNL     1       4.632   4.336   0.778  0.00  0.00    +0.162 C 
ATOM     12  O   UNL     1       5.717   3.789   0.768  0.00  0.00    -0.292 OA
ATOM     13  C   UNL     1       4.536   5.775   1.205  0.00  0.00    +0.080 C 
ATOM     14  C   UNL     1       3.343   6.426   0.498  0.00  0.00    +0.014 C 
ATOM     15  C   UNL     1       2.085   5.621   0.833  0.00  0.00    +0.051 C 
ATOM     16  O   UNL     1      -1.007  -0.923   0.004  0.00  0.00    -0.453 OA
ATOM     17  C   UNL     1      -0.397  -2.164   0.405  0.00  0.00    +0.466 C 
ATOM     18  O   UNL     1       0.972  -2.024  -0.016  0.00  0.00    -0.453 OA
ATOM     19  H   UNL     1       0.359   3.962  -0.253  0.00  0.00    +0.152 HD
ENDROOT
BRANCH   1  23
ATOM     20  C   UNL     1       5.291   2.103  -3.992  0.00  0.00    +0.120 A 
ATOM     21  C   UNL     1       6.016   1.568  -2.937  0.00  0.00    +0.046 A 
ATOM     22  C   UNL     1       5.495   1.594  -1.658  0.00  0.00    +0.008 A 
ATOM     23  C   UNL     1       4.251   2.152  -1.429  0.00  0.00    -0.035 A 
ATOM     24  C   UNL     1       3.523   2.681  -2.479  0.00  0.00    +0.008 A 
ATOM     25  C   UNL     1       4.043   2.663  -3.759  0.00  0.00    +0.046 A 
BRANCH  20  27
ATOM     26  C   UNL     1       5.000   2.647  -6.288  0.00  0.00    +0.277 C 
ATOM     27  O   UNL     1       5.802   2.078  -5.251  0.00  0.00    -0.495 OA
ENDBRANCH  20  27
ENDBRANCH   1  23
TORSDOF 2
