REMARK  Name = ZINC62182545
REMARK  6 active torsions:
REMARK  status: ('A' for Active; 'I' for Inactive)
REMARK    1  A    between atoms: C_1  and  C_2
REMARK    2  A    between atoms: C_4  and  C_15
REMARK    3  A    between atoms: C_9  and  C_12
REMARK    4  A    between atoms: C_10  and  C_11
REMARK    5  A    between atoms: C_15  and  N_16
REMARK    6  A    between atoms: C_20  and  C_23
REMARK                            x       y       z     vdW  Elec       q    Type
REMARK                         _______ _______ _______ _____ _____    ______ ____
ROOT
ATOM      1  C   UNL     1      -0.018   1.503   0.010  0.00  0.00    +0.047 C 
ATOM      2  C   UNL     1       0.002  -0.004   0.002  0.00  0.00    -0.007 A 
ATOM      3  C   UNL     1       0.006  -0.688  -1.194  0.00  0.00    +0.008 A 
ATOM      4  C   UNL     1       0.024  -2.076  -1.219  0.00  0.00    -0.063 A 
ATOM      5  C   UNL     1       0.039  -2.789  -0.053  0.00  0.00    +0.013 A 
ATOM      6  C   UNL     1       0.036  -2.115   1.171  0.00  0.00    +0.024 A 
ATOM      7  C   UNL     1       0.023  -0.707   1.201  0.00  0.00    +0.139 A 
ATOM      8  O   UNL     1       0.029  -0.327   2.493  0.00  0.00    -0.448 OA
ATOM      9  C   UNL     1       0.051  -1.401   3.310  0.00  0.00    +0.220 A 
ATOM     10  C   UNL     1       0.048  -2.542   2.568  0.00  0.00    +0.010 A 
ATOM     11  C   UNL     1       0.068  -3.958   3.083  0.00  0.00    +0.048 C 
ENDROOT
BRANCH   9  12
ATOM     12  C   UNL     1       0.064  -1.347   4.774  0.00  0.00    +0.421 C 
ATOM     13  O   UNL     1       0.055  -0.265   5.347  0.00  0.00    -0.237 OA
ATOM     14  O   UNL     1       0.085  -2.384   5.425  0.00  0.00    -0.237 OA
ENDBRANCH   9  12
BRANCH   4  15
ATOM     15  C   UNL     1       0.028  -2.801  -2.540  0.00  0.00    -0.043 C 
BRANCH  15  16
ATOM     16  N   UNL     1       1.414  -3.018  -2.975  0.00  0.00    +0.383 N 
ATOM     17  C   UNL     1       2.053  -1.722  -3.233  0.00  0.00    -0.078 C 
ATOM     18  C   UNL     1       3.521  -1.938  -3.609  0.00  0.00    -0.018 C 
ATOM     19  C   UNL     1       3.597  -2.806  -4.868  0.00  0.00    -0.001 C 
ATOM     20  C   UNL     1       2.863  -4.125  -4.613  0.00  0.00    -0.031 C 
ATOM     21  C   UNL     1       1.420  -3.828  -4.199  0.00  0.00    -0.075 C 
ATOM     22  C   UNL     1       2.866  -4.968  -5.890  0.00  0.00    +0.005 C 
ATOM     23  H   UNL     1       1.921  -3.503  -2.250  0.00  0.00    -0.081 HD
ENDBRANCH  15  16
ENDBRANCH   4  15
TORSDOF 3
