REMARK  Name = ZINC67529280
REMARK  6 active torsions:
REMARK  status: ('A' for Active; 'I' for Inactive)
REMARK    1  A    between atoms: C_4  and  C_7
REMARK    2  A    between atoms: C_7  and  N_8
REMARK    3  A    between atoms: C_12  and  C_15
REMARK    4  A    between atoms: C_15  and  N_16
REMARK    5  A    between atoms: N_19  and  C_20
REMARK    6  A    between atoms: C_20  and  C_21
REMARK                            x       y       z     vdW  Elec       q    Type
REMARK                         _______ _______ _______ _____ _____    ______ ____
ROOT
ATOM      1  N   UNL     1       7.395  -3.360   4.107  0.00  0.00    -0.299 N 
ATOM      2  C   UNL     1       8.483  -4.122   4.335  0.00  0.00    +0.300 C 
ATOM      3  O   UNL     1       9.186  -4.472   3.406  0.00  0.00    -0.253 OA
ATOM      4  N   UNL     1       8.791  -4.498   5.592  0.00  0.00    -0.296 N 
ATOM      5  H   UNL     1       6.834  -3.081   4.848  0.00  0.00    +0.150 HD
ATOM      6  H   UNL     1       8.230  -4.219   6.333  0.00  0.00    +0.150 HD
ENDROOT
BRANCH   1   7
ATOM      7  C   UNL     1       7.060  -2.952   2.740  0.00  0.00    +0.107 C 
BRANCH   7  12
ATOM      8  N   UNL     1       4.153  -0.953   1.342  0.00  0.00    +0.383 N 
ATOM      9  C   UNL     1       4.424   0.329   2.003  0.00  0.00    -0.078 C 
ATOM     10  C   UNL     1       4.807   0.083   3.464  0.00  0.00    -0.018 C 
ATOM     11  C   UNL     1       6.060  -0.796   3.517  0.00  0.00    +0.001 C 
ATOM     12  C   UNL     1       5.790  -2.099   2.760  0.00  0.00    -0.011 C 
ATOM     13  C   UNL     1       5.371  -1.772   1.325  0.00  0.00    -0.073 C 
ATOM     14  H   UNL     1       3.427  -1.441   1.844  0.00  0.00    -0.081 HD
BRANCH   8  15
ATOM     15  C   UNL     1       3.711  -0.707  -0.038  0.00  0.00    -0.043 C 
BRANCH  15  19
ATOM     16  C   UNL     1      -0.017   1.378   0.010  0.00  0.00    +0.000 A 
ATOM     17  C   UNL     1       1.171   2.086   0.002  0.00  0.00    +0.000 A 
ATOM     18  C   UNL     1       2.377   1.411  -0.013  0.00  0.00    +0.002 A 
ATOM     19  C   UNL     1       2.396   0.029  -0.020  0.00  0.00    -0.064 A 
ATOM     20  C   UNL     1       1.208  -0.679  -0.012  0.00  0.00    +0.002 A 
ATOM     21  C   UNL     1       0.002  -0.004   0.002  0.00  0.00    +0.000 A 
ENDBRANCH  15  19
ENDBRANCH   8  15
ENDBRANCH   7  12
ENDBRANCH   1   7
BRANCH   4  22
ATOM     22  C   UNL     1       9.974  -5.327   5.840  0.00  0.00    +0.153 C 
BRANCH  22  23
ATOM     23  C   UNL     1      10.094  -5.608   7.339  0.00  0.00    +0.228 C 
ATOM     24  C   UNL     1      11.390  -6.382   7.618  0.00  0.00    +0.275 C 
ATOM     25  O   UNL     1      11.464  -6.640   9.024  0.00  0.00    -0.485 OA
ATOM     26  C   UNL     1      10.335  -7.112   9.620  0.00  0.00    +0.162 A 
ATOM     27  C   UNL     1      10.424  -7.718  10.864  0.00  0.00    +0.049 A 
ATOM     28  C   UNL     1       9.286  -8.199  11.483  0.00  0.00    +0.004 A 
ATOM     29  C   UNL     1       8.055  -8.078  10.864  0.00  0.00    +0.004 A 
ATOM     30  C   UNL     1       7.960  -7.477   9.623  0.00  0.00    +0.049 A 
ATOM     31  C   UNL     1       9.099  -6.993   8.995  0.00  0.00    +0.163 A 
ATOM     32  O   UNL     1       8.990  -6.410   7.770  0.00  0.00    -0.480 OA
ENDBRANCH  22  23
ENDBRANCH   4  22
TORSDOF 6
