REMARK  Name = ZINC06323614
REMARK  9 active torsions:
REMARK  status: ('A' for Active; 'I' for Inactive)
REMARK    1  A    between atoms: C_1  and  C_2
REMARK    2  A    between atoms: C_2  and  C_3
REMARK    3  A    between atoms: C_3  and  C_4
REMARK    4  A    between atoms: C_4  and  C_5
REMARK    5  A    between atoms: C_5  and  C_7
REMARK    6  A    between atoms: C_5  and  C_9
REMARK    7  A    between atoms: C_7  and  C_8
REMARK    8  A    between atoms: C_9  and  N_10
REMARK    9  A    between atoms: C_14  and  C_15
REMARK                            x       y       z     vdW  Elec       q    Type
REMARK                         _______ _______ _______ _____ _____    ______ ____
ROOT
ATOM      1  N   UNL     1      -2.008   1.204  -1.248  0.00  0.00    -0.255 N 
ATOM      2  C   UNL     1      -2.467   0.159  -1.917  0.00  0.00    +0.258 C 
ATOM      3  O   UNL     1      -1.725  -0.578  -2.540  0.00  0.00    -0.269 OA
ATOM      4  C   UNL     1      -3.922  -0.071  -1.867  0.00  0.00    +0.077 C 
ATOM      5  C   UNL     1      -4.667  -1.057  -2.449  0.00  0.00    +0.027 C 
ATOM      6  S   UNL     1      -4.444   1.297  -0.842  0.00  0.00    -0.061 S 
ATOM      7  C   UNL     1      -2.835   2.021  -0.564  0.00  0.00    +0.121 C 
ATOM      8  S   UNL     1      -2.439   3.414   0.349  0.00  0.00    -0.027 S 
ENDROOT
BRANCH   5   9
ATOM      9  C   UNL     1      -6.072  -0.995  -2.406  0.00  0.00    -0.009 C 
ATOM     10  C   UNL     1      -6.818  -2.037  -2.867  0.00  0.00    +0.018 C 
ATOM     11  C   UNL     1      -8.281  -1.908  -2.817  0.00  0.00    +0.017 A 
ATOM     12  C   UNL     1      -9.115  -3.019  -2.947  0.00  0.00    +0.011 A 
ATOM     13  C   UNL     1     -10.483  -2.852  -2.893  0.00  0.00    +0.001 A 
ATOM     14  C   UNL     1     -11.028  -1.591  -2.711  0.00  0.00    +0.004 A 
ATOM     15  C   UNL     1     -10.211  -0.482  -2.581  0.00  0.00    +0.046 A 
ATOM     16  C   UNL     1      -8.837  -0.629  -2.632  0.00  0.00    +0.128 A 
ATOM     17  O   UNL     1      -8.009   0.438  -2.509  0.00  0.00    -0.487 OA
ATOM     18  C   UNL     1      -6.760   0.223  -1.845  0.00  0.00    +0.264 C 
ENDBRANCH   5   9
BRANCH   1  19
ATOM     19  C   UNL     1      -0.570   1.483  -1.256  0.00  0.00    +0.118 C 
BRANCH  19  20
ATOM     20  C   UNL     1       0.072   0.884  -0.004  0.00  0.00    +0.007 C 
BRANCH  20  21
ATOM     21  C   UNL     1       1.544   1.299   0.063  0.00  0.00    +0.002 C 
ATOM     22  C   UNL     1       1.638   2.812   0.266  0.00  0.00    +0.004 C 
ENDBRANCH  20  21
BRANCH  20  23
ATOM     23  C   UNL     1      -0.025  -0.642  -0.061  0.00  0.00    +0.005 C 
BRANCH  23  24
ATOM     24  C   UNL     1       0.504  -1.236   1.246  0.00  0.00    +0.000 C 
BRANCH  24  26
ATOM     25  C   UNL     1       0.936  -3.356   2.496  0.00  0.00    +0.004 C 
ATOM     26  C   UNL     1       0.407  -2.762   1.189  0.00  0.00    -0.003 C 
ENDBRANCH  24  26
ENDBRANCH  23  24
ENDBRANCH  20  23
ENDBRANCH  19  20
ENDBRANCH   1  19
TORSDOF 7
