REMARK  Name = ZINC03482527
REMARK  9 active torsions:
REMARK  status: ('A' for Active; 'I' for Inactive)
REMARK    1  A    between atoms: C_1  and  C_2
REMARK    2  A    between atoms: C_2  and  C_4
REMARK    3  A    between atoms: C_2  and  S_10
REMARK    4  A    between atoms: S_10  and  C_11
REMARK    5  A    between atoms: C_14  and  C_25
REMARK    6  A    between atoms: N_15  and  C_16
REMARK    7  A    between atoms: C_21  and  C_22
REMARK    8  A    between atoms: C_22  and  C_23
REMARK    9  A    between atoms: C_22  and  C_24
REMARK                            x       y       z     vdW  Elec       q    Type
REMARK                         _______ _______ _______ _____ _____    ______ ____
ROOT
ATOM      1  C   UNL     1       2.533  -0.042   1.241  0.00  0.00    +0.197 A 
ATOM      2  N   UNL     1       2.984   0.657   0.223  0.00  0.00    -0.122 NA
ATOM      3  N   UNL     1       4.237   0.898   0.373  0.00  0.00    -0.128 NA
ATOM      4  C   UNL     1       4.666   0.368   1.495  0.00  0.00    +0.169 A 
ATOM      5  N   UNL     1       3.586  -0.246   2.090  0.00  0.00    -0.270 N 
ENDROOT
BRANCH   4   6
ATOM      6  C   UNL     1       6.046   0.425   2.022  0.00  0.00    +0.020 A 
ATOM      7  C   UNL     1       6.440  -0.435   3.049  0.00  0.00    +0.013 A 
ATOM      8  C   UNL     1       7.728  -0.377   3.537  0.00  0.00    +0.021 A 
ATOM      9  C   UNL     1       8.631   0.532   3.011  0.00  0.00    +0.041 A 
ATOM     10  C   UNL     1       8.246   1.388   1.993  0.00  0.00    +0.021 A 
ATOM     11  C   UNL     1       6.962   1.336   1.493  0.00  0.00    +0.013 A 
ATOM     12 CL   UNL     1      10.251   0.599   3.632  0.00  0.00    -0.084 Cl
ENDBRANCH   4   6
BRANCH   5  13
ATOM     13  C   UNL     1       3.571  -0.939   3.308  0.00  0.00    +0.054 A 
ATOM     14  C   UNL     1       3.836  -2.302   3.338  0.00  0.00    +0.026 A 
ATOM     15  C   UNL     1       3.820  -2.981   4.540  0.00  0.00    +0.002 A 
ATOM     16  C   UNL     1       3.540  -2.306   5.714  0.00  0.00    +0.000 A 
ATOM     17  C   UNL     1       3.275  -0.949   5.688  0.00  0.00    +0.006 A 
ATOM     18  C   UNL     1       3.296  -0.263   4.489  0.00  0.00    -0.021 A 
BRANCH  18  19
ATOM     19  C   UNL     1       3.013   1.217   4.463  0.00  0.00    +0.015 C 
ATOM     20  C   UNL     1       1.613   1.479   5.021  0.00  0.00    +0.012 C 
ATOM     21  C   UNL     1       4.049   1.949   5.319  0.00  0.00    +0.012 C 
ENDBRANCH  18  19
ENDBRANCH   5  13
BRANCH   1  22
ATOM     22  S   UNL     1       0.879  -0.605   1.472  0.00  0.00    -0.073 S 
BRANCH  22  24
ATOM     23  C   UNL     1      -0.019   1.526   0.010  0.00  0.00    +0.029 C 
ATOM     24  C   UNL     1       0.002  -0.004   0.002  0.00  0.00    +0.137 C 
BRANCH  24  25
ATOM     25  C   UNL     1      -1.412  -0.526   0.013  0.00  0.00    +0.233 C 
ATOM     26  O   UNL     1      -1.939  -0.827   1.062  0.00  0.00    -0.274 OA
ATOM     27  N   UNL     1      -2.090  -0.657  -1.144  0.00  0.00    -0.239 N 
ATOM     28  C   UNL     1      -3.355  -1.124  -1.135  0.00  0.00    +0.303 C 
ATOM     29  O   UNL     1      -3.883  -1.426  -0.083  0.00  0.00    -0.253 OA
ATOM     30  N   UNL     1      -4.033  -1.255  -2.292  0.00  0.00    -0.313 N 
ATOM     31  H   UNL     1      -1.669  -0.416  -1.984  0.00  0.00    +0.159 HD
ATOM     32  H   UNL     1      -3.611  -1.014  -3.131  0.00  0.00    +0.146 HD
ATOM     33  H   UNL     1      -4.943  -1.591  -2.285  0.00  0.00    +0.146 HD
ENDBRANCH  24  25
ENDBRANCH  22  24
ENDBRANCH   1  22
TORSDOF 6
