REMARK  Name = ZINC23143533
REMARK  12 active torsions:
REMARK  status: ('A' for Active; 'I' for Inactive)
REMARK    1  A    between atoms: C_1  and  C_2
REMARK    2  A    between atoms: C_2  and  C_3
REMARK    3  A    between atoms: C_8  and  N_9
REMARK    4  A    between atoms: C_10  and  C_12
REMARK    5  A    between atoms: C_12  and  N_13
REMARK    6  A    between atoms: N_21  and  C_22
REMARK    7  A    between atoms: C_22  and  C_23
REMARK    8  A    between atoms: C_23  and  C_24
REMARK    9  A    between atoms: C_24  and  C_25
REMARK   10  A    between atoms: C_24  and  C_31
REMARK   11  A    between atoms: C_24  and  O_35
REMARK   12  A    between atoms: C_28  and  C_30
REMARK                            x       y       z     vdW  Elec       q    Type
REMARK                         _______ _______ _______ _____ _____    ______ ____
ROOT
ATOM      1  N   UNL     1       0.281  -0.177  -0.343  0.00  0.00    +0.387 N 
ATOM      2  C   UNL     1       0.782  -0.719  -1.613  0.00  0.00    -0.059 C 
ATOM      3  C   UNL     1       0.906  -2.242  -1.502  0.00  0.00    +0.091 C 
ATOM      4  N   UNL     1      -0.387  -2.785  -1.062  0.00  0.00    -0.289 N 
ATOM      5  C   UNL     1      -1.020  -2.197   0.129  0.00  0.00    +0.091 C 
ATOM      6  C   UNL     1      -1.068  -0.676  -0.046  0.00  0.00    -0.059 C 
ATOM      7  C   UNL     1      -0.978  -3.795  -1.731  0.00  0.00    +0.302 C 
ATOM      8  O   UNL     1      -0.490  -4.205  -2.767  0.00  0.00    -0.253 OA
ATOM      9  N   UNL     1      -2.108  -4.351  -1.252  0.00  0.00    -0.299 N 
ATOM     10  H   UNL     1      -2.594  -3.929  -0.360  0.00  0.00    +0.150 HD
ATOM     11  H   UNL     1       0.951  -0.527   0.457  0.00  0.00    -0.081 HD
ENDROOT
BRANCH   1  12
ATOM     12  C   UNL     1       0.311   1.291  -0.349  0.00  0.00    +0.019 C 
BRANCH  12  14
ATOM     13  N   UNL     1       2.012   3.085  -0.426  0.00  0.00    -0.287 N 
ATOM     14  C   UNL     1       1.740   1.765  -0.410  0.00  0.00    +0.201 C 
ATOM     15  O   UNL     1       2.645   0.959  -0.446  0.00  0.00    -0.278 OA
ATOM     16  H   UNL     1       1.196   3.816  -0.329  0.00  0.00    +0.155 HD
BRANCH  13  22
ATOM     17  C   UNL     1       3.595   4.781  -1.097  0.00  0.00    -0.026 A 
ATOM     18  C   UNL     1       4.900   5.213  -1.234  0.00  0.00    +0.005 A 
ATOM     19  C   UNL     1       5.945   4.396  -0.843  0.00  0.00    +0.000 A 
ATOM     20  C   UNL     1       5.687   3.145  -0.313  0.00  0.00    +0.002 A 
ATOM     21  C   UNL     1       4.384   2.709  -0.169  0.00  0.00    +0.023 A 
ATOM     22  C   UNL     1       3.333   3.526  -0.566  0.00  0.00    +0.036 A 
BRANCH  17  24
ATOM     23  C   UNL     1       1.941   6.454  -0.313  0.00  0.00    +0.009 C 
ATOM     24  C   UNL     1       2.457   5.673  -1.523  0.00  0.00    +0.033 C 
ENDBRANCH  17  24
ENDBRANCH  13  22
ENDBRANCH  12  14
ENDBRANCH   1  12
BRANCH   9  25
ATOM     25  C   UNL     1      -2.690  -5.519  -1.919  0.00  0.00    +0.109 C 
BRANCH  25  26
ATOM     26  C   UNL     1      -3.958  -5.949  -1.179  0.00  0.00    +0.071 C 
BRANCH  26  27
ATOM     27  C   UNL     1      -4.497  -7.240  -1.800  0.00  0.00    +0.220 C 
BRANCH  27  28
ATOM     28  C   UNL     1      -3.418  -8.292  -1.787  0.00  0.00    +0.146 A 
ATOM     29  C   UNL     1      -3.280  -9.287  -2.681  0.00  0.00    +0.048 A 
ATOM     30  C   UNL     1      -2.144 -10.033  -2.291  0.00  0.00    +0.045 A 
ATOM     31  C   UNL     1      -1.657  -9.449  -1.181  0.00  0.00    +0.102 A 
ATOM     32  O   UNL     1      -2.429  -8.392  -0.884  0.00  0.00    -0.462 OA
ATOM     33  C   UNL     1      -0.445  -9.901  -0.407  0.00  0.00    +0.086 C 
ENDBRANCH  27  28
BRANCH  27  34
ATOM     34  C   UNL     1      -5.699  -7.731  -0.991  0.00  0.00    +0.425 C 
ATOM     35  F   UNL     1      -6.742  -6.804  -1.095  0.00  0.00    -0.167 F 
ATOM     36  F   UNL     1      -6.123  -8.968  -1.490  0.00  0.00    -0.167 F 
ATOM     37  F   UNL     1      -5.332  -7.871   0.352  0.00  0.00    -0.167 F 
ENDBRANCH  27  34
BRANCH  27  38
ATOM     38  O   UNL     1      -4.901  -6.988  -3.147  0.00  0.00    -0.373 OA
ATOM     39  H   UNL     1      -5.317  -7.803  -3.758  0.00  0.00    +0.211 HD
ENDBRANCH  27  38
ENDBRANCH  26  27
ENDBRANCH  25  26
ENDBRANCH   9  25
TORSDOF 10
