REMARK  Name = ZINC38920270
REMARK  4 active torsions:
REMARK  status: ('A' for Active; 'I' for Inactive)
REMARK    1  A    between atoms: C_1  and  C_2
REMARK    2  A    between atoms: C_5  and  N_9
REMARK    3  A    between atoms: C_11  and  C_16
REMARK    4  A    between atoms: C_18  and  C_21
REMARK                            x       y       z     vdW  Elec       q    Type
REMARK                         _______ _______ _______ _____ _____    ______ ____
ROOT
ATOM      1  N   UNL     1       0.057  -4.171  -0.023  0.00  0.00    -0.269 N 
ATOM      2  C   UNL     1      -1.144  -5.015  -0.028  0.00  0.00    +0.127 C 
ATOM      3  C   UNL     1      -0.663  -6.414  -0.472  0.00  0.00    +0.104 C 
ATOM      4  C   UNL     1       0.824  -6.386  -0.047  0.00  0.00    +0.111 C 
ATOM      5  C   UNL     1       1.177  -4.915  -0.034  0.00  0.00    +0.221 C 
ATOM      6  O   UNL     1       2.305  -4.472  -0.031  0.00  0.00    -0.275 OA
ENDROOT
BRANCH   1  11
ATOM      7  C   UNL     1      -0.018   1.503   0.010  0.00  0.00    +0.044 C 
ATOM      8  C   UNL     1       0.002  -0.004   0.002  0.00  0.00    -0.049 A 
ATOM      9  C   UNL     1       0.006  -0.687  -1.200  0.00  0.00    +0.005 A 
ATOM     10  C   UNL     1       0.024  -2.068  -1.212  0.00  0.00    +0.025 A 
ATOM     11  C   UNL     1       0.039  -2.771  -0.015  0.00  0.00    +0.055 A 
ATOM     12  C   UNL     1       0.036  -2.082   1.192  0.00  0.00    +0.063 A 
ATOM     13  C   UNL     1       0.023  -0.700   1.196  0.00  0.00    +0.025 A 
ATOM     14 CL   UNL     1       0.055  -2.956   2.692  0.00  0.00    -0.082 Cl
ENDBRANCH   1  11
BRANCH   3  15
ATOM     15  C   UNL     1      -1.413  -7.499   0.257  0.00  0.00    +0.233 A 
ATOM     16  N   UNL     1      -2.143  -8.424  -0.298  0.00  0.00    -0.191 NA
ATOM     17  C   UNL     1      -2.666  -9.226   0.647  0.00  0.00    +0.202 A 
ATOM     18  N   UNL     1      -2.263  -8.807   1.821  0.00  0.00    -0.056 NA
ATOM     19  O   UNL     1      -1.437  -7.678   1.584  0.00  0.00    -0.337 OA
BRANCH  17  20
ATOM     20  C   UNL     1      -3.551 -10.392   0.400  0.00  0.00    +0.025 A 
ATOM     21  C   UNL     1      -3.903 -10.738  -0.903  0.00  0.00    +0.012 A 
ATOM     22  C   UNL     1      -4.726 -11.823  -1.128  0.00  0.00    +0.003 A 
ATOM     23  C   UNL     1      -5.203 -12.566  -0.064  0.00  0.00    +0.038 A 
ATOM     24  C   UNL     1      -4.858 -12.226   1.234  0.00  0.00    +0.124 A 
ATOM     25  C   UNL     1      -4.028 -11.146   1.469  0.00  0.00    +0.050 A 
ATOM     26  F   UNL     1      -5.327 -12.955   2.270  0.00  0.00    -0.205 F 
ENDBRANCH  17  20
ENDBRANCH   3  15
TORSDOF 3
