REMARK  Name = ZINC59417531
REMARK  3 active torsions:
REMARK  status: ('A' for Active; 'I' for Inactive)
REMARK    1  A    between atoms: C_6  and  C_7
REMARK    2  A    between atoms: N_9  and  N_10
REMARK    3  A    between atoms: C_16  and  N_20
REMARK                            x       y       z     vdW  Elec       q    Type
REMARK                         _______ _______ _______ _____ _____    ______ ____
ROOT
ATOM      1  N   UNL     1      -2.447  -2.830   0.011  0.00  0.00    -0.242 N 
ATOM      2  C   UNL     1      -2.425  -4.210   0.004  0.00  0.00    +0.176 A 
ATOM      3  N   UNL     1      -1.389  -5.018  -0.005  0.00  0.00    -0.224 NA
ATOM      4  C   UNL     1      -1.518  -6.363  -0.012  0.00  0.00    +0.080 A 
ATOM      5  C   UNL     1      -0.494  -7.338  -0.022  0.00  0.00    +0.031 A 
ATOM      6  C   UNL     1      -0.799  -8.674  -0.029  0.00  0.00    +0.035 A 
ATOM      7  C   UNL     1      -2.113  -9.117  -0.026  0.00  0.00    +0.127 A 
ATOM      8  C   UNL     1      -3.140  -8.191  -0.016  0.00  0.00    +0.050 A 
ATOM      9  C   UNL     1      -2.844  -6.851  -0.009  0.00  0.00    +0.043 A 
ATOM     10  S   UNL     1      -3.799  -5.353   0.011  0.00  0.00    -0.051 S 
ATOM     11  H   UNL     1      -3.294  -2.359   0.022  0.00  0.00    +0.172 HD
ENDROOT
BRANCH   1  14
ATOM     12  C   UNL     1      -1.266  -0.763   0.011  0.00  0.00    +0.260 C 
ATOM     13  O   UNL     1      -2.328  -0.172   0.024  0.00  0.00    -0.269 OA
ATOM     14  N   UNL     1      -1.245  -2.111   0.003  0.00  0.00    -0.231 N 
ATOM     15  H   UNL     1      -0.397  -2.582  -0.008  0.00  0.00    +0.173 HD
BRANCH  12  21
ATOM     16  C   UNL     1      -0.017   1.392   0.010  0.00  0.00    +0.014 A 
ATOM     17  C   UNL     1       1.169   2.095   0.002  0.00  0.00    +0.022 A 
ATOM     18  C   UNL     1       2.378   1.420  -0.013  0.00  0.00    +0.059 A 
ATOM     19  C   UNL     1       2.404   0.034  -0.021  0.00  0.00    +0.060 A 
ATOM     20  C   UNL     1       1.224  -0.680  -0.013  0.00  0.00    +0.034 A 
ATOM     21  C   UNL     1       0.002  -0.004   0.002  0.00  0.00    +0.040 A 
ATOM     22 CL   UNL     1       3.924  -0.804  -0.041  0.00  0.00    -0.082 Cl
ATOM     23 CL   UNL     1       3.867   2.313  -0.024  0.00  0.00    -0.082 Cl
ENDBRANCH  12  21
ENDBRANCH   1  14
BRANCH   7  24
ATOM     24  N   UNL     1      -2.414 -10.567  -0.034  0.00  0.00    +0.056 N 
ATOM     25  O   UNL     1      -1.511 -11.371  -0.043  0.00  0.00    -0.126 OA
ATOM     26  O   UNL     1      -3.562 -10.946  -0.032  0.00  0.00    -0.126 OA
ENDBRANCH   7  24
TORSDOF 3
