REMARK  Name = ZINC13501240
REMARK  10 active torsions:
REMARK  status: ('A' for Active; 'I' for Inactive)
REMARK    1  A    between atoms: C_1  and  C_2
REMARK    2  A    between atoms: C_9  and  C_14
REMARK    3  A    between atoms: C_14  and  N_70
REMARK    4  A    between atoms: C_15  and  C_16
REMARK    5  A    between atoms: C_15  and  N_70
REMARK    6  A    between atoms: C_16  and  C_17
REMARK    7  A    between atoms: C_17  and  O_18
REMARK    8  A    between atoms: C_19  and  C_24
REMARK    9  A    between atoms: C_19  and  N_70
REMARK   10  A    between atoms: N_28  and  C_29
REMARK                            x       y       z     vdW  Elec       q    Type
REMARK                         _______ _______ _______ _____ _____    ______ ____
ROOT
ATOM      1  N   UNL     1      -0.260   0.042  -0.263  0.00  0.00    +0.391 N 
ATOM      2  H   UNL     1      -0.135  -0.592  -1.061  0.00  0.00    -0.080 HD
ENDROOT
BRANCH   1   3
ATOM      3  C   UNL     1       0.170   1.400  -0.656  0.00  0.00    -0.002 C 
ATOM      4  C   UNL     1       0.157   2.355   0.550  0.00  0.00    -0.004 C 
ATOM      5  C   UNL     1      -0.841   3.482   0.208  0.00  0.00    -0.001 C 
ATOM      6  C   UNL     1      -1.784   2.848  -0.844  0.00  0.00    -0.001 C 
ATOM      7  C   UNL     1      -0.819   1.979  -1.688  0.00  0.00    -0.004 C 
BRANCH   3   8
ATOM      8  C   UNL     1       1.555   1.335  -1.247  0.00  0.00    +0.141 A 
ATOM      9  N   UNL     1       2.298   0.264  -1.383  0.00  0.00    -0.115 NA
ATOM     10  N   UNL     1       3.409   0.617  -1.932  0.00  0.00    -0.023 NA
ATOM     11  N   UNL     1       3.397   1.887  -2.142  0.00  0.00    -0.044 NA
ATOM     12  N   UNL     1       2.271   2.366  -1.733  0.00  0.00    -0.228 N 
BRANCH  12  13
ATOM     13  C   UNL     1       1.850   3.768  -1.788  0.00  0.00    +0.111 C 
ATOM     14  C   UNL     1       1.841   4.242  -3.242  0.00  0.00    +0.027 C 
ATOM     15  C   UNL     1       1.402   5.706  -3.299  0.00  0.00    +0.002 C 
ATOM     16  C   UNL     1       2.378   6.563  -2.490  0.00  0.00    +0.000 C 
ATOM     17  C   UNL     1       2.387   6.089  -1.035  0.00  0.00    +0.002 C 
ATOM     18  C   UNL     1       2.826   4.625  -0.978  0.00  0.00    +0.027 C 
ENDBRANCH  12  13
ENDBRANCH   3   8
ENDBRANCH   1   3
BRANCH   1  19
ATOM     19  C   UNL     1      -1.687   0.055   0.122  0.00  0.00    -0.036 C 
BRANCH  19  28
ATOM     20  C   UNL     1      -3.811  -5.640   4.443  0.00  0.00    +0.044 C 
ATOM     21  C   UNL     1      -3.526  -5.058   3.082  0.00  0.00    -0.050 A 
ATOM     22  C   UNL     1      -3.691  -5.843   1.949  0.00  0.00    +0.005 A 
ATOM     23  C   UNL     1      -3.438  -5.330   0.695  0.00  0.00    +0.026 A 
ATOM     24  C   UNL     1      -3.010  -4.013   0.561  0.00  0.00    +0.049 A 
ATOM     25  C   UNL     1      -2.844  -3.220   1.712  0.00  0.00    -0.001 A 
ATOM     26  C   UNL     1      -3.108  -3.762   2.975  0.00  0.00    +0.013 A 
ATOM     27  C   UNL     1      -2.389  -1.837   1.562  0.00  0.00    +0.017 A 
ATOM     28  C   UNL     1      -2.152  -1.366   0.312  0.00  0.00    +0.001 A 
ATOM     29  C   UNL     1      -2.334  -2.203  -0.809  0.00  0.00    +0.251 A 
ATOM     30  O   UNL     1      -2.112  -1.760  -1.923  0.00  0.00    -0.268 OA
ATOM     31  N   UNL     1      -2.748  -3.475  -0.680  0.00  0.00    -0.322 N 
ATOM     32  H   UNL     1      -2.863  -4.023  -1.473  0.00  0.00    +0.169 HD
ENDBRANCH  19  28
ENDBRANCH   1  19
BRANCH   1  33
ATOM     33  C   UNL     1       0.563  -0.442   0.866  0.00  0.00    -0.075 C 
BRANCH  33  34
ATOM     34  C   UNL     1       0.603  -1.971   0.821  0.00  0.00    +0.009 C 
BRANCH  34  35
ATOM     35  C   UNL     1       1.553  -2.488   1.903  0.00  0.00    +0.154 C 
BRANCH  35  36
ATOM     36  O   UNL     1       1.590  -3.916   1.861  0.00  0.00    -0.395 OA
ATOM     37  H   UNL     1       2.174  -4.314   2.521  0.00  0.00    +0.209 HD
ENDBRANCH  35  36
ENDBRANCH  34  35
ENDBRANCH  33  34
ENDBRANCH   1  33
TORSDOF 9
