REMARK  Name = ZINC08962002
REMARK  5 active torsions:
REMARK  status: ('A' for Active; 'I' for Inactive)
REMARK    1  A    between atoms: C_1  and  C_2
REMARK    2  A    between atoms: C_5  and  S_9
REMARK    3  A    between atoms: S_9  and  N_12
REMARK    4  A    between atoms: N_12  and  C_13
REMARK    5  A    between atoms: C_23  and  C_26
REMARK                            x       y       z     vdW  Elec       q    Type
REMARK                         _______ _______ _______ _____ _____    ______ ____
ROOT
ATOM      1  C   UNL     1      -3.516   3.146  -2.351  0.00  0.00    +0.049 A 
ATOM      2  C   UNL     1      -4.322   2.118  -1.874  0.00  0.00    +0.028 A 
ATOM      3  C   UNL     1      -4.624   1.035  -2.678  0.00  0.00    +0.048 A 
ATOM      4  C   UNL     1      -4.123   0.969  -3.967  0.00  0.00    +0.133 A 
ATOM      5  C   UNL     1      -3.306   2.002  -4.452  0.00  0.00    +0.080 A 
ATOM      6  C   UNL     1      -3.010   3.094  -3.640  0.00  0.00    +0.041 A 
ATOM      7  C   UNL     1      -2.775   1.908  -5.826  0.00  0.00    +0.248 C 
ATOM      8  O   UNL     1      -1.598   2.112  -6.049  0.00  0.00    -0.270 OA
ATOM      9  N   UNL     1      -3.623   1.591  -6.833  0.00  0.00    -0.308 N 
ATOM     10  C   UNL     1      -5.055   1.456  -6.556  0.00  0.00    +0.148 C 
ATOM     11  C   UNL     1      -5.344   0.149  -5.830  0.00  0.00    +0.187 C 
ATOM     12  O   UNL     1      -4.417  -0.081  -4.776  0.00  0.00    -0.487 OA
ATOM     13  C   UNL     1      -5.259  -1.007  -6.829  0.00  0.00    +0.053 C 
ATOM     14  H   UNL     1      -3.285   1.454  -7.732  0.00  0.00    +0.149 HD
ENDROOT
BRANCH   1  15
ATOM     15  N   UNL     1      -3.219   4.239  -1.528  0.00  0.00    -0.216 N 
ATOM     16  H   UNL     1      -3.272   5.140  -1.881  0.00  0.00    +0.174 HD
BRANCH  15  17
ATOM     17  S   UNL     1      -2.777   3.992   0.049  0.00  0.00    +0.072 S 
ATOM     18  O   UNL     1      -3.733   3.100   0.604  0.00  0.00    -0.150 OA
ATOM     19  O   UNL     1      -2.519   5.274   0.603  0.00  0.00    -0.150 OA
BRANCH  17  24
ATOM     20  C   UNL     1       2.490   1.047  -0.016  0.00  0.00    +0.045 C 
ATOM     21  C   UNL     1       1.175   1.783   0.000  0.00  0.00    -0.032 A 
ATOM     22  C   UNL     1      -0.013   1.076   0.008  0.00  0.00    +0.007 A 
ATOM     23  C   UNL     1      -1.219   1.750   0.017  0.00  0.00    +0.029 A 
ATOM     24  C   UNL     1      -1.238   3.133   0.030  0.00  0.00    +0.110 A 
ATOM     25  C   UNL     1      -0.052   3.841   0.022  0.00  0.00    +0.049 A 
ATOM     26  C   UNL     1       1.156   3.166   0.008  0.00  0.00    +0.046 A 
ATOM     27 CL   UNL     1       2.647   4.055  -0.003  0.00  0.00    -0.083 Cl
ENDBRANCH  17  24
ENDBRANCH  15  17
ENDBRANCH   1  15
TORSDOF 3
