REMARK  Name = ZINC32903937
REMARK  4 active torsions:
REMARK  status: ('A' for Active; 'I' for Inactive)
REMARK    1  A    between atoms: C_9  and  C_18
REMARK    2  A    between atoms: C_18  and  N_19
REMARK    3  A    between atoms: C_20  and  C_22
REMARK    4  A    between atoms: C_25  and  N_27
REMARK                            x       y       z     vdW  Elec       q    Type
REMARK                         _______ _______ _______ _____ _____    ______ ____
ROOT
ATOM      1  C   UNL     1       1.252  -1.450  -3.293  0.00  0.00    +0.000 A 
ATOM      2  C   UNL     1       2.533  -0.931  -3.301  0.00  0.00    +0.000 A 
ATOM      3  C   UNL     1       2.974  -0.129  -2.256  0.00  0.00    +0.004 A 
ATOM      4  C   UNL     1       2.120   0.135  -1.223  0.00  0.00    -0.036 A 
ATOM      5  C   UNL     1       0.829  -0.389  -1.215  0.00  0.00    -0.036 A 
ATOM      6  C   UNL     1       0.388  -1.178  -2.239  0.00  0.00    +0.004 A 
ATOM      7  C   UNL     1       0.002  -0.004   0.002  0.00  0.00    +0.050 C 
ATOM      8  C   UNL     1      -0.019   1.540   0.011  0.00  0.00    +0.018 C 
ATOM      9  C   UNL     1       1.395   2.115   0.000  0.00  0.00    +0.019 C 
ATOM     10  C   UNL     1       2.458   0.994  -0.015  0.00  0.00    +0.054 C 
ATOM     11  C   UNL     1       2.141   0.123   1.191  0.00  0.00    -0.036 A 
ATOM     12  C   UNL     1       0.851  -0.402   1.200  0.00  0.00    -0.036 A 
ATOM     13  C   UNL     1       0.429  -1.202   2.223  0.00  0.00    +0.004 A 
ATOM     14  C   UNL     1       1.311  -1.486   3.258  0.00  0.00    +0.000 A 
ATOM     15  C   UNL     1       2.592  -0.965   3.249  0.00  0.00    +0.000 A 
ATOM     16  C   UNL     1       3.014  -0.152   2.205  0.00  0.00    +0.004 A 
ENDROOT
BRANCH   9  17
ATOM     17  C   UNL     1       1.595   2.977   1.248  0.00  0.00    +0.109 C 
BRANCH  17  18
ATOM     18  N   UNL     1       0.700   4.136   1.189  0.00  0.00    -0.309 N 
ATOM     19  C   UNL     1       0.702   5.040   2.188  0.00  0.00    +0.279 C 
ATOM     20  O   UNL     1       1.447   4.894   3.140  0.00  0.00    -0.267 OA
ATOM     21  H   UNL     1       0.027   4.268   0.329  0.00  0.00    +0.149 HD
BRANCH  19  22
ATOM     22  C   UNL     1      -0.193   6.200   2.129  0.00  0.00    +0.192 A 
ATOM     23  C   UNL     1      -0.296   7.183   3.071  0.00  0.00    +0.057 A 
ATOM     24  C   UNL     1      -1.265   8.087   2.608  0.00  0.00    +0.076 A 
ATOM     25  C   UNL     1      -1.712   7.617   1.423  0.00  0.00    +0.280 A 
ATOM     26  O   UNL     1      -1.064   6.480   1.137  0.00  0.00    -0.429 OA
BRANCH  25  27
ATOM     27  N   UNL     1      -2.748   8.253   0.578  0.00  0.00    +0.093 N 
ATOM     28  O   UNL     1      -3.273   9.292   0.937  0.00  0.00    -0.123 OA
ATOM     29  O   UNL     1      -3.075   7.739  -0.476  0.00  0.00    -0.123 OA
ENDBRANCH  25  27
ENDBRANCH  19  22
ENDBRANCH  17  18
ENDBRANCH   9  17
TORSDOF 4
