REMARK  Name = ZINC04727540
REMARK  7 active torsions:
REMARK  status: ('A' for Active; 'I' for Inactive)
REMARK    1  A    between atoms: C_1  and  C_2
REMARK    2  A    between atoms: C_2  and  C_30
REMARK    3  A    between atoms: C_4  and  N_9
REMARK    4  A    between atoms: C_6  and  C_7
REMARK    5  A    between atoms: C_6  and  C_8
REMARK    6  A    between atoms: C_10  and  C_12
REMARK    7  A    between atoms: N_16  and  C_19
REMARK                            x       y       z     vdW  Elec       q    Type
REMARK                         _______ _______ _______ _____ _____    ______ ____
ROOT
ATOM      1  C   UNL     1       2.426   0.940   0.191  0.00  0.00    +0.102 A 
ATOM      2  C   UNL     1       3.627   1.636   0.191  0.00  0.00    +0.031 A 
ATOM      3  C   UNL     1       4.837   0.908   0.184  0.00  0.00    +0.038 A 
ATOM      4  C   UNL     1       4.828  -0.477   0.184  0.00  0.00    +0.038 A 
ATOM      5  N   UNL     1       3.660  -1.154   0.180  0.00  0.00    -0.280 N 
ATOM      6  C   UNL     1       2.474  -0.524   0.190  0.00  0.00    +0.268 A 
ATOM      7  O   UNL     1       1.440  -1.169   0.192  0.00  0.00    -0.266 OA
ATOM      8  C   UNL     1       6.109  -1.270   0.189  0.00  0.00    +0.055 C 
ATOM      9  C   UNL     1       7.272  -0.452  -0.365  0.00  0.00    +0.014 C 
ATOM     10  C   UNL     1       7.384   0.862   0.420  0.00  0.00    +0.080 C 
ATOM     11  C   UNL     1       6.112   1.645   0.170  0.00  0.00    +0.165 C 
ATOM     12  O   UNL     1       6.143   2.840  -0.036  0.00  0.00    -0.292 OA
ENDROOT
BRANCH   5  13
ATOM     13  C   UNL     1       3.686  -2.554   0.171  0.00  0.00    +0.050 A 
ATOM     14  C   UNL     1       3.275  -3.251  -0.958  0.00  0.00    +0.026 A 
ATOM     15  C   UNL     1       3.307  -4.631  -0.964  0.00  0.00    +0.002 A 
ATOM     16  C   UNL     1       3.736  -5.320   0.155  0.00  0.00    +0.000 A 
ATOM     17  C   UNL     1       4.142  -4.629   1.283  0.00  0.00    +0.002 A 
ATOM     18  C   UNL     1       4.118  -3.248   1.294  0.00  0.00    +0.026 A 
ENDBRANCH   5  13
BRANCH   1  20
ATOM     19  N   UNL     1      -0.013   0.965   0.314  0.00  0.00    -0.308 N 
ATOM     20  C   UNL     1       1.139   1.654   0.199  0.00  0.00    +0.250 C 
ATOM     21  O   UNL     1       1.116   2.866   0.102  0.00  0.00    -0.270 OA
ATOM     22  H   UNL     1       0.000  -0.005   0.322  0.00  0.00    +0.149 HD
BRANCH  19  26
ATOM     23  C   UNL     1      -3.886   2.547  -1.069  0.00  0.00    -0.010 C 
ATOM     24  C   UNL     1      -3.762   1.494   0.039  0.00  0.00    -0.072 C 
ATOM     25  C   UNL     1      -2.418   0.781  -0.082  0.00  0.00    +0.009 C 
ATOM     26  C   UNL     1      -1.290   1.682   0.421  0.00  0.00    +0.071 C 
ATOM     27  C   UNL     1      -1.556   2.020   1.888  0.00  0.00    +0.009 C 
ATOM     28  C   UNL     1      -2.890   2.749   2.031  0.00  0.00    -0.072 C 
ATOM     29  C   UNL     1      -2.737   4.197   1.549  0.00  0.00    -0.010 C 
ATOM     30  C   UNL     1      -3.231   2.803   3.537  0.00  0.00    -0.010 C 
ATOM     31  C   UNL     1      -4.869   0.443  -0.204  0.00  0.00    -0.010 C 
ATOM     32  N   UNL     1      -4.045   2.076   1.378  0.00  0.00    +0.386 N 
ATOM     33  H   UNL     1      -4.361   1.318   1.994  0.00  0.00    -0.084 HD
ATOM     34  H   UNL     1      -4.797   2.767   1.272  0.00  0.00    -0.084 HD
ENDBRANCH  19  26
ENDBRANCH   1  20
TORSDOF 3
