REMARK  Name = ZINC16963470
REMARK  4 active torsions:
REMARK  status: ('A' for Active; 'I' for Inactive)
REMARK    1  A    between atoms: C_1  and  C_2
REMARK    2  A    between atoms: C_9  and  C_25
REMARK    3  A    between atoms: C_10  and  N_11
REMARK    4  A    between atoms: C_12  and  C_14
REMARK                            x       y       z     vdW  Elec       q    Type
REMARK                         _______ _______ _______ _____ _____    ______ ____
ROOT
ATOM      1  C   UNL     1       3.073   9.528  -1.913  0.00  0.00    +0.044 C 
ATOM      2  C   UNL     1       2.539   8.383  -1.092  0.00  0.00    -0.046 A 
ATOM      3  C   UNL     1       2.610   7.068  -1.585  0.00  0.00    +0.021 A 
ATOM      4  C   UNL     1       2.134   6.040  -0.854  0.00  0.00    +0.095 A 
ATOM      5  N   UNL     1       1.575   6.259   0.375  0.00  0.00    -0.287 N 
ATOM      6  C   UNL     1       1.488   7.534   0.882  0.00  0.00    +0.140 A 
ATOM      7  C   UNL     1       1.979   8.618   0.125  0.00  0.00    +0.050 A 
ATOM      8  N   UNL     1       0.919   7.475   2.076  0.00  0.00    -0.226 NA
ATOM      9  C   UNL     1       0.625   6.196   2.365  0.00  0.00    +0.112 A 
ATOM     10  C   UNL     1       1.028   5.414   1.302  0.00  0.00    +0.137 A 
ENDROOT
BRANCH   9  11
ATOM     11  C   UNL     1      -0.020   5.710   3.607  0.00  0.00    +0.004 A 
ATOM     12  C   UNL     1      -0.906   4.634   3.561  0.00  0.00    +0.010 A 
ATOM     13  C   UNL     1      -1.500   4.183   4.723  0.00  0.00    +0.001 A 
ATOM     14  C   UNL     1      -1.226   4.802   5.929  0.00  0.00    +0.000 A 
ATOM     15  C   UNL     1      -0.352   5.873   5.980  0.00  0.00    +0.001 A 
ATOM     16  C   UNL     1       0.252   6.330   4.826  0.00  0.00    +0.010 A 
ENDBRANCH   9  11
BRANCH  10  17
ATOM     17  N   UNL     1       0.908   4.028   1.196  0.00  0.00    -0.269 N 
ATOM     18  C   UNL     1       0.755   3.456  -0.015  0.00  0.00    +0.225 C 
ATOM     19  O   UNL     1       0.610   4.149  -1.000  0.00  0.00    -0.275 OA
ATOM     20  H   UNL     1       0.934   3.476   1.993  0.00  0.00    +0.156 HD
BRANCH  18  21
ATOM     21  C   UNL     1       0.764   1.954  -0.145  0.00  0.00    +0.117 C 
ATOM     22  C   UNL     1       0.545   1.562  -1.609  0.00  0.00    +0.055 C 
ATOM     23  C   UNL     1       0.258   0.085  -1.701  0.00  0.00    -0.005 A 
ATOM     24  C   UNL     1       0.394  -0.545  -2.927  0.00  0.00    +0.007 A 
ATOM     25  C   UNL     1       0.131  -1.895  -3.050  0.00  0.00    +0.000 A 
ATOM     26  C   UNL     1      -0.269  -2.625  -1.946  0.00  0.00    +0.004 A 
ATOM     27  C   UNL     1      -0.403  -2.003  -0.721  0.00  0.00    +0.046 A 
ATOM     28  C   UNL     1      -0.138  -0.643  -0.593  0.00  0.00    +0.124 A 
ATOM     29  O   UNL     1      -0.278  -0.068   0.629  0.00  0.00    -0.491 OA
ATOM     30  C   UNL     1      -0.375   1.356   0.690  0.00  0.00    +0.242 C 
ENDBRANCH  18  21
ENDBRANCH  10  17
TORSDOF 3
