REMARK  Name = ZINC18354818
REMARK  11 active torsions:
REMARK  status: ('A' for Active; 'I' for Inactive)
REMARK    1  A    between atoms: C_1  and  C_2
REMARK    2  A    between atoms: N_10  and  N_14
REMARK    3  A    between atoms: C_15  and  C_17
REMARK    4  A    between atoms: C_17  and  O_18
REMARK    5  A    between atoms: O_18  and  C_19
REMARK    6  A    between atoms: C_19  and  C_21
REMARK    7  A    between atoms: C_21  and  C_23
REMARK    8  A    between atoms: C_21  and  N_26
REMARK    9  A    between atoms: C_23  and  C_24
REMARK   10  A    between atoms: C_23  and  C_25
REMARK   11  A    between atoms: C_27  and  C_29
REMARK                            x       y       z     vdW  Elec       q    Type
REMARK                         _______ _______ _______ _____ _____    ______ ____
ROOT
ATOM      1  C   UNL     1      -3.125   1.714   4.880  0.00  0.00    +0.329 C 
ENDROOT
BRANCH   1   3
ATOM      2  N   UNL     1      -2.956   1.601   7.345  0.00  0.00    -0.221 N 
ATOM      3  C   UNL     1      -2.450   1.252   6.146  0.00  0.00    +0.267 C 
ATOM      4  O   UNL     1      -1.452   0.566   6.085  0.00  0.00    -0.271 OA
ATOM      5  H   UNL     1      -3.754   2.149   7.394  0.00  0.00    +0.174 HD
BRANCH   2  15
ATOM      6  C   UNL     1       0.802  -0.295  14.074  0.00  0.00    +0.007 C 
ATOM      7  C   UNL     1       0.346   0.619  12.935  0.00  0.00    -0.014 C 
ATOM      8  C   UNL     1       0.854   0.066  11.602  0.00  0.00    +0.006 C 
ATOM      9  C   UNL     1       0.407   0.988  10.465  0.00  0.00    +0.035 C 
ATOM     10  C   UNL     1      -1.115   1.079  10.449  0.00  0.00    +0.114 C 
ATOM     11  C   UNL     1      -1.638   1.606  11.781  0.00  0.00    +0.035 C 
ATOM     12  C   UNL     1      -1.183   0.682  12.913  0.00  0.00    +0.006 C 
ATOM     13  C   UNL     1      -1.578   1.964   9.314  0.00  0.00    +0.263 C 
ATOM     14  O   UNL     1      -1.327   3.139   9.150  0.00  0.00    -0.271 OA
ATOM     15  N   UNL     1      -2.328   1.171   8.522  0.00  0.00    -0.137 N 
ATOM     16  C   UNL     1      -2.403  -0.077   9.002  0.00  0.00    +0.326 C 
ATOM     17  O   UNL     1      -3.026  -0.971   8.465  0.00  0.00    -0.251 OA
ATOM     18  N   UNL     1      -1.707  -0.230  10.145  0.00  0.00    -0.284 N 
ATOM     19  H   UNL     1      -1.618  -1.043  10.666  0.00  0.00    +0.151 HD
ENDBRANCH   2  15
ENDBRANCH   1   3
BRANCH   1  20
ATOM     20  O   UNL     1      -2.395   1.211   3.731  0.00  0.00    -0.454 OA
BRANCH  20  21
ATOM     21  C   UNL     1      -2.870   1.536   2.518  0.00  0.00    +0.328 C 
ATOM     22  O   UNL     1      -3.862   2.217   2.420  0.00  0.00    -0.249 OA
BRANCH  21  23
ATOM     23  C   UNL     1      -2.164   1.050   1.278  0.00  0.00    +0.185 C 
BRANCH  23  24
ATOM     24  N   UNL     1      -2.873   1.535   0.091  0.00  0.00    -0.298 N 
ATOM     25  C   UNL     1      -2.772   0.866  -1.075  0.00  0.00    +0.245 C 
ATOM     26  O   UNL     1      -2.093  -0.140  -1.141  0.00  0.00    -0.270 OA
ATOM     27  H   UNL     1      -3.414   2.338   0.144  0.00  0.00    +0.150 HD
BRANCH  25  28
ATOM     28  C   UNL     1      -3.487   1.355  -2.272  0.00  0.00    +0.037 A 
ATOM     29  C   UNL     1      -4.272   2.507  -2.197  0.00  0.00    +0.014 A 
ATOM     30  C   UNL     1      -4.931   2.963  -3.320  0.00  0.00    +0.021 A 
ATOM     31  C   UNL     1      -4.826   2.273  -4.516  0.00  0.00    +0.041 A 
ATOM     32  C   UNL     1      -4.053   1.126  -4.595  0.00  0.00    +0.021 A 
ATOM     33  C   UNL     1      -3.384   0.664  -3.481  0.00  0.00    +0.014 A 
ATOM     34 CL   UNL     1      -5.665   2.849  -5.923  0.00  0.00    -0.084 Cl
ENDBRANCH  25  28
ENDBRANCH  23  24
BRANCH  23  35
ATOM     35  C   UNL     1      -0.729   1.579   1.267  0.00  0.00    +0.014 C 
ATOM     36  C   UNL     1      -0.013   1.086   0.008  0.00  0.00    +0.009 C 
ATOM     37  C   UNL     1       0.011   1.072   2.506  0.00  0.00    +0.009 C 
ENDBRANCH  23  35
ENDBRANCH  21  23
ENDBRANCH  20  21
ENDBRANCH   1  20
TORSDOF 8
