REMARK  Name = ZINC16602854
REMARK  15 active torsions:
REMARK  status: ('A' for Active; 'I' for Inactive)
REMARK    1  A    between atoms: C_1  and  C_2
REMARK    2  A    between atoms: C_2  and  O_3
REMARK    3  A    between atoms: O_3  and  C_4
REMARK    4  A    between atoms: C_4  and  C_6
REMARK    5  A    between atoms: C_7  and  C_38
REMARK    6  A    between atoms: N_8  and  C_24
REMARK    7  A    between atoms: C_12  and  C_14
REMARK    8  A    between atoms: C_17  and  C_20
REMARK    9  A    between atoms: C_24  and  C_25
REMARK   10  A    between atoms: C_29  and  C_31
REMARK   11  A    between atoms: N_33  and  C_34
REMARK   12  A    between atoms: C_34  and  C_35
REMARK   13  A    between atoms: C_35  and  N_70
REMARK   14  A    between atoms: C_36  and  N_70
REMARK   15  A    between atoms: C_37  and  N_70
REMARK                            x       y       z     vdW  Elec       q    Type
REMARK                         _______ _______ _______ _____ _____    ______ ____
ROOT
ATOM      1  C   UNL     1      -2.669   1.433   2.502  0.00  0.00    +0.061 C 
ATOM      2  C   UNL     1      -1.757   0.845   1.710  0.00  0.00    +0.021 C 
ATOM      3  N   UNL     1      -0.611   1.498   1.342  0.00  0.00    -0.271 N 
ATOM      4  C   UNL     1      -0.217   2.618   1.974  0.00  0.00    +0.221 C 
ATOM      5  O   UNL     1       0.753   3.226   1.578  0.00  0.00    -0.275 OA
ATOM      6  C   UNL     1      -0.981   3.122   3.171  0.00  0.00    +0.109 C 
ATOM      7  C   UNL     1      -2.474   2.850   2.974  0.00  0.00    +0.066 C 
ATOM      8  C   UNL     1      -1.998  -0.558   1.218  0.00  0.00    +0.061 C 
ENDROOT
BRANCH   7   9
ATOM      9  C   UNL     1      -3.027   3.803   1.946  0.00  0.00    -0.039 A 
ATOM     10  C   UNL     1      -2.512   3.810   0.663  0.00  0.00    +0.005 A 
ATOM     11  C   UNL     1      -3.022   4.681  -0.282  0.00  0.00    +0.012 A 
ATOM     12  C   UNL     1      -4.040   5.551   0.058  0.00  0.00    +0.055 A 
ATOM     13  C   UNL     1      -4.552   5.548   1.343  0.00  0.00    +0.012 A 
ATOM     14  C   UNL     1      -4.045   4.674   2.287  0.00  0.00    +0.005 A 
BRANCH  12  15
ATOM     15  C   UNL     1      -4.593   6.503  -0.971  0.00  0.00    +0.417 C 
ATOM     16  F   UNL     1      -3.873   7.701  -0.932  0.00  0.00    -0.166 F 
ATOM     17  F   UNL     1      -4.481   5.932  -2.243  0.00  0.00    -0.166 F 
ATOM     18  F   UNL     1      -5.940   6.760  -0.692  0.00  0.00    -0.166 F 
ENDBRANCH  12  15
ENDBRANCH   7   9
BRANCH   1  19
ATOM     19  C   UNL     1      -3.823   0.714   2.896  0.00  0.00    +0.337 C 
ATOM     20  O   UNL     1      -3.986  -0.430   2.517  0.00  0.00    -0.245 OA
BRANCH  19  21
ATOM     21  O   UNL     1      -4.743   1.299   3.692  0.00  0.00    -0.462 OA
BRANCH  21  23
ATOM     22  C   UNL     1      -6.807   1.340   4.948  0.00  0.00    +0.048 C 
ATOM     23  C   UNL     1      -5.883   0.515   4.050  0.00  0.00    +0.229 C 
ENDBRANCH  21  23
ENDBRANCH  19  21
ENDBRANCH   1  19
BRANCH   3  24
ATOM     24  C   UNL     1       0.202   0.966   0.245  0.00  0.00    +0.148 C 
BRANCH  24  25
ATOM     25  C   UNL     1      -0.351   1.449  -1.071  0.00  0.00    -0.029 A 
ATOM     26  C   UNL     1       0.104   2.636  -1.617  0.00  0.00    +0.005 A 
ATOM     27  C   UNL     1      -0.398   3.086  -2.825  0.00  0.00    +0.001 A 
ATOM     28  C   UNL     1      -1.358   2.353  -3.493  0.00  0.00    +0.013 A 
ATOM     29  C   UNL     1      -1.822   1.155  -2.947  0.00  0.00    +0.037 A 
ATOM     30  C   UNL     1      -1.307   0.704  -1.731  0.00  0.00    +0.018 A 
BRANCH  29  31
ATOM     31  C   UNL     1      -2.850   0.365  -3.657  0.00  0.00    +0.244 C 
ATOM     32  O   UNL     1      -3.252  -0.678  -3.179  0.00  0.00    -0.270 OA
ATOM     33  N   UNL     1      -3.341   0.801  -4.834  0.00  0.00    -0.313 N 
ATOM     34  H   UNL     1      -3.020   1.633  -5.215  0.00  0.00    +0.149 HD
BRANCH  33  35
ATOM     35  C   UNL     1      -4.359   0.017  -5.538  0.00  0.00    +0.086 C 
BRANCH  35  36
ATOM     36  C   UNL     1      -4.742   0.728  -6.838  0.00  0.00    -0.061 C 
BRANCH  36  39
ATOM     37  C   UNL     1      -7.019  -0.093  -6.782  0.00  0.00    -0.097 C 
ATOM     38  C   UNL     1      -5.984   0.464  -8.899  0.00  0.00    -0.097 C 
ATOM     39  N   UNL     1      -5.753  -0.084  -7.545  0.00  0.00    +0.377 N 
ATOM     40  H   UNL     1      -5.408  -1.047  -7.630  0.00  0.00    -0.083 HD
ENDBRANCH  36  39
ENDBRANCH  35  36
ENDBRANCH  33  35
ENDBRANCH  29  31
ENDBRANCH  24  25
ENDBRANCH   3  24
TORSDOF 11
