REMARK  Name = ZINC59005654
REMARK  11 active torsions:
REMARK  status: ('A' for Active; 'I' for Inactive)
REMARK    1  A    between atoms: C_1  and  C_2
REMARK    2  A    between atoms: C_2  and  N_3
REMARK    3  A    between atoms: N_3  and  C_4
REMARK    4  A    between atoms: N_3  and  C_6
REMARK    5  A    between atoms: C_4  and  C_5
REMARK    6  A    between atoms: C_9  and  C_12
REMARK    7  A    between atoms: N_13  and  N_14
REMARK    8  A    between atoms: C_17  and  S_20
REMARK    9  A    between atoms: S_20  and  C_21
REMARK   10  A    between atoms: C_21  and  C_22
REMARK   11  A    between atoms: N_24  and  C_25
REMARK                            x       y       z     vdW  Elec       q    Type
REMARK                         _______ _______ _______ _____ _____    ______ ____
ROOT
ATOM      1  N   UNL     1      -2.372  -2.116  -8.159  0.00  0.00    -0.205 N 
ATOM      2  C   UNL     1      -1.725  -2.565  -9.296  0.00  0.00    +0.232 A 
ATOM      3  N   UNL     1      -0.436  -2.806  -9.408  0.00  0.00    -0.186 NA
ATOM      4  C   UNL     1      -0.164  -3.226 -10.648  0.00  0.00    +0.211 A 
ATOM      5  N   UNL     1      -1.277  -3.258 -11.342  0.00  0.00    -0.144 NA
ATOM      6  N   UNL     1      -2.306  -2.837 -10.484  0.00  0.00    -0.245 N 
ATOM      7  H   UNL     1      -3.331  -1.971  -8.172  0.00  0.00    +0.177 HD
ATOM      8  H   UNL     1      -3.247  -2.757 -10.702  0.00  0.00    +0.192 HD
ENDROOT
BRANCH   1  10
ATOM      9  C   UNL     1      -2.250  -1.451  -5.921  0.00  0.00    +0.138 C 
ATOM     10  N   UNL     1      -1.643  -1.872  -6.988  0.00  0.00    -0.188 NA
BRANCH   9  14
ATOM     11  C   UNL     1      -0.039  -0.712  -2.372  0.00  0.00    +0.030 A 
ATOM     12  C   UNL     1      -1.414  -0.502  -2.389  0.00  0.00    +0.024 A 
ATOM     13  C   UNL     1      -2.135  -0.741  -3.539  0.00  0.00    +0.011 A 
ATOM     14  C   UNL     1      -1.482  -1.194  -4.689  0.00  0.00    -0.005 A 
ATOM     15  C   UNL     1      -0.101  -1.403  -4.668  0.00  0.00    +0.011 A 
ATOM     16  C   UNL     1       0.614  -1.157  -3.516  0.00  0.00    +0.024 A 
BRANCH  11  17
ATOM     17  N   UNL     1       0.687  -0.469  -1.206  0.00  0.00    -0.330 N 
BRANCH  17  19
ATOM     18  C   UNL     1      -0.031   1.530   0.006  0.00  0.00    +0.024 C 
ATOM     19  C   UNL     1       0.001   0.001   0.000  0.00  0.00    +0.102 C 
ENDBRANCH  17  19
BRANCH  17  20
ATOM     20  C   UNL     1       2.136  -0.683  -1.188  0.00  0.00    +0.102 C 
ATOM     21  C   UNL     1       2.433  -2.124  -0.768  0.00  0.00    +0.024 C 
ENDBRANCH  17  20
ENDBRANCH  11  17
ENDBRANCH   9  14
ENDBRANCH   1  10
BRANCH   4  22
ATOM     22  S   UNL     1       1.432  -3.666 -11.253  0.00  0.00    -0.075 S 
BRANCH  22  23
ATOM     23  C   UNL     1       1.132  -4.142 -12.977  0.00  0.00    +0.173 C 
BRANCH  23  24
ATOM     24  C   UNL     1       2.434  -4.546 -13.621  0.00  0.00    +0.227 C 
ATOM     25  O   UNL     1       3.462  -4.516 -12.979  0.00  0.00    -0.275 OA
ATOM     26  N   UNL     1       2.455  -4.941 -14.909  0.00  0.00    -0.285 N 
ATOM     27  H   UNL     1       1.624  -5.029 -15.403  0.00  0.00    +0.155 HD
BRANCH  26  28
ATOM     28  C   UNL     1       3.676  -5.223 -15.535  0.00  0.00    +0.037 A 
ATOM     29  C   UNL     1       3.855  -4.917 -16.878  0.00  0.00    +0.027 A 
ATOM     30  C   UNL     1       5.058  -5.196 -17.496  0.00  0.00    +0.051 A 
ATOM     31  C   UNL     1       6.091  -5.782 -16.778  0.00  0.00    +0.162 A 
ATOM     32  C   UNL     1       5.915  -6.088 -15.434  0.00  0.00    +0.164 A 
ATOM     33  C   UNL     1       4.708  -5.804 -14.813  0.00  0.00    +0.072 A 
ATOM     34  O   UNL     1       6.919  -6.657 -14.712  0.00  0.00    -0.485 OA
ATOM     35  C   UNL     1       7.983  -7.262 -15.454  0.00  0.00    +0.270 C 
ATOM     36  C   UNL     1       8.404  -6.294 -16.567  0.00  0.00    +0.270 C 
ATOM     37  O   UNL     1       7.269  -6.054 -17.406  0.00  0.00    -0.485 OA
ENDBRANCH  26  28
ENDBRANCH  23  24
ENDBRANCH  22  23
ENDBRANCH   4  22
TORSDOF 9
