REMARK  Name = ZINC04697052
REMARK  5 active torsions:
REMARK  status: ('A' for Active; 'I' for Inactive)
REMARK    1  A    between atoms: C_1  and  C_2
REMARK    2  A    between atoms: C_8  and  C_10
REMARK    3  A    between atoms: C_10  and  N_17
REMARK    4  A    between atoms: C_11  and  C_12
REMARK    5  A    between atoms: C_18  and  C_20
REMARK                            x       y       z     vdW  Elec       q    Type
REMARK                         _______ _______ _______ _____ _____    ______ ____
ROOT
ATOM      1  C   UNL     1       2.948  -3.950   1.162  0.00  0.00    +0.100 C 
ATOM      2  C   UNL     1       2.480  -3.626   2.397  0.00  0.00    +0.074 C 
ENDROOT
BRANCH   1  10
ATOM      3  C   UNL     1       5.488  -0.070  -2.982  0.00  0.00    +0.007 C 
ATOM      4  C   UNL     1       4.345  -0.417  -2.026  0.00  0.00    -0.011 C 
ATOM      5  C   UNL     1       3.360  -1.355  -2.728  0.00  0.00    +0.022 C 
ATOM      6  C   UNL     1       2.199  -1.672  -1.780  0.00  0.00    +0.108 C 
ATOM      7  N   UNL     1       2.746  -2.203  -0.524  0.00  0.00    -0.296 N 
ATOM      8  C   UNL     1       3.768  -1.422   0.187  0.00  0.00    +0.108 C 
ATOM      9  C   UNL     1       4.912  -1.108  -0.783  0.00  0.00    +0.022 C 
ATOM     10  C   UNL     1       2.318  -3.382  -0.033  0.00  0.00    +0.261 C 
ATOM     11  O   UNL     1       1.408  -3.976  -0.582  0.00  0.00    -0.269 OA
ENDBRANCH   1  10
BRANCH   2  12
ATOM     12  C   UNL     1       1.316  -2.828   2.526  0.00  0.00    +0.130 A 
ATOM     13  C   UNL     1       0.794  -2.338   3.704  0.00  0.00    +0.049 A 
ATOM     14  C   UNL     1      -0.354  -1.607   3.359  0.00  0.00    +0.042 A 
ATOM     15  C   UNL     1      -0.483  -1.677   2.016  0.00  0.00    +0.195 A 
ATOM     16  O   UNL     1       0.525  -2.407   1.518  0.00  0.00    -0.463 OA
ENDBRANCH   2  12
BRANCH   1  17
ATOM     17  N   UNL     1       4.032  -4.826   1.033  0.00  0.00    -0.277 N 
ATOM     18  C   UNL     1       4.426  -5.234  -0.190  0.00  0.00    +0.248 C 
ATOM     19  O   UNL     1       3.900  -4.773  -1.184  0.00  0.00    -0.270 OA
ATOM     20  H   UNL     1       4.499  -5.140   1.823  0.00  0.00    +0.155 HD
BRANCH  18  21
ATOM     21  C   UNL     1       5.500  -6.242  -0.322  0.00  0.00    +0.037 A 
ATOM     22  C   UNL     1       6.102  -6.778   0.818  0.00  0.00    +0.013 A 
ATOM     23  C   UNL     1       7.103  -7.718   0.687  0.00  0.00    +0.001 A 
ATOM     24  C   UNL     1       7.509  -8.131  -0.570  0.00  0.00    +0.000 A 
ATOM     25  C   UNL     1       6.916  -7.603  -1.703  0.00  0.00    +0.001 A 
ATOM     26  C   UNL     1       5.911  -6.666  -1.586  0.00  0.00    +0.013 A 
ENDBRANCH  18  21
ENDBRANCH   1  17
TORSDOF 4
