REMARK  Name = ZINC00087485
REMARK  7 active torsions:
REMARK  status: ('A' for Active; 'I' for Inactive)
REMARK    1  A    between atoms: C_1  and  C_2
REMARK    2  A    between atoms: C_6  and  C_9
REMARK    3  A    between atoms: C_12  and  C_15
REMARK    4  A    between atoms: C_15  and  C_16
REMARK    5  A    between atoms: C_15  and  C_17
REMARK    6  A    between atoms: C_15  and  C_18
REMARK    7  A    between atoms: N_21  and  N_22
REMARK                            x       y       z     vdW  Elec       q    Type
REMARK                         _______ _______ _______ _____ _____    ______ ____
ROOT
ATOM      1  C   UNL     1      -0.018   1.503   0.010  0.00  0.00    +0.088 C 
ATOM      2  C   UNL     1       0.002  -0.004   0.002  0.00  0.00    +0.128 A 
ATOM      3  N   UNL     1       0.005  -0.640  -1.139  0.00  0.00    -0.225 NA
ATOM      4  C   UNL     1       0.024  -1.969  -1.183  0.00  0.00    +0.116 A 
ATOM      5  C   UNL     1       0.040  -2.750  -0.016  0.00  0.00    +0.081 A 
ATOM      6  C   UNL     1       0.059  -4.191  -0.237  0.00  0.00    +0.004 A 
ATOM      7  C   UNL     1       0.059  -4.655  -1.510  0.00  0.00    +0.056 A 
ATOM      8  S   UNL     1       0.033  -3.167  -2.491  0.00  0.00    -0.076 S 
ATOM      9  C   UNL     1       0.036  -2.023   1.217  0.00  0.00    +0.280 A 
ATOM     10  O   UNL     1       0.050  -2.613   2.284  0.00  0.00    -0.265 OA
ATOM     11  N   UNL     1       0.022  -0.678   1.181  0.00  0.00    -0.219 N 
ENDROOT
BRANCH   6  12
ATOM     12  C   UNL     1       0.078  -5.131   0.909  0.00  0.00    -0.017 A 
ATOM     13  C   UNL     1       1.001  -4.959   1.940  0.00  0.00    +0.009 A 
ATOM     14  C   UNL     1       1.014  -5.837   3.005  0.00  0.00    +0.005 A 
ATOM     15  C   UNL     1       0.113  -6.886   3.051  0.00  0.00    -0.042 A 
ATOM     16  C   UNL     1      -0.805  -7.061   2.031  0.00  0.00    +0.005 A 
ATOM     17  C   UNL     1      -0.831  -6.187   0.964  0.00  0.00    +0.009 A 
BRANCH  15  18
ATOM     18  C   UNL     1       0.133  -7.841   4.216  0.00  0.00    -0.013 C 
ATOM     19  C   UNL     1      -0.128  -7.070   5.512  0.00  0.00    +0.015 C 
ATOM     20  C   UNL     1      -0.955  -8.900   4.026  0.00  0.00    +0.015 C 
ATOM     21  C   UNL     1       1.500  -8.522   4.294  0.00  0.00    +0.015 C 
ENDBRANCH  15  18
ENDBRANCH   6  12
BRANCH  11  22
ATOM     22  N   UNL     1       0.024   0.024   2.353  0.00  0.00    -0.294 N 
ATOM     23  H   UNL     1       0.040  -0.599   3.147  0.00  0.00    +0.163 HD
ATOM     24  H   UNL     1       0.797   0.672   2.385  0.00  0.00    +0.163 HD
ENDBRANCH  11  22
TORSDOF 3
