REMARK  Name = ZINC02743033
REMARK  10 active torsions:
REMARK  status: ('A' for Active; 'I' for Inactive)
REMARK    1  A    between atoms: C_1  and  C_2
REMARK    2  A    between atoms: C_2  and  C_3
REMARK    3  A    between atoms: C_3  and  C_4
REMARK    4  A    between atoms: C_3  and  C_5
REMARK    5  A    between atoms: C_3  and  C_6
REMARK    6  A    between atoms: C_13  and  N_19
REMARK    7  A    between atoms: C_14  and  C_15
REMARK    8  A    between atoms: C_15  and  O_17
REMARK    9  A    between atoms: O_17  and  C_18
REMARK   10  A    between atoms: N_22  and  C_23
REMARK                            x       y       z     vdW  Elec       q    Type
REMARK                         _______ _______ _______ _____ _____    ______ ____
ROOT
ATOM      1  C   UNL     1       0.739  -2.027  -1.265  0.00  0.00    -0.000 C 
ATOM      2  C   UNL     1       1.455  -2.524  -2.524  0.00  0.00    +0.009 C 
ATOM      3  C   UNL     1       1.699  -4.031  -2.424  0.00  0.00    +0.037 C 
ATOM      4  C   UNL     1       0.380  -4.720  -2.095  0.00  0.00    -0.021 A 
ATOM      5  C   UNL     1      -0.659  -4.026  -1.585  0.00  0.00    -0.004 A 
ATOM      6  S   UNL     1      -1.944  -5.224  -1.372  0.00  0.00    -0.077 S 
ATOM      7  C   UNL     1      -1.114  -6.631  -1.951  0.00  0.00    +0.087 A 
ATOM      8  C   UNL     1       0.138  -6.139  -2.296  0.00  0.00    +0.091 A 
ATOM      9  C   UNL     1      -0.701  -2.562  -1.272  0.00  0.00    +0.046 C 
ENDROOT
BRANCH   7  10
ATOM     10  N   UNL     1      -1.586  -7.931  -2.048  0.00  0.00    -0.263 N 
ATOM     11  C   UNL     1      -2.844  -8.222  -1.660  0.00  0.00    +0.304 C 
ATOM     12  O   UNL     1      -3.564  -7.344  -1.226  0.00  0.00    -0.252 OA
ATOM     13  N   UNL     1      -3.302  -9.485  -1.754  0.00  0.00    -0.296 N 
ATOM     14  H   UNL     1      -1.011  -8.631  -2.394  0.00  0.00    +0.157 HD
ATOM     15  H   UNL     1      -2.727 -10.186  -2.100  0.00  0.00    +0.151 HD
BRANCH  13  16
ATOM     16  C   UNL     1      -4.669  -9.802  -1.333  0.00  0.00    +0.074 C 
ATOM     17  C   UNL     1      -4.691 -10.061   0.175  0.00  0.00    +0.022 C 
ATOM     18  C   UNL     1      -6.119 -10.392   0.615  0.00  0.00    +0.002 C 
ATOM     19  C   UNL     1      -6.605 -11.640  -0.125  0.00  0.00    +0.000 C 
ATOM     20  C   UNL     1      -6.582 -11.380  -1.633  0.00  0.00    +0.002 C 
ATOM     21  C   UNL     1      -5.155 -11.050  -2.072  0.00  0.00    +0.022 C 
ENDBRANCH  13  16
ENDBRANCH   7  10
BRANCH   1  22
ATOM     22  C   UNL     1       0.718  -0.497  -1.257  0.00  0.00    -0.032 C 
ATOM     23  C   UNL     1      -0.022   0.009  -2.496  0.00  0.00    +0.011 C 
ATOM     24  C   UNL     1       2.154   0.032  -1.268  0.00  0.00    +0.011 C 
BRANCH  22  26
ATOM     25  C   UNL     1      -0.019   1.526   0.010  0.00  0.00    +0.004 C 
ATOM     26  C   UNL     1       0.002  -0.004   0.002  0.00  0.00    +0.003 C 
ENDBRANCH  22  26
ENDBRANCH   1  22
BRANCH   8  27
ATOM     27  C   UNL     1       1.175  -7.017  -2.842  0.00  0.00    +0.342 C 
ATOM     28  O   UNL     1       1.952  -7.579  -2.094  0.00  0.00    -0.245 OA
BRANCH  27  29
ATOM     29  O   UNL     1       1.268  -7.203  -4.175  0.00  0.00    -0.464 OA
ATOM     30  C   UNL     1       2.320  -8.086  -4.645  0.00  0.00    +0.280 C 
ENDBRANCH  27  29
ENDBRANCH   8  27
TORSDOF 6
