REMARK  Name = ZINC35182976
REMARK  6 active torsions:
REMARK  status: ('A' for Active; 'I' for Inactive)
REMARK    1  A    between atoms: C_11  and  C_20
REMARK    2  A    between atoms: CA_14  and  C_17
REMARK    3  A    between atoms: C_20  and  C_21
REMARK    4  A    between atoms: C_21  and  C_22
REMARK    5  A    between atoms: C_22  and  C_23
REMARK    6  A    between atoms: CA_36  and  C_39
REMARK                            x       y       z     vdW  Elec       q    Type
REMARK                         _______ _______ _______ _____ _____    ______ ____
ROOT
ATOM      1  C   UNL     1       5.765  -4.604   0.809  0.00  0.00    -0.002 C 
ENDROOT
BRANCH   1   2
ATOM      2  C   UNL     1       4.915  -3.336   0.914  0.00  0.00    -0.010 C 
BRANCH   2  13
ATOM      3  C   UNL     1      -0.016   1.361   0.009  0.00  0.00    +0.001 A 
ATOM      4  C   UNL     1       1.169   2.083   0.002  0.00  0.00    +0.002 A 
ATOM      5  C   UNL     1       2.385   1.435  -0.013  0.00  0.00    +0.026 A 
ATOM      6  C   UNL     1       2.428   0.045  -0.021  0.00  0.00    +0.047 A 
ATOM      7  C   UNL     1       1.222  -0.684  -0.013  0.00  0.00    +0.003 A 
ATOM      8  C   UNL     1       0.002  -0.004   0.002  0.00  0.00    +0.010 A 
ATOM      9  C   UNL     1       1.609  -2.088  -0.026  0.00  0.00    -0.022 A 
ATOM     10  C   UNL     1       2.957  -2.137  -0.039  0.00  0.00    +0.006 A 
ATOM     11  N   UNL     1       3.460  -0.869  -0.037  0.00  0.00    -0.359 N 
ATOM     12  H   UNL     1       4.404  -0.644  -0.046  0.00  0.00    +0.166 HD
ATOM     13  C   UNL     1       3.729  -3.436  -0.049  0.00  0.00    -0.023 C 
ATOM     14  N   UNL     1       2.830  -4.518   0.380  0.00  0.00    +0.394 N 
ATOM     15  CA  UNL     1       1.604  -4.511  -0.430  0.00  0.00    +0.049 C 
ATOM     16  C   UNL     1       0.731  -3.313  -0.029  0.00  0.00    +0.033 C 
ATOM     17  H1  UNL     1       3.298  -5.405   0.270  0.00  0.00    -0.084 HD
ATOM     18  H2  UNL     1       2.589  -4.388   1.351  0.00  0.00    -0.084 HD
BRANCH  15  19
ATOM     19  C   UNL     1       0.841  -5.789  -0.196  0.00  0.00    +0.343 C 
ATOM     20  O   UNL     1       0.916  -6.356   0.881  0.00  0.00    -0.248 OA
ATOM     21  OXT UNL     1       0.148  -6.257  -1.083  0.00  0.00    -0.248 OA
ENDBRANCH  15  19
ENDBRANCH   2  13
ENDBRANCH   1   2
BRANCH   1  22
ATOM     22  C   UNL     1       6.950  -4.505   1.771  0.00  0.00    -0.010 C 
BRANCH  22  23
ATOM     23  C   UNL     1       7.800  -5.773   1.666  0.00  0.00    -0.023 C 
ATOM     24  C   UNL     1       8.905  -5.729   2.695  0.00  0.00    +0.006 A 
ATOM     25  C   UNL     1      10.184  -5.413   2.386  0.00  0.00    -0.022 A 
ATOM     26  C   UNL     1      10.947  -5.478   3.612  0.00  0.00    +0.003 A 
ATOM     27  C   UNL     1      12.297  -5.257   3.905  0.00  0.00    +0.010 A 
ATOM     28  C   UNL     1      12.682  -5.414   5.213  0.00  0.00    +0.001 A 
ATOM     29  C   UNL     1      11.786  -5.772   6.207  0.00  0.00    +0.002 A 
ATOM     30  C   UNL     1      10.446  -5.996   5.946  0.00  0.00    +0.026 A 
ATOM     31  C   UNL     1      10.025  -5.845   4.626  0.00  0.00    +0.047 A 
ATOM     32  N   UNL     1       8.803  -5.987   4.034  0.00  0.00    -0.359 N 
ATOM     33  H   UNL     1       7.985  -6.233   4.494  0.00  0.00    +0.166 HD
ATOM     34  C   UNL     1      10.636  -5.068   0.990  0.00  0.00    +0.033 C 
ATOM     35  CA  UNL     1       9.385  -4.770   0.151  0.00  0.00    +0.049 C 
ATOM     36  N   UNL     1       8.403  -5.854   0.327  0.00  0.00    +0.394 N 
ATOM     37  H1  UNL     1       8.866  -6.744   0.222  0.00  0.00    -0.084 HD
ATOM     38  H2  UNL     1       7.679  -5.771  -0.371  0.00  0.00    -0.084 HD
BRANCH  35  39
ATOM     39  C   UNL     1       9.767  -4.671  -1.303  0.00  0.00    +0.343 C 
ATOM     40  O   UNL     1       9.751  -5.668  -2.006  0.00  0.00    -0.248 OA
ATOM     41  OXT UNL     1      10.091  -3.596  -1.777  0.00  0.00    -0.248 OA
ENDBRANCH  35  39
ENDBRANCH  22  23
ENDBRANCH   1  22
TORSDOF 6
