REMARK  Name = ZINC59045382
REMARK  7 active torsions:
REMARK  status: ('A' for Active; 'I' for Inactive)
REMARK    1  A    between atoms: C_4  and  O_25
REMARK    2  A    between atoms: C_5  and  C_7
REMARK    3  A    between atoms: C_10  and  S_13
REMARK    4  A    between atoms: N_11  and  N_12
REMARK    5  A    between atoms: S_13  and  C_14
REMARK    6  A    between atoms: C_14  and  C_15
REMARK    7  A    between atoms: N_17  and  C_18
REMARK                            x       y       z     vdW  Elec       q    Type
REMARK                         _______ _______ _______ _____ _____    ______ ____
ROOT
ATOM      1  C   UNL     1       1.245  -2.160  -0.077  0.00  0.00    +0.185 A 
ATOM      2  N   UNL     1       2.315  -2.921  -0.084  0.00  0.00    -0.127 NA
ATOM      3  N   UNL     1       1.973  -4.160  -0.079  0.00  0.00    -0.121 NA
ATOM      4  C   UNL     1       0.663  -4.267  -0.070  0.00  0.00    +0.209 A 
ATOM      5  N   UNL     1       0.154  -2.999  -0.062  0.00  0.00    -0.224 N 
ENDROOT
BRANCH   1  10
ATOM      6  C   UNL     1      -0.021   1.375  -0.069  0.00  0.00    +0.001 A 
ATOM      7  C   UNL     1       1.164   2.089  -0.085  0.00  0.00    +0.004 A 
ATOM      8  C   UNL     1       2.378   1.428  -0.098  0.00  0.00    +0.046 A 
ATOM      9  C   UNL     1       2.414   0.043  -0.096  0.00  0.00    +0.128 A 
ATOM     10  C   UNL     1       1.217  -0.683  -0.080  0.00  0.00    +0.062 A 
ATOM     11  C   UNL     1      -0.002  -0.004  -0.066  0.00  0.00    +0.015 A 
BRANCH   9  12
ATOM     12  O   UNL     1       3.606  -0.608  -0.109  0.00  0.00    -0.506 OA
ATOM     13  H   UNL     1       3.963  -0.794   0.770  0.00  0.00    +0.292 HD
ENDBRANCH   9  12
ENDBRANCH   1  10
BRANCH   5  14
ATOM     14  N   UNL     1      -1.164  -2.639  -0.047  0.00  0.00    -0.295 N 
ATOM     15  H   UNL     1      -1.524  -2.545  -0.985  0.00  0.00    +0.163 HD
ATOM     16  H   UNL     1      -1.712  -3.296   0.487  0.00  0.00    +0.163 HD
ENDBRANCH   5  14
BRANCH   4  17
ATOM     17  S   UNL     1      -0.263  -5.765  -0.062  0.00  0.00    -0.075 S 
BRANCH  17  18
ATOM     18  C   UNL     1       1.003  -7.064  -0.069  0.00  0.00    +0.173 C 
BRANCH  18  19
ATOM     19  C   UNL     1       0.337  -8.416  -0.062  0.00  0.00    +0.228 C 
ATOM     20  O   UNL     1      -0.874  -8.495  -0.054  0.00  0.00    -0.275 OA
ATOM     21  N   UNL     1       1.085  -9.536  -0.066  0.00  0.00    -0.284 N 
ATOM     22  H   UNL     1       2.051  -9.474  -0.138  0.00  0.00    +0.155 HD
BRANCH  21  23
ATOM     23  C   UNL     1       0.470 -10.790   0.034  0.00  0.00    +0.052 A 
ATOM     24  C   UNL     1      -0.770 -11.005  -0.553  0.00  0.00    +0.025 A 
ATOM     25  C   UNL     1      -1.374 -12.243  -0.453  0.00  0.00    +0.002 A 
ATOM     26  C   UNL     1      -0.747 -13.268   0.232  0.00  0.00    +0.002 A 
ATOM     27  C   UNL     1       0.487 -13.057   0.819  0.00  0.00    +0.022 A 
ATOM     28  C   UNL     1       1.101 -11.822   0.717  0.00  0.00    +0.062 A 
ATOM     29 CL   UNL     1       2.654 -11.560   1.448  0.00  0.00    -0.082 Cl
ENDBRANCH  21  23
ENDBRANCH  18  19
ENDBRANCH  17  18
ENDBRANCH   4  17
TORSDOF 7
