REMARK  Name = ZINC09350664
REMARK  11 active torsions:
REMARK  status: ('A' for Active; 'I' for Inactive)
REMARK    1  A    between atoms: C_1  and  C_2
REMARK    2  A    between atoms: C_2  and  C_3
REMARK    3  A    between atoms: C_3  and  N_4
REMARK    4  A    between atoms: C_5  and  C_7
REMARK    5  A    between atoms: C_7  and  S_8
REMARK    6  A    between atoms: S_8  and  C_9
REMARK    7  A    between atoms: C_12  and  C_28
REMARK    8  A    between atoms: N_13  and  C_14
REMARK    9  A    between atoms: C_15  and  C_27
REMARK   10  A    between atoms: N_16  and  C_26
REMARK   11  A    between atoms: N_17  and  C_20
REMARK                            x       y       z     vdW  Elec       q    Type
REMARK                         _______ _______ _______ _____ _____    ______ ____
ROOT
ATOM      1  C   UNL     1       0.215   1.136   0.048  0.00  0.00    +0.197 A 
ATOM      2  N   UNL     1       1.468   1.490  -0.133  0.00  0.00    -0.122 NA
ATOM      3  N   UNL     1       2.188   0.455  -0.381  0.00  0.00    -0.128 NA
ATOM      4  C   UNL     1       1.439  -0.625  -0.374  0.00  0.00    +0.171 A 
ATOM      5  N   UNL     1       0.152  -0.222  -0.099  0.00  0.00    -0.263 N 
ENDROOT
BRANCH   5   6
ATOM      6  C   UNL     1      -0.991  -1.038   0.007  0.00  0.00    +0.137 A 
ATOM      7  C   UNL     1      -1.762  -1.464  -1.018  0.00  0.00    +0.062 A 
ATOM      8  N   UNL     1      -2.772  -2.236  -0.507  0.00  0.00    -0.282 N 
ATOM      9  N   UNL     1      -2.627  -2.281   0.886  0.00  0.00    -0.215 N 
ATOM     10  C   UNL     1      -1.540  -1.551   1.211  0.00  0.00    +0.296 A 
ATOM     11  O   UNL     1      -1.109  -1.365   2.334  0.00  0.00    -0.264 OA
ATOM     12  C   UNL     1      -3.826  -2.894  -1.282  0.00  0.00    +0.171 C 
ATOM     13  C   UNL     1      -1.544  -1.148  -2.475  0.00  0.00    +0.067 C 
BRANCH   9  14
ATOM     14  C   UNL     1      -3.460  -2.961   1.779  0.00  0.00    +0.067 A 
ATOM     15  C   UNL     1      -4.838  -2.803   1.704  0.00  0.00    +0.028 A 
ATOM     16  C   UNL     1      -5.658  -3.481   2.584  0.00  0.00    +0.002 A 
ATOM     17  C   UNL     1      -5.108  -4.307   3.548  0.00  0.00    +0.000 A 
ATOM     18  C   UNL     1      -3.736  -4.462   3.629  0.00  0.00    +0.002 A 
ATOM     19  C   UNL     1      -2.911  -3.792   2.748  0.00  0.00    +0.028 A 
ENDBRANCH   9  14
ENDBRANCH   5   6
BRANCH   4  20
ATOM     20  C   UNL     1       1.893  -2.010  -0.617  0.00  0.00    +0.038 A 
ATOM     21  C   UNL     1       1.504  -3.036   0.247  0.00  0.00    +0.013 A 
ATOM     22  C   UNL     1       1.931  -4.327   0.015  0.00  0.00    +0.001 A 
ATOM     23  C   UNL     1       2.743  -4.607  -1.070  0.00  0.00    +0.001 A 
ATOM     24  C   UNL     1       3.133  -3.596  -1.929  0.00  0.00    +0.021 A 
ATOM     25  C   UNL     1       2.708  -2.300  -1.713  0.00  0.00    +0.052 A 
ATOM     26 CL   UNL     1       3.191  -1.034  -2.797  0.00  0.00    -0.083 Cl
ENDBRANCH   4  20
BRANCH   1  27
ATOM     27  S   UNL     1      -1.134   2.211   0.406  0.00  0.00    -0.076 S 
BRANCH  27  28
ATOM     28  C   UNL     1      -0.268   3.800   0.442  0.00  0.00    +0.173 C 
BRANCH  28  30
ATOM     29  N   UNL     1      -0.830   6.180   0.816  0.00  0.00    -0.315 N 
ATOM     30  C   UNL     1      -1.251   4.902   0.740  0.00  0.00    +0.223 C 
ATOM     31  O   UNL     1      -2.423   4.639   0.911  0.00  0.00    -0.275 OA
ATOM     32  H   UNL     1       0.233   6.418   0.661  0.00  0.00    +0.149 HD
BRANCH  29  33
ATOM     33  C   UNL     1      -1.786   7.251   1.106  0.00  0.00    +0.104 C 
BRANCH  33  35
ATOM     34  C   UNL     1      -2.053   9.713   1.439  0.00  0.00    +0.005 C 
ATOM     35  C   UNL     1      -1.054   8.594   1.136  0.00  0.00    +0.015 C 
ENDBRANCH  33  35
ENDBRANCH  29  33
ENDBRANCH  28  30
ENDBRANCH  27  28
ENDBRANCH   1  27
TORSDOF 8
