REMARK  Name = ZINC19973279
REMARK  12 active torsions:
REMARK  status: ('A' for Active; 'I' for Inactive)
REMARK    1  A    between atoms: C_1  and  O_2
REMARK    2  A    between atoms: O_2  and  C_3
REMARK    3  A    between atoms: C_3  and  C_4
REMARK    4  A    between atoms: C_4  and  N_5
REMARK    5  A    between atoms: C_6  and  C_10
REMARK    6  A    between atoms: C_10  and  C_12
REMARK    7  A    between atoms: C_10  and  N_26
REMARK    8  A    between atoms: C_16  and  O_24
REMARK    9  A    between atoms: O_24  and  C_25
REMARK   10  A    between atoms: N_29  and  C_32
REMARK   11  A    between atoms: C_35  and  O_38
REMARK   12  A    between atoms: O_38  and  C_39
REMARK                            x       y       z     vdW  Elec       q    Type
REMARK                         _______ _______ _______ _____ _____    ______ ____
ROOT
ATOM      1  C   UNL     1       1.383   3.500  -0.069  0.00  0.00    +0.162 C 
ENDROOT
BRANCH   1   2
ATOM      2  C   UNL     1       2.804   3.987   0.046  0.00  0.00    +0.042 A 
ATOM      3  C   UNL     1       3.133   4.893   1.000  0.00  0.00    +0.021 A 
ATOM      4  C   UNL     1       4.524   5.343   1.088  0.00  0.00    +0.002 A 
ATOM      5  C   UNL     1       4.922   6.272   2.055  0.00  0.00    +0.055 A 
ATOM      6  C   UNL     1       6.240   6.678   2.108  0.00  0.00    +0.121 A 
ATOM      7  C   UNL     1       7.170   6.167   1.205  0.00  0.00    +0.047 A 
ATOM      8  C   UNL     1       6.790   5.253   0.248  0.00  0.00    +0.030 A 
ATOM      9  C   UNL     1       5.466   4.829   0.178  0.00  0.00    +0.049 A 
ATOM     10  N   UNL     1       5.066   3.913  -0.773  0.00  0.00    -0.322 N 
ATOM     11  H   UNL     1       5.797   3.507  -1.488  0.00  0.00    +0.169 HD
ATOM     12  C   UNL     1       3.788   3.502  -0.843  0.00  0.00    +0.254 A 
ATOM     13  O   UNL     1       3.470   2.691  -1.696  0.00  0.00    -0.268 OA
BRANCH   6  14
ATOM     14  O   UNL     1       6.633   7.581   3.045  0.00  0.00    -0.495 OA
ATOM     15  C   UNL     1       8.011   7.959   3.044  0.00  0.00    +0.277 C 
ENDBRANCH   6  14
ENDBRANCH   1   2
BRANCH   1  16
ATOM     16  N   UNL     1       1.361   2.032   0.000  0.00  0.00    -0.286 NA
ATOM     17  C   UNL     1      -0.019   1.526   0.010  0.00  0.00    +0.104 C 
ATOM     18  C   UNL     1       0.002  -0.004   0.002  0.00  0.00    +0.120 C 
ATOM     19  N   UNL     1       0.746  -0.488   1.173  0.00  0.00    -0.327 N 
ATOM     20  C   UNL     1       2.126   0.018   1.163  0.00  0.00    +0.120 C 
ATOM     21  C   UNL     1       2.105   1.549   1.171  0.00  0.00    +0.104 C 
BRANCH  19  22
ATOM     22  C   UNL     1       0.725  -1.885   1.239  0.00  0.00    +0.030 A 
ATOM     23  C   UNL     1       0.051  -2.616   0.269  0.00  0.00    +0.027 A 
ATOM     24  C   UNL     1       0.036  -3.996   0.331  0.00  0.00    +0.047 A 
ATOM     25  C   UNL     1       0.683  -4.651   1.368  0.00  0.00    +0.120 A 
ATOM     26  C   UNL     1       1.353  -3.922   2.340  0.00  0.00    +0.047 A 
ATOM     27  C   UNL     1       1.374  -2.542   2.276  0.00  0.00    +0.027 A 
BRANCH  25  28
ATOM     28  O   UNL     1       0.663  -6.009   1.432  0.00  0.00    -0.495 OA
ATOM     29  C   UNL     1      -0.045  -6.697   0.398  0.00  0.00    +0.277 C 
ENDBRANCH  25  28
ENDBRANCH  19  22
ENDBRANCH   1  16
BRANCH   1  31
ATOM     30  N   UNL     1      -0.090   4.940  -1.573  0.00  0.00    -0.225 N 
ATOM     31  C   UNL     1       0.802   3.950  -1.385  0.00  0.00    +0.173 A 
ATOM     32  N   UNL     1       1.064   3.450  -2.567  0.00  0.00    -0.111 NA
ATOM     33  N   UNL     1       0.373   4.102  -3.437  0.00  0.00    -0.023 NA
ATOM     34  N   UNL     1      -0.323   5.005  -2.840  0.00  0.00    -0.044 NA
BRANCH  30  35
ATOM     35  C   UNL     1      -0.682   5.786  -0.534  0.00  0.00    +0.175 C 
BRANCH  35  36
ATOM     36  C   UNL     1       0.191   7.025  -0.326  0.00  0.00    +0.183 C 
BRANCH  36  38
ATOM     37  C   UNL     1       0.355   9.041   0.960  0.00  0.00    +0.194 C 
ATOM     38  O   UNL     1      -0.387   7.851   0.687  0.00  0.00    -0.381 OA
ENDBRANCH  36  38
ENDBRANCH  35  36
ENDBRANCH  30  35
ENDBRANCH   1  31
TORSDOF 9
