REMARK  Name = ZINC16293837
REMARK  10 active torsions:
REMARK  status: ('A' for Active; 'I' for Inactive)
REMARK    1  A    between atoms: C_1  and  C_2
REMARK    2  A    between atoms: C_5  and  C_7
REMARK    3  A    between atoms: C_12  and  C_17
REMARK    4  A    between atoms: C_23  and  C_37
REMARK    5  A    between atoms: C_24  and  C_25
REMARK    6  A    between atoms: C_25  and  O_27
REMARK    7  A    between atoms: O_27  and  C_28
REMARK    8  A    between atoms: C_28  and  C_29
REMARK    9  A    between atoms: C_32  and  O_35
REMARK   10  A    between atoms: O_35  and  C_36
REMARK                            x       y       z     vdW  Elec       q    Type
REMARK                         _______ _______ _______ _____ _____    ______ ____
ROOT
ATOM      1  C   UNL     1       1.647   3.256   0.004  0.00  0.00    +0.128 C 
ATOM      2  C   UNL     1       1.097   3.926  -1.230  0.00  0.00    +0.027 C 
ATOM      3  C   UNL     1       0.007   4.719  -1.156  0.00  0.00    +0.016 C 
ATOM      4  C   UNL     1      -0.548   5.395  -2.385  0.00  0.00    +0.062 C 
ATOM      5  C   UNL     1      -0.270   4.531  -3.617  0.00  0.00    +0.068 C 
ATOM      6  C   UNL     1       1.244   4.320  -3.731  0.00  0.00    +0.091 C 
ATOM      7  C   UNL     1       1.748   3.701  -2.455  0.00  0.00    +0.162 C 
ATOM      8  O   UNL     1       2.736   2.994  -2.486  0.00  0.00    -0.292 OA
ATOM      9  N   UNL     1      -0.619   4.929   0.044  0.00  0.00    -0.321 N 
ATOM     10  C   UNL     1       0.037   4.697   1.221  0.00  0.00    +0.016 C 
ATOM     11  C   UNL     1       1.124   3.909   1.249  0.00  0.00    +0.068 C 
ATOM     12  C   UNL     1      -0.464   5.328   2.494  0.00  0.00    +0.061 C 
ATOM     13  H   UNL     1      -1.658   5.288   0.067  0.00  0.00    +0.152 HD
ENDROOT
BRANCH   1  18
ATOM     14  C   UNL     1      -1.208  -0.902   0.008  0.00  0.00    +0.086 C 
ATOM     15  C   UNL     1       0.002  -0.004   0.002  0.00  0.00    +0.102 A 
ATOM     16  C   UNL     1       1.284  -0.412  -0.012  0.00  0.00    +0.044 A 
ATOM     17  C   UNL     1       2.084   0.754  -0.014  0.00  0.00    +0.046 A 
ATOM     18  C   UNL     1       1.244   1.804  -0.000  0.00  0.00    +0.117 A 
ATOM     19  O   UNL     1      -0.016   1.339   0.009  0.00  0.00    -0.464 OA
ENDBRANCH   1  18
BRANCH   5  20
ATOM     20  C   UNL     1      -0.778   5.231  -4.851  0.00  0.00    +0.109 A 
ATOM     21  C   UNL     1      -1.697   4.749  -5.707  0.00  0.00    +0.045 A 
ATOM     22  C   UNL     1      -1.872   5.726  -6.713  0.00  0.00    +0.041 A 
ATOM     23  C   UNL     1      -1.050   6.747  -6.412  0.00  0.00    +0.195 A 
ATOM     24  O   UNL     1      -0.393   6.444  -5.280  0.00  0.00    -0.468 OA
ENDBRANCH   5  20
BRANCH  11  25
ATOM     25  C   UNL     1       1.790   3.691   2.478  0.00  0.00    +0.338 C 
ATOM     26  O   UNL     1       1.375   4.215   3.495  0.00  0.00    -0.245 OA
BRANCH  25  27
ATOM     27  O   UNL     1       2.883   2.902   2.523  0.00  0.00    -0.457 OA
BRANCH  27  28
ATOM     28  C   UNL     1       3.505   2.727   3.798  0.00  0.00    +0.268 C 
BRANCH  28  29
ATOM     29  C   UNL     1       4.701   1.822   3.653  0.00  0.00    -0.010 A 
ATOM     30  C   UNL     1       4.554   0.455   3.800  0.00  0.00    +0.010 A 
ATOM     31  C   UNL     1       5.648  -0.377   3.663  0.00  0.00    +0.046 A 
ATOM     32  C   UNL     1       6.897   0.161   3.388  0.00  0.00    +0.120 A 
ATOM     33  C   UNL     1       7.043   1.533   3.246  0.00  0.00    +0.046 A 
ATOM     34  C   UNL     1       5.945   2.360   3.380  0.00  0.00    +0.010 A 
BRANCH  32  35
ATOM     35  O   UNL     1       7.976  -0.656   3.257  0.00  0.00    -0.495 OA
ATOM     36  C   UNL     1       7.751  -2.058   3.415  0.00  0.00    +0.277 C 
ENDBRANCH  32  35
ENDBRANCH  28  29
ENDBRANCH  27  28
ENDBRANCH  25  27
ENDBRANCH  11  25
TORSDOF 7
