REMARK  Name = ZINC43460723
REMARK  5 active torsions:
REMARK  status: ('A' for Active; 'I' for Inactive)
REMARK    1  A    between atoms: C_1  and  C_2
REMARK    2  A    between atoms: C_2  and  C_21
REMARK    3  A    between atoms: C_4  and  O_20
REMARK    4  A    between atoms: C_9  and  O_13
REMARK    5  A    between atoms: O_13  and  C_14
REMARK                            x       y       z     vdW  Elec       q    Type
REMARK                         _______ _______ _______ _____ _____    ______ ____
ROOT
ATOM      1  C   UNL     1      -0.468   0.872  -0.073  0.00  0.00    +0.055 C 
ATOM      2  C   UNL     1      -0.203  -0.631   0.029  0.00  0.00    +0.108 C 
ATOM      3  C   UNL     1      -1.534  -1.382   0.159  0.00  0.00    +0.083 C 
ATOM      4  C   UNL     1      -2.299  -0.803   1.351  0.00  0.00    +0.152 C 
ATOM      5  C   UNL     1      -1.383  -0.712   2.546  0.00  0.00    +0.023 A 
ATOM      6  C   UNL     1      -1.944  -0.577   3.806  0.00  0.00    +0.013 A 
ATOM      7  C   UNL     1      -1.138  -0.487   4.923  0.00  0.00    +0.046 A 
ATOM      8  C   UNL     1       0.242  -0.531   4.786  0.00  0.00    +0.124 A 
ATOM      9  C   UNL     1       0.806  -0.666   3.529  0.00  0.00    +0.091 A 
ATOM     10  C   UNL     1      -0.007  -0.759   2.405  0.00  0.00    +0.130 A 
ATOM     11  O   UNL     1       0.584  -0.903   1.189  0.00  0.00    -0.486 OA
ATOM     12  C   UNL     1       0.539  -1.109  -1.221  0.00  0.00    +0.055 C 
ENDROOT
BRANCH   4  13
ATOM     13  O   UNL     1      -3.405  -1.651   1.665  0.00  0.00    -0.387 OA
ATOM     14  H   UNL     1      -3.936  -1.345   2.413  0.00  0.00    +0.210 HD
ENDBRANCH   4  13
BRANCH   8  15
ATOM     15  O   UNL     1       1.039  -0.441   5.884  0.00  0.00    -0.489 OA
BRANCH  15  16
ATOM     16  C   UNL     1       0.394  -0.185   7.133  0.00  0.00    +0.173 C 
ATOM     17  C   UNL     1      -0.089  -1.504   7.738  0.00  0.00    +0.044 C 
ATOM     18  C   UNL     1      -0.779  -1.230   9.075  0.00  0.00    +0.004 C 
ATOM     19  C   UNL     1       0.211  -0.564  10.033  0.00  0.00    +0.000 C 
ATOM     20  C   UNL     1       0.695   0.756   9.428  0.00  0.00    +0.004 C 
ATOM     21  C   UNL     1       1.385   0.482   8.090  0.00  0.00    +0.044 C 
ENDBRANCH  15  16
ENDBRANCH   8  15
TORSDOF 3
