REMARK  Name = ZINC57401818
REMARK  10 active torsions:
REMARK  status: ('A' for Active; 'I' for Inactive)
REMARK    1  A    between atoms: C_1  and  C_2
REMARK    2  A    between atoms: C_2  and  N_3
REMARK    3  A    between atoms: C_5  and  O_22
REMARK    4  A    between atoms: C_7  and  S_9
REMARK    5  A    between atoms: S_9  and  C_10
REMARK    6  A    between atoms: C_10  and  C_11
REMARK    7  A    between atoms: N_13  and  C_14
REMARK    8  A    between atoms: C_14  and  C_15
REMARK    9  A    between atoms: C_18  and  C_21
REMARK   10  A    between atoms: O_22  and  C_23
REMARK                            x       y       z     vdW  Elec       q    Type
REMARK                         _______ _______ _______ _____ _____    ______ ____
ROOT
ATOM      1  N   UNL     1       0.696  -0.555  -1.223  0.00  0.00    -0.244 N 
ATOM      2  C   UNL     1       2.155  -0.753  -1.217  0.00  0.00    +0.221 C 
ATOM      3  C   UNL     1       2.694  -0.265  -2.540  0.00  0.00    +0.217 C 
ATOM      4  N   UNL     1       1.934  -0.264  -3.593  0.00  0.00    -0.188 NA
ATOM      5  C   UNL     1       0.643  -0.689  -3.553  0.00  0.00    +0.208 C 
ATOM      6  N   UNL     1       0.010  -0.840  -2.419  0.00  0.00    -0.157 NA
ENDROOT
BRANCH   1   8
ATOM      7  C   UNL     1      -0.081   1.442  -0.043  0.00  0.00    +0.026 C 
ATOM      8  C   UNL     1      -0.015  -0.087  -0.030  0.00  0.00    +0.123 C 
ENDBRANCH   1   8
BRANCH   5   9
ATOM      9  S   UNL     1      -0.193  -1.052  -5.061  0.00  0.00    -0.075 S 
BRANCH   9  10
ATOM     10  C   UNL     1      -1.848  -1.571  -4.531  0.00  0.00    +0.173 C 
BRANCH  10  11
ATOM     11  C   UNL     1      -2.678  -1.915  -5.741  0.00  0.00    +0.224 C 
ATOM     12  O   UNL     1      -2.200  -1.820  -6.852  0.00  0.00    -0.275 OA
ATOM     13  N   UNL     1      -3.952  -2.328  -5.589  0.00  0.00    -0.311 N 
ATOM     14  H   UNL     1      -4.335  -2.404  -4.701  0.00  0.00    +0.149 HD
BRANCH  13  15
ATOM     15  C   UNL     1      -4.759  -2.663  -6.766  0.00  0.00    +0.139 C 
BRANCH  15  16
ATOM     16  C   UNL     1      -6.134  -3.093  -6.325  0.00  0.00    -0.030 A 
ATOM     17  C   UNL     1      -6.388  -4.425  -6.053  0.00  0.00    +0.005 A 
ATOM     18  C   UNL     1      -7.649  -4.819  -5.649  0.00  0.00    +0.003 A 
ATOM     19  C   UNL     1      -8.658  -3.883  -5.517  0.00  0.00    -0.050 A 
ATOM     20  C   UNL     1      -8.404  -2.551  -5.788  0.00  0.00    +0.003 A 
ATOM     21  C   UNL     1      -7.141  -2.156  -6.188  0.00  0.00    +0.005 A 
ATOM     22  C   UNL     1     -10.033  -4.314  -5.078  0.00  0.00    +0.044 C 
ENDBRANCH  15  16
ENDBRANCH  13  15
ENDBRANCH  10  11
ENDBRANCH   9  10
ENDBRANCH   5   9
BRANCH   3  23
ATOM     23  O   UNL     1       3.967   0.172  -2.629  0.00  0.00    -0.440 OA
BRANCH  23  24
ATOM     24  C   UNL     1       4.443   0.507  -3.857  0.00  0.00    +0.130 A 
ATOM     25  C   UNL     1       4.084   1.717  -4.434  0.00  0.00    +0.048 A 
ATOM     26  C   UNL     1       4.569   2.056  -5.683  0.00  0.00    +0.023 A 
ATOM     27  C   UNL     1       5.411   1.191  -6.357  0.00  0.00    +0.041 A 
ATOM     28  C   UNL     1       5.770  -0.016  -5.784  0.00  0.00    +0.023 A 
ATOM     29  C   UNL     1       5.292  -0.357  -4.533  0.00  0.00    +0.048 A 
ATOM     30 CL   UNL     1       6.019   1.619  -7.926  0.00  0.00    -0.084 Cl
ENDBRANCH  23  24
ENDBRANCH   3  23
TORSDOF 8
