REMARK  Name = ZINC06764146
REMARK  9 active torsions:
REMARK  status: ('A' for Active; 'I' for Inactive)
REMARK    1  A    between atoms: C_1  and  C_2
REMARK    2  A    between atoms: C_9  and  N_14
REMARK    3  A    between atoms: C_10  and  C_11
REMARK    4  A    between atoms: N_14  and  C_15
REMARK    5  A    between atoms: C_15  and  N_17
REMARK    6  A    between atoms: C_18  and  C_20
REMARK    7  A    between atoms: C_20  and  C_21
REMARK    8  A    between atoms: C_20  and  C_22
REMARK    9  A    between atoms: C_20  and  C_23
REMARK                            x       y       z     vdW  Elec       q    Type
REMARK                         _______ _______ _______ _____ _____    ______ ____
ROOT
ATOM      1  C   UNL     1      -0.758   1.595  -1.227  0.00  0.00    +0.008 C 
ATOM      2  C   UNL     1      -0.013   1.086   0.008  0.00  0.00    -0.009 C 
ATOM      3  C   UNL     1      -0.714   1.583   1.276  0.00  0.00    +0.008 C 
ATOM      4  C   UNL     1      -0.129   0.881   2.503  0.00  0.00    +0.037 C 
ATOM      5  C   UNL     1       1.387   1.034   2.479  0.00  0.00    -0.023 A 
ATOM      6  C   UNL     1       2.035   1.365   1.342  0.00  0.00    -0.004 A 
ATOM      7  S   UNL     1       3.745   1.426   1.796  0.00  0.00    -0.077 S 
ATOM      8  C   UNL     1       3.603   1.018   3.474  0.00  0.00    +0.084 A 
ATOM      9  C   UNL     1       2.236   0.844   3.643  0.00  0.00    +0.068 A 
ATOM     10  C   UNL     1       1.427   1.620  -0.003  0.00  0.00    +0.046 C 
ENDROOT
BRANCH   9  11
ATOM     11  C   UNL     1       1.671   0.483   4.946  0.00  0.00    +0.244 C 
ATOM     12  O   UNL     1       1.336   1.355   5.727  0.00  0.00    -0.270 OA
ATOM     13  N   UNL     1       1.522  -0.814   5.280  0.00  0.00    -0.325 N 
ATOM     14  H   UNL     1       1.788  -1.509   4.658  0.00  0.00    +0.145 HD
ATOM     15  H   UNL     1       1.147  -1.053   6.142  0.00  0.00    +0.145 HD
ENDBRANCH   9  11
BRANCH   8  16
ATOM     16  N   UNL     1       4.609   0.895   4.419  0.00  0.00    -0.291 N 
ATOM     17  H   UNL     1       4.390   0.659   5.333  0.00  0.00    +0.154 HD
BRANCH  16  18
ATOM     18  C   UNL     1       5.893   1.105   4.066  0.00  0.00    +0.141 C 
ATOM     19  S   UNL     1       6.281   1.523   2.452  0.00  0.00    -0.018 S 
BRANCH  18  20
ATOM     20  N   UNL     1       6.872   0.985   4.985  0.00  0.00    -0.267 N 
ATOM     21  C   UNL     1       8.156   1.195   4.632  0.00  0.00    +0.224 C 
ATOM     22  O   UNL     1       8.431   1.491   3.489  0.00  0.00    -0.275 OA
ATOM     23  H   UNL     1       6.653   0.749   5.899  0.00  0.00    +0.157 HD
BRANCH  21  24
ATOM     24  C   UNL     1       9.251   1.061   5.659  0.00  0.00    +0.039 C 
ATOM     25  C   UNL     1      10.603   1.349   5.004  0.00  0.00    +0.020 C 
ATOM     26  C   UNL     1       9.011   2.060   6.793  0.00  0.00    +0.020 C 
ATOM     27  C   UNL     1       9.250  -0.361   6.224  0.00  0.00    +0.020 C 
ENDBRANCH  21  24
ENDBRANCH  18  20
ENDBRANCH  16  18
ENDBRANCH   8  16
TORSDOF 5
