REMARK  Name = ZINC06196840
REMARK  9 active torsions:
REMARK  status: ('A' for Active; 'I' for Inactive)
REMARK    1  A    between atoms: C_1  and  C_2
REMARK    2  A    between atoms: C_2  and  O_3
REMARK    3  A    between atoms: O_3  and  C_4
REMARK    4  A    between atoms: C_11  and  C_16
REMARK    5  A    between atoms: C_16  and  C_18
REMARK    6  A    between atoms: C_16  and  N_70
REMARK    7  A    between atoms: N_22  and  C_23
REMARK    8  A    between atoms: C_23  and  C_24
REMARK    9  A    between atoms: C_32  and  C_35
REMARK                            x       y       z     vdW  Elec       q    Type
REMARK                         _______ _______ _______ _____ _____    ______ ____
ROOT
ATOM      1  C   UNL     1      -5.707  -6.401   0.024  0.00  0.00    +0.039 C 
ENDROOT
BRANCH   1   9
ATOM      2  C   UNL     1      -1.498  -1.849   0.006  0.00  0.00    +0.121 A 
ATOM      3  C   UNL     1      -0.380  -2.679  -0.014  0.00  0.00    +0.047 A 
ATOM      4  C   UNL     1      -0.523  -4.049  -0.015  0.00  0.00    +0.030 A 
ATOM      5  C   UNL     1      -1.793  -4.615  -0.006  0.00  0.00    +0.049 A 
ATOM      6  C   UNL     1      -2.926  -3.780   0.010  0.00  0.00    +0.002 A 
ATOM      7  C   UNL     1      -2.768  -2.390   0.016  0.00  0.00    +0.055 A 
ATOM      8  C   UNL     1      -4.257  -4.389   0.020  0.00  0.00    +0.017 A 
ATOM      9  C   UNL     1      -4.351  -5.742   0.014  0.00  0.00    +0.011 A 
ATOM     10  C   UNL     1      -3.184  -6.535  -0.001  0.00  0.00    +0.251 A 
ATOM     11  O   UNL     1      -3.291  -7.750  -0.006  0.00  0.00    -0.268 OA
ATOM     12  N   UNL     1      -1.957  -5.986  -0.010  0.00  0.00    -0.322 N 
ATOM     13  H   UNL     1      -1.152  -6.578  -0.021  0.00  0.00    +0.169 HD
BRANCH   2  14
ATOM     14  O   UNL     1      -1.339  -0.499   0.012  0.00  0.00    -0.492 OA
BRANCH  14  16
ATOM     15  C   UNL     1      -0.019   1.526   0.010  0.00  0.00    +0.048 C 
ATOM     16  C   UNL     1       0.002  -0.004   0.002  0.00  0.00    +0.225 C 
ENDBRANCH  14  16
ENDBRANCH   2  14
ENDBRANCH   1   9
BRANCH   1  22
ATOM     17  C   UNL     1      -7.110  -7.982   1.209  0.00  0.00    -0.072 C 
ATOM     18  C   UNL     1      -7.036  -9.157   2.187  0.00  0.00    +0.017 C 
ATOM     19  C   UNL     1      -6.407  -8.705   3.476  0.00  0.00    -0.048 C 
ATOM     20  C   UNL     1      -5.720  -7.588   3.577  0.00  0.00    -0.041 C 
ATOM     21  C   UNL     1      -5.503  -6.652   2.423  0.00  0.00    -0.049 C 
ATOM     22  N   UNL     1      -5.774  -7.354   1.154  0.00  0.00    +0.392 N 
ATOM     23  H   UNL     1      -5.066  -8.085   1.018  0.00  0.00    -0.080 HD
BRANCH  19  24
ATOM     24  C   UNL     1      -6.565  -9.551   4.677  0.00  0.00    -0.022 A 
ATOM     25  C   UNL     1      -6.003 -10.828   4.714  0.00  0.00    +0.011 A 
ATOM     26  C   UNL     1      -6.149 -11.611   5.840  0.00  0.00    +0.039 A 
ATOM     27  C   UNL     1      -6.862 -11.136   6.929  0.00  0.00    +0.123 A 
ATOM     28  C   UNL     1      -7.428  -9.872   6.895  0.00  0.00    +0.039 A 
ATOM     29  C   UNL     1      -7.282  -9.078   5.777  0.00  0.00    +0.011 A 
ATOM     30  F   UNL     1      -7.006 -11.909   8.027  0.00  0.00    -0.205 F 
ENDBRANCH  19  24
ENDBRANCH   1  22
BRANCH   1  31
ATOM     31  C   UNL     1      -5.909  -7.154  -1.266  0.00  0.00    +0.143 A 
ATOM     32  N   UNL     1      -5.361  -8.297  -1.599  0.00  0.00    -0.115 NA
ATOM     33  N   UNL     1      -5.781  -8.612  -2.775  0.00  0.00    -0.023 NA
ATOM     34  N   UNL     1      -6.582  -7.700  -3.202  0.00  0.00    -0.044 NA
ATOM     35  N   UNL     1      -6.691  -6.786  -2.297  0.00  0.00    -0.228 N 
BRANCH  35  36
ATOM     36  C   UNL     1      -7.510  -5.574  -2.379  0.00  0.00    +0.178 C 
BRANCH  36  37
ATOM     37  C   UNL     1      -6.686  -4.442  -2.996  0.00  0.00    +0.140 C 
ATOM     38  C   UNL     1      -7.550  -3.165  -3.142  0.00  0.00    +0.035 C 
ATOM     39  C   UNL     1      -6.454  -2.065  -3.137  0.00  0.00    +0.031 C 
ATOM     40  C   UNL     1      -5.402  -2.654  -2.173  0.00  0.00    +0.160 C 
ATOM     41  O   UNL     1      -5.612  -4.070  -2.117  0.00  0.00    -0.375 OA
ENDBRANCH  36  37
ENDBRANCH  35  36
ENDBRANCH   1  31
TORSDOF 8
