REMARK  Name = ZINC13064907
REMARK  15 active torsions:
REMARK  status: ('A' for Active; 'I' for Inactive)
REMARK    1  A    between atoms: C_1  and  C_2
REMARK    2  A    between atoms: C_2  and  C_3
REMARK    3  A    between atoms: C_3  and  C_5
REMARK    4  A    between atoms: C_3  and  N_69
REMARK    5  A    between atoms: N_9  and  C_10
REMARK    6  A    between atoms: C_10  and  C_11
REMARK    7  A    between atoms: C_11  and  O_13
REMARK    8  A    between atoms: O_13  and  C_14
REMARK    9  A    between atoms: C_14  and  C_15
REMARK   10  A    between atoms: C_16  and  C_17
REMARK   11  A    between atoms: C_16  and  N_69
REMARK   12  A    between atoms: C_20  and  C_30
REMARK   13  A    between atoms: C_22  and  C_29
REMARK   14  A    between atoms: C_31  and  C_32
REMARK   15  A    between atoms: C_31  and  N_69
REMARK                            x       y       z     vdW  Elec       q    Type
REMARK                         _______ _______ _______ _____ _____    ______ ____
ROOT
ATOM      1  N   UNL     1       4.444   2.529   2.705  0.00  0.00    +0.391 N 
ATOM      2  H   UNL     1       5.214   3.140   3.001  0.00  0.00    -0.080 HD
ENDROOT
BRANCH   1   3
ATOM      3  C   UNL     1       3.435   3.340   1.990  0.00  0.00    +0.003 C 
BRANCH   3   4
ATOM      4  C   UNL     1       2.468   2.451   1.253  0.00  0.00    +0.139 A 
ATOM      5  N   UNL     1       2.768   1.403   0.524  0.00  0.00    -0.115 NA
ATOM      6  N   UNL     1       1.670   0.915   0.058  0.00  0.00    -0.023 NA
ATOM      7  N   UNL     1       0.677   1.621   0.476  0.00  0.00    -0.043 NA
ATOM      8  N   UNL     1       1.128   2.575   1.218  0.00  0.00    -0.220 N 
BRANCH   8   9
ATOM      9  C   UNL     1       0.332   3.604   1.891  0.00  0.00    +0.267 C 
BRANCH   9  10
ATOM     10  C   UNL     1      -0.277   3.029   3.144  0.00  0.00    +0.329 C 
ATOM     11  O   UNL     1       0.063   1.937   3.534  0.00  0.00    -0.249 OA
BRANCH  10  12
ATOM     12  O   UNL     1      -1.196   3.729   3.826  0.00  0.00    -0.464 OA
BRANCH  12  13
ATOM     13  C   UNL     1      -1.832   3.064   4.949  0.00  0.00    +0.229 C 
ATOM     14  C   UNL     1      -2.949   3.952   5.502  0.00  0.00    +0.048 C 
ENDBRANCH  12  13
ENDBRANCH  10  12
ENDBRANCH   9  10
ENDBRANCH   8   9
ENDBRANCH   3   4
BRANCH   3  16
ATOM     15  C   UNL     1       5.031   5.248   1.751  0.00  0.00    +0.002 C 
ATOM     16  C   UNL     1       4.154   4.250   0.992  0.00  0.00    -0.011 C 
ENDBRANCH   3  16
ENDBRANCH   1   3
BRANCH   1  17
ATOM     17  C   UNL     1       3.837   1.907   3.900  0.00  0.00    -0.036 C 
BRANCH  17  18
ATOM     18  C   UNL     1       3.873   2.903   5.031  0.00  0.00    +0.001 A 
ATOM     19  C   UNL     1       2.788   3.676   5.285  0.00  0.00    +0.017 A 
ATOM     20  C   UNL     1       2.854   4.631   6.393  0.00  0.00    +0.002 A 
ATOM     21  C   UNL     1       1.766   5.451   6.707  0.00  0.00    -0.041 A 
ATOM     22  C   UNL     1       1.861   6.335   7.745  0.00  0.00    +0.007 A 
ATOM     23  C   UNL     1       3.029   6.426   8.490  0.00  0.00    -0.048 A 
ATOM     24  C   UNL     1       4.113   5.628   8.199  0.00  0.00    +0.029 A 
ATOM     25  C   UNL     1       4.040   4.720   7.147  0.00  0.00    +0.050 A 
ATOM     26  N   UNL     1       5.109   3.909   6.834  0.00  0.00    -0.322 N 
ATOM     27  H   UNL     1       5.925   3.971   7.355  0.00  0.00    +0.169 HD
ATOM     28  C   UNL     1       5.038   3.031   5.818  0.00  0.00    +0.251 A 
ATOM     29  O   UNL     1       6.003   2.330   5.569  0.00  0.00    -0.268 OA
ATOM     30  C   UNL     1       3.110   7.408   9.631  0.00  0.00    +0.044 C 
ATOM     31  C   UNL     1       0.494   5.361   5.904  0.00  0.00    +0.044 C 
ENDBRANCH  17  18
ENDBRANCH   1  17
BRANCH   1  32
ATOM     32  C   UNL     1       4.978   1.483   1.808  0.00  0.00    -0.045 C 
BRANCH  32  33
ATOM     33  C   UNL     1       6.311   0.988   2.372  0.00  0.00    +0.102 C 
ATOM     34  C   UNL     1       6.991   0.023   1.375  0.00  0.00    +0.032 C 
ATOM     35  C   UNL     1       7.647  -1.047   2.277  0.00  0.00    +0.030 C 
ATOM     36  C   UNL     1       7.286  -0.601   3.712  0.00  0.00    +0.160 C 
ATOM     37  O   UNL     1       6.092   0.198   3.560  0.00  0.00    -0.378 OA
ENDBRANCH  32  33
ENDBRANCH   1  32
TORSDOF 11
