REMARK  Name = ZINC66256540
REMARK  5 active torsions:
REMARK  status: ('A' for Active; 'I' for Inactive)
REMARK    1  A    between atoms: C_1  and  C_2
REMARK    2  A    between atoms: C_2  and  N_3
REMARK    3  A    between atoms: C_11  and  C_12
REMARK    4  A    between atoms: C_12  and  N_13
REMARK    5  A    between atoms: C_19  and  C_24
REMARK                            x       y       z     vdW  Elec       q    Type
REMARK                         _______ _______ _______ _____ _____    ______ ____
ROOT
ATOM      1  C   UNL     1      -1.700  -0.609  -2.508  0.00  0.00    +0.200 C 
ENDROOT
BRANCH   1   2
ATOM      2  N   UNL     1      -1.079  -1.849  -2.983  0.00  0.00    -0.291 N 
ATOM      3  C   UNL     1       0.257  -2.035  -2.826  0.00  0.00    +0.203 A 
ATOM      4  N   UNL     1       0.880  -3.104  -3.220  0.00  0.00    -0.237 NA
ATOM      5  C   UNL     1       0.226  -4.126  -3.827  0.00  0.00    +0.078 A 
ATOM      6  C   UNL     1       0.895  -5.276  -4.250  0.00  0.00    +0.029 A 
ATOM      7  C   UNL     1       0.190  -6.289  -4.861  0.00  0.00    +0.005 A 
ATOM      8  C   UNL     1      -1.180  -6.182  -5.062  0.00  0.00    -0.050 A 
ATOM      9  C   UNL     1      -1.862  -5.057  -4.653  0.00  0.00    +0.018 A 
ATOM     10  C   UNL     1      -1.168  -4.021  -4.032  0.00  0.00    +0.065 A 
ATOM     11  C   UNL     1      -1.843  -2.799  -3.570  0.00  0.00    +0.262 A 
ATOM     12  O   UNL     1      -3.043  -2.647  -3.712  0.00  0.00    -0.267 OA
ATOM     13  C   UNL     1      -1.927  -7.305  -5.734  0.00  0.00    +0.044 C 
ENDBRANCH   1   2
BRANCH   1  22
ATOM     14  N   UNL     1      -1.372  -0.511   0.012  0.00  0.00    -0.326 N 
ATOM     15  C   UNL     1      -2.132  -0.795   1.131  0.00  0.00    +0.069 A 
ATOM     16  C   UNL     1      -1.904  -0.715   2.498  0.00  0.00    +0.031 A 
ATOM     17  C   UNL     1      -2.895  -1.084   3.382  0.00  0.00    +0.040 A 
ATOM     18  C   UNL     1      -4.123  -1.535   2.914  0.00  0.00    +0.126 A 
ATOM     19  C   UNL     1      -4.367  -1.621   1.560  0.00  0.00    +0.068 A 
ATOM     20  C   UNL     1      -3.372  -1.250   0.652  0.00  0.00    +0.092 A 
ATOM     21  N   UNL     1      -3.307  -1.222  -0.704  0.00  0.00    -0.230 NA
ATOM     22  C   UNL     1      -2.139  -0.784  -1.077  0.00  0.00    +0.131 A 
ATOM     23  F   UNL     1      -5.085  -1.893   3.792  0.00  0.00    -0.205 F 
BRANCH  14  25
ATOM     24  C   UNL     1      -0.019   1.526   0.010  0.00  0.00    +0.027 C 
ATOM     25  C   UNL     1       0.002  -0.004   0.002  0.00  0.00    +0.120 C 
ENDBRANCH  14  25
ENDBRANCH   1  22
TORSDOF 3
