REMARK  Name = ZINC13500577
REMARK  19 active torsions:
REMARK  status: ('A' for Active; 'I' for Inactive)
REMARK    1  A    between atoms: C_1  and  C_2
REMARK    2  A    between atoms: C_2  and  C_3
REMARK    3  A    between atoms: C_3  and  C_4
REMARK    4  A    between atoms: C_3  and  C_5
REMARK    5  A    between atoms: C_3  and  N_6
REMARK    6  A    between atoms: C_7  and  C_11
REMARK    7  A    between atoms: C_11  and  C_13
REMARK    8  A    between atoms: C_11  and  N_72
REMARK    9  A    between atoms: C_13  and  C_14
REMARK   10  A    between atoms: C_13  and  C_15
REMARK   11  A    between atoms: C_16  and  C_17
REMARK   12  A    between atoms: C_16  and  N_72
REMARK   13  A    between atoms: C_17  and  C_18
REMARK   14  A    between atoms: C_18  and  O_19
REMARK   15  A    between atoms: C_20  and  C_21
REMARK   16  A    between atoms: C_20  and  N_72
REMARK   17  A    between atoms: C_25  and  O_33
REMARK   18  A    between atoms: O_33  and  C_34
REMARK   19  A    between atoms: C_34  and  C_35
REMARK                            x       y       z     vdW  Elec       q    Type
REMARK                         _______ _______ _______ _____ _____    ______ ____
ROOT
ATOM      1  N   UNL     1      -3.511   3.103   1.657  0.00  0.00    +0.389 N 
ATOM      2  H   UNL     1      -3.887   2.349   2.244  0.00  0.00    -0.080 HD
ENDROOT
BRANCH   1   3
ATOM      3  C   UNL     1      -4.457   4.239   1.669  0.00  0.00    +0.006 C 
BRANCH   3   5
ATOM      4  N   UNL     1      -6.199   3.616   3.425  0.00  0.00    -0.225 N 
ATOM      5  C   UNL     1      -5.113   4.303   3.024  0.00  0.00    +0.139 A 
ATOM      6  N   UNL     1      -4.733   5.034   4.044  0.00  0.00    -0.115 NA
ATOM      7  N   UNL     1      -5.548   4.814   5.017  0.00  0.00    -0.023 NA
ATOM      8  N   UNL     1      -6.433   3.955   4.647  0.00  0.00    -0.043 NA
BRANCH   4   9
ATOM      9  C   UNL     1      -6.970   2.663   2.623  0.00  0.00    +0.061 C 
ATOM     10  C   UNL     1      -7.612   3.392   1.441  0.00  0.00    +0.036 C 
ATOM     11  C   UNL     1      -6.040   1.566   2.101  0.00  0.00    +0.036 C 
BRANCH   9  13
ATOM     12  C   UNL     1      -8.868   1.039   2.652  0.00  0.00    +0.006 C 
ATOM     13  C   UNL     1      -8.063   2.034   3.489  0.00  0.00    +0.026 C 
ENDBRANCH   9  13
ENDBRANCH   4   9
ENDBRANCH   3   5
BRANCH   3  14
ATOM     14  C   UNL     1      -3.719   5.551   1.397  0.00  0.00    -0.024 C 
ATOM     15  C   UNL     1      -3.110   5.513  -0.006  0.00  0.00    +0.006 C 
ATOM     16  C   UNL     1      -4.702   6.719   1.495  0.00  0.00    +0.006 C 
ENDBRANCH   3  14
ENDBRANCH   1   3
BRANCH   1  17
ATOM     17  C   UNL     1      -2.204   3.529   2.200  0.00  0.00    -0.075 C 
BRANCH  17  18
ATOM     18  C   UNL     1      -2.353   3.782   3.701  0.00  0.00    +0.009 C 
BRANCH  18  19
ATOM     19  C   UNL     1      -0.978   4.058   4.311  0.00  0.00    +0.154 C 
BRANCH  19  20
ATOM     20  O   UNL     1      -1.117   4.295   5.714  0.00  0.00    -0.395 OA
ATOM     21  H   UNL     1      -0.283   4.477   6.167  0.00  0.00    +0.209 HD
ENDBRANCH  19  20
ENDBRANCH  18  19
ENDBRANCH  17  18
ENDBRANCH   1  17
BRANCH   1  22
ATOM     22  C   UNL     1      -3.345   2.600   0.277  0.00  0.00    -0.037 C 
BRANCH  22  23
ATOM     23  C   UNL     1      -2.793   1.199   0.338  0.00  0.00    +0.001 A 
ATOM     24  C   UNL     1      -3.637   0.138   0.308  0.00  0.00    +0.017 A 
ATOM     25  C   UNL     1      -3.070  -1.210   0.362  0.00  0.00    +0.002 A 
ATOM     26  C   UNL     1      -3.892  -2.342   0.330  0.00  0.00    +0.055 A 
ATOM     27  C   UNL     1      -3.324  -3.598   0.388  0.00  0.00    +0.121 A 
ATOM     28  C   UNL     1      -1.941  -3.742   0.480  0.00  0.00    +0.047 A 
ATOM     29  C   UNL     1      -1.121  -2.636   0.513  0.00  0.00    +0.030 A 
ATOM     30  C   UNL     1      -1.673  -1.360   0.455  0.00  0.00    +0.049 A 
ATOM     31  N   UNL     1      -0.869  -0.239   0.487  0.00  0.00    -0.322 N 
ATOM     32  H   UNL     1       0.094  -0.343   0.550  0.00  0.00    +0.169 HD
ATOM     33  C   UNL     1      -1.399   0.995   0.431  0.00  0.00    +0.251 A 
ATOM     34  O   UNL     1      -0.658   1.962   0.462  0.00  0.00    -0.268 OA
BRANCH  27  35
ATOM     35  O   UNL     1      -4.118  -4.702   0.357  0.00  0.00    -0.492 OA
BRANCH  35  36
ATOM     36  C   UNL     1      -3.466  -5.972   0.421  0.00  0.00    +0.225 C 
ATOM     37  C   UNL     1      -4.514  -7.085   0.373  0.00  0.00    +0.048 C 
ENDBRANCH  35  36
ENDBRANCH  27  35
ENDBRANCH  22  23
ENDBRANCH   1  22
TORSDOF 13
