REMARK  Name = ZINC39690703
REMARK  4 active torsions:
REMARK  status: ('A' for Active; 'I' for Inactive)
REMARK    1  A    between atoms: C_5  and  C_7
REMARK    2  A    between atoms: C_7  and  N_8
REMARK    3  A    between atoms: C_9  and  C_11
REMARK    4  A    between atoms: C_22  and  C_24
REMARK                            x       y       z     vdW  Elec       q    Type
REMARK                         _______ _______ _______ _____ _____    ______ ____
ROOT
ATOM      1  C   UNL     1       1.818  -4.511   2.961  0.00  0.00    +0.100 C 
ATOM      2  C   UNL     1       3.260  -4.161   3.394  0.00  0.00    +0.121 C 
ATOM      3  N   UNL     1       3.712  -5.337   4.175  0.00  0.00    -0.297 N 
ATOM      4  C   UNL     1       3.162  -6.501   3.441  0.00  0.00    +0.115 C 
ATOM      5  C   UNL     1       1.759  -6.048   2.993  0.00  0.00    -0.004 C 
ATOM      6  C   UNL     1       0.708  -6.515   3.995  0.00  0.00    -0.010 C 
ATOM      7  C   UNL     1       0.627  -8.044   3.967  0.00  0.00    -0.082 C 
ATOM      8  N   UNL     1       0.276  -8.493   2.615  0.00  0.00    +0.379 N 
ATOM      9  C   UNL     1       1.337  -8.120   1.672  0.00  0.00    -0.082 C 
ATOM     10  C   UNL     1       1.448  -6.594   1.603  0.00  0.00    -0.010 C 
ATOM     11  C   UNL     1       4.455  -5.345   5.300  0.00  0.00    +0.260 C 
ATOM     12  O   UNL     1       4.746  -6.398   5.827  0.00  0.00    -0.271 OA
ATOM     13  H   UNL     1       0.164  -9.496   2.613  0.00  0.00    -0.086 HD
ATOM     14  H   UNL     1      -0.591  -8.060   2.333  0.00  0.00    -0.086 HD
ENDROOT
BRANCH  11  15
ATOM     15  C   UNL     1       4.924  -4.046   5.902  0.00  0.00    +0.296 C 
ATOM     16  C   UNL     1       5.909  -3.358   4.947  0.00  0.00    +0.283 C 
ATOM     17  O   UNL     1       6.344  -2.137   5.555  0.00  0.00    -0.484 OA
ATOM     18  C   UNL     1       6.714  -2.203   6.863  0.00  0.00    +0.162 A 
ATOM     19  C   UNL     1       7.473  -1.178   7.408  0.00  0.00    +0.049 A 
ATOM     20  C   UNL     1       7.854  -1.230   8.736  0.00  0.00    +0.004 A 
ATOM     21  C   UNL     1       7.479  -2.302   9.524  0.00  0.00    +0.004 A 
ATOM     22  C   UNL     1       6.724  -3.327   8.986  0.00  0.00    +0.049 A 
ATOM     23  C   UNL     1       6.340  -3.282   7.654  0.00  0.00    +0.163 A 
ATOM     24  O   UNL     1       5.602  -4.303   7.137  0.00  0.00    -0.473 OA
ENDBRANCH  11  15
BRANCH   1  26
ATOM     25  N   UNL     1       0.298  -3.671   1.200  0.00  0.00    -0.311 N 
ATOM     26  C   UNL     1       1.551  -4.005   1.567  0.00  0.00    +0.218 C 
ATOM     27  O   UNL     1       2.464  -3.897   0.776  0.00  0.00    -0.275 OA
ATOM     28  H   UNL     1      -0.432  -3.756   1.833  0.00  0.00    +0.149 HD
BRANCH  25  29
ATOM     29  C   UNL     1       0.038  -3.178  -0.155  0.00  0.00    +0.140 C 
BRANCH  29  34
ATOM     30  C   UNL     1      -3.606  -3.511  -1.081  0.00  0.00    +0.000 A 
ATOM     31  C   UNL     1      -4.126  -2.328  -0.588  0.00  0.00    +0.001 A 
ATOM     32  C   UNL     1      -3.299  -1.420   0.044  0.00  0.00    +0.015 A 
ATOM     33  C   UNL     1      -1.950  -1.695   0.185  0.00  0.00    +0.023 A 
ATOM     34  C   UNL     1      -1.431  -2.878  -0.307  0.00  0.00    -0.016 A 
ATOM     35  C   UNL     1      -2.259  -3.786  -0.940  0.00  0.00    +0.006 A 
ATOM     36 BR   UNL     1      -0.817  -0.453   1.051  0.00  0.00    -0.050 Br
ENDBRANCH  29  34
ENDBRANCH  25  29
ENDBRANCH   1  26
TORSDOF 4
