REMARK  Name = ZINC35732497
REMARK  4 active torsions:
REMARK  status: ('A' for Active; 'I' for Inactive)
REMARK    1  A    between atoms: C_1  and  C_2
REMARK    2  A    between atoms: C_7  and  N_12
REMARK    3  A    between atoms: C_9  and  C_11
REMARK    4  A    between atoms: C_13  and  C_15
REMARK                            x       y       z     vdW  Elec       q    Type
REMARK                         _______ _______ _______ _____ _____    ______ ____
ROOT
ATOM      1  N   UNL     1       1.471  -2.526   2.420  0.00  0.00    -0.308 N 
ATOM      2  C   UNL     1       2.056  -3.740   2.406  0.00  0.00    +0.247 C 
ATOM      3  O   UNL     1       1.996  -4.433   1.408  0.00  0.00    -0.270 OA
ATOM      4  H   UNL     1       1.520  -1.974   3.216  0.00  0.00    +0.149 HD
ENDROOT
BRANCH   1  10
ATOM      5  C   UNL     1      -0.019   1.526   0.010  0.00  0.00    +0.008 C 
ATOM      6  C   UNL     1       0.002  -0.004   0.002  0.00  0.00    -0.009 C 
ATOM      7  C   UNL     1      -1.433  -0.534   0.013  0.00  0.00    +0.003 C 
ATOM      8  C   UNL     1      -1.413  -2.063   0.004  0.00  0.00    +0.002 C 
ATOM      9  C   UNL     1      -0.673  -2.570   1.244  0.00  0.00    +0.022 C 
ATOM     10  C   UNL     1       0.763  -2.041   1.233  0.00  0.00    +0.076 C 
ATOM     11  C   UNL     1       0.742  -0.511   1.242  0.00  0.00    +0.009 C 
ATOM     12  C   UNL     1       0.026  -0.018   2.500  0.00  0.00    +0.009 C 
ENDBRANCH   1  10
BRANCH   2  13
ATOM     13  C   UNL     1       2.769  -4.229   3.600  0.00  0.00    +0.074 A 
ATOM     14  C   UNL     1       3.417  -5.441   3.730  0.00  0.00    +0.118 A 
ATOM     15  N   UNL     1       3.932  -5.491   4.968  0.00  0.00    -0.284 N 
ATOM     16  H   UNL     1       4.442  -6.228   5.341  0.00  0.00    +0.188 HD
ATOM     17  N   UNL     1       3.610  -4.302   5.632  0.00  0.00    -0.182 NA
ATOM     18  C   UNL     1       2.923  -3.541   4.825  0.00  0.00    +0.147 A 
ENDBRANCH   2  13
TORSDOF 2
