REMARK  Name = ZINC25443647
REMARK  8 active torsions:
REMARK  status: ('A' for Active; 'I' for Inactive)
REMARK    1  A    between atoms: C_1  and  N_2
REMARK    2  A    between atoms: N_2  and  C_3
REMARK    3  A    between atoms: N_2  and  C_4
REMARK    4  A    between atoms: C_4  and  C_11
REMARK    5  A    between atoms: C_11  and  N_12
REMARK    6  A    between atoms: C_13  and  C_15
REMARK    7  A    between atoms: C_15  and  C_16
REMARK    8  A    between atoms: C_16  and  N_17
REMARK                            x       y       z     vdW  Elec       q    Type
REMARK                         _______ _______ _______ _____ _____    ______ ____
ROOT
ATOM      1  N   UNL     1       6.904   5.020  -3.070  0.00  0.00    -0.317 N 
ATOM      2  C   UNL     1       6.150   4.437  -2.117  0.00  0.00    +0.215 C 
ATOM      3  O   UNL     1       6.027   4.967  -1.033  0.00  0.00    -0.276 OA
ATOM      4  H   UNL     1       7.015   4.539  -4.053  0.00  0.00    +0.149 HD
ENDROOT
BRANCH   1   5
ATOM      5  C   UNL     1       7.574   6.294  -2.797  0.00  0.00    +0.092 C 
BRANCH   5   6
ATOM      6  C   UNL     1       8.460   6.669  -3.987  0.00  0.00    -0.050 C 
ATOM      7  C   UNL     1       9.730   7.305  -3.491  0.00  0.00    -0.010 C 
ATOM      8  C   UNL     1       9.559   7.965  -2.110  0.00  0.00    -0.001 C 
ATOM      9  C   UNL     1       8.232   8.737  -1.977  0.00  0.00    -0.000 C 
ATOM     10  C   UNL     1       7.899   9.527  -3.214  0.00  0.00    -0.000 C 
ATOM     11  C   UNL     1       6.980   8.670  -4.109  0.00  0.00    -0.001 C 
ATOM     12  C   UNL     1       7.721   7.685  -4.883  0.00  0.00    -0.010 C 
BRANCH   6  14
ATOM     13  C   UNL     1       9.538   5.805  -5.975  0.00  0.00    -0.096 C 
ATOM     14  N   UNL     1       8.777   5.465  -4.765  0.00  0.00    +0.381 N 
ATOM     15  C   UNL     1       9.502   4.484  -3.946  0.00  0.00    -0.096 C 
ATOM     16  H   UNL     1       7.828   5.006  -5.080  0.00  0.00    -0.082 HD
ENDBRANCH   6  14
ENDBRANCH   5   6
ENDBRANCH   1   5
BRANCH   2  17
ATOM     17  C   UNL     1       5.461   3.127  -2.397  0.00  0.00    +0.117 C 
BRANCH  17  18
ATOM     18  C   UNL     1       4.677   2.687  -1.159  0.00  0.00    +0.136 C 
BRANCH  18  19
ATOM     19  N   UNL     1       4.007   1.414  -1.432  0.00  0.00    -0.288 N 
ATOM     20  C   UNL     1       4.649   0.256  -1.163  0.00  0.00    +0.262 A 
ATOM     21  O   UNL     1       5.773   0.260  -0.699  0.00  0.00    -0.267 OA
ATOM     22  C   UNL     1       3.953  -1.011  -1.448  0.00  0.00    +0.063 A 
ATOM     23  C   UNL     1       4.547  -2.246  -1.199  0.00  0.00    +0.015 A 
ATOM     24  C   UNL     1       3.853  -3.404  -1.482  0.00  0.00    +0.001 A 
ATOM     25  C   UNL     1       2.573  -3.343  -2.011  0.00  0.00    +0.002 A 
ATOM     26  C   UNL     1       1.972  -2.125  -2.263  0.00  0.00    +0.026 A 
ATOM     27  C   UNL     1       2.655  -0.951  -1.984  0.00  0.00    +0.053 A 
ATOM     28  N   UNL     1       2.088   0.293  -2.221  0.00  0.00    -0.335 N 
ATOM     29  H   UNL     1       1.073   0.364  -2.641  0.00  0.00    +0.168 HD
ATOM     30  C   UNL     1       2.766   1.419  -1.944  0.00  0.00    +0.161 A 
ATOM     31  S   UNL     1       2.017   2.926  -2.258  0.00  0.00    -0.013 S 
ENDBRANCH  18  19
ENDBRANCH  17  18
ENDBRANCH   2  17
TORSDOF 6
