REMARK  Name = ZINC09720438
REMARK  8 active torsions:
REMARK  status: ('A' for Active; 'I' for Inactive)
REMARK    1  A    between atoms: C_1  and  C_2
REMARK    2  A    between atoms: C_6  and  C_8
REMARK    3  A    between atoms: N_13  and  C_16
REMARK    4  A    between atoms: C_19  and  N_36
REMARK    5  A    between atoms: C_20  and  N_22
REMARK    6  A    between atoms: N_22  and  C_23
REMARK    7  A    between atoms: C_23  and  C_25
REMARK    8  A    between atoms: C_23  and  C_26
REMARK                            x       y       z     vdW  Elec       q    Type
REMARK                         _______ _______ _______ _____ _____    ______ ____
ROOT
ATOM      1  C   UNL     1       2.021   1.330  -1.418  0.00  0.00    +0.032 A 
ATOM      2  C   UNL     1       2.340  -0.022  -1.370  0.00  0.00    +0.025 A 
ATOM      3  C   UNL     1       1.412  -0.967  -1.760  0.00  0.00    +0.036 A 
ATOM      4  C   UNL     1       0.164  -0.573  -2.203  0.00  0.00    +0.147 A 
ATOM      5  C   UNL     1      -0.165   0.777  -2.248  0.00  0.00    +0.060 A 
ATOM      6  C   UNL     1       0.766   1.729  -1.857  0.00  0.00    +0.048 A 
ENDROOT
BRANCH   1  12
ATOM      7  C   UNL     1       6.528   4.226  -1.350  0.00  0.00    +0.247 C 
ATOM      8  O   UNL     1       7.519   3.761  -0.821  0.00  0.00    -0.270 OA
ATOM      9  N   UNL     1       5.304   3.792  -0.989  0.00  0.00    -0.295 N 
ATOM     10  C   UNL     1       5.148   2.708  -0.007  0.00  0.00    +0.127 C 
ATOM     11  C   UNL     1       4.213   1.647  -0.599  0.00  0.00    +0.124 C 
ATOM     12  N   UNL     1       2.960   2.285  -1.025  0.00  0.00    -0.327 N 
ATOM     13  C   UNL     1       3.198   3.262  -2.095  0.00  0.00    +0.124 C 
ATOM     14  C   UNL     1       4.090   4.389  -1.565  0.00  0.00    +0.127 C 
BRANCH   7  20
ATOM     15  C   UNL     1       9.067   6.221  -5.154  0.00  0.00    +0.044 C 
ATOM     16  C   UNL     1       7.884   6.232  -4.221  0.00  0.00    -0.050 A 
ATOM     17  C   UNL     1       6.922   7.219  -4.338  0.00  0.00    +0.003 A 
ATOM     18  C   UNL     1       5.832   7.236  -3.486  0.00  0.00    +0.001 A 
ATOM     19  C   UNL     1       5.696   6.264  -2.516  0.00  0.00    +0.013 A 
ATOM     20  C   UNL     1       6.665   5.268  -2.390  0.00  0.00    +0.037 A 
ATOM     21  C   UNL     1       7.762   5.257  -3.253  0.00  0.00    +0.016 A 
ENDBRANCH   7  20
ENDBRANCH   1  12
BRANCH   4  22
ATOM     22  N   UNL     1      -0.826  -1.589  -2.625  0.00  0.00    +0.058 N 
ATOM     23  O   UNL     1      -0.506  -2.762  -2.687  0.00  0.00    -0.126 OA
ATOM     24  O   UNL     1      -1.961  -1.252  -2.911  0.00  0.00    -0.126 OA
ENDBRANCH   4  22
BRANCH   5  25
ATOM     25  N   UNL     1      -1.428   1.174  -2.690  0.00  0.00    -0.339 N 
ATOM     26  H   UNL     1      -2.107   0.508  -2.880  0.00  0.00    +0.146 HD
BRANCH  25  27
ATOM     27  C   UNL     1      -1.728   2.597  -2.868  0.00  0.00    +0.074 C 
ATOM     28  C   UNL     1      -2.169   3.197  -1.531  0.00  0.00    +0.028 C 
BRANCH  27  29
ATOM     29  C   UNL     1      -2.851   2.758  -3.894  0.00  0.00    -0.010 C 
ATOM     30  C   UNL     1      -4.103   2.031  -3.398  0.00  0.00    +0.012 C 
ATOM     31  C   UNL     1      -5.226   2.192  -4.425  0.00  0.00    -0.010 C 
ATOM     32  C   UNL     1      -5.539   3.678  -4.611  0.00  0.00    +0.007 C 
ATOM     33  C   UNL     1      -4.287   4.405  -5.106  0.00  0.00    -0.010 C 
ATOM     34  C   UNL     1      -3.164   4.244  -4.080  0.00  0.00    +0.012 C 
ATOM     35  C   UNL     1      -3.845   3.805  -6.443  0.00  0.00    +0.007 C 
ATOM     36  C   UNL     1      -3.533   2.319  -6.258  0.00  0.00    -0.010 C 
ATOM     37  C   UNL     1      -4.784   1.593  -5.762  0.00  0.00    +0.007 C 
ATOM     38  C   UNL     1      -2.409   2.159  -5.231  0.00  0.00    +0.012 C 
ENDBRANCH  27  29
ENDBRANCH  25  27
ENDBRANCH   5  25
TORSDOF 6
