REMARK  Name = ZINC05175361
REMARK  4 active torsions:
REMARK  status: ('A' for Active; 'I' for Inactive)
REMARK    1  A    between atoms: C_1  and  C_2
REMARK    2  A    between atoms: C_9  and  C_14
REMARK    3  A    between atoms: C_14  and  C_16
REMARK    4  A    between atoms: C_16  and  C_18
REMARK                            x       y       z     vdW  Elec       q    Type
REMARK                         _______ _______ _______ _____ _____    ______ ____
ROOT
ATOM      1  C   UNL     1       1.906   1.878   1.377  0.00  0.00    +0.062 C 
ATOM      2  C   UNL     1       1.252   2.014   0.001  0.00  0.00    +0.256 C 
ATOM      3  C   UNL     1       2.142   1.389  -1.043  0.00  0.00    +0.258 C 
ATOM      4  O   UNL     1       2.969   2.063  -1.621  0.00  0.00    -0.271 OA
ATOM      5  N   UNL     1       2.015   0.076  -1.331  0.00  0.00    -0.280 N 
ATOM      6  C   UNL     1       1.027  -0.672  -0.673  0.00  0.00    +0.076 A 
ATOM      7  C   UNL     1       1.062  -2.051  -0.691  0.00  0.00    +0.038 A 
ATOM      8  C   UNL     1       0.065  -2.779  -0.029  0.00  0.00    +0.021 A 
ATOM      9  C   UNL     1      -0.959  -2.102   0.646  0.00  0.00    +0.015 A 
ATOM     10  C   UNL     1      -0.986  -0.725   0.658  0.00  0.00    +0.048 A 
ATOM     11  C   UNL     1       0.002  -0.004   0.002  0.00  0.00    +0.143 A 
ATOM     12  O   UNL     1      -0.016   1.354   0.009  0.00  0.00    -0.478 OA
ATOM     13  H   UNL     1       2.598  -0.344  -1.984  0.00  0.00    +0.155 HD
ENDROOT
BRANCH   8  14
ATOM     14  C   UNL     1       0.093  -4.247  -0.041  0.00  0.00    +0.180 C 
ATOM     15  O   UNL     1       0.981  -4.831  -0.626  0.00  0.00    -0.291 OA
BRANCH  14  16
ATOM     16  C   UNL     1      -0.980  -5.027   0.673  0.00  0.00    +0.148 C 
ATOM     17  C   UNL     1      -0.605  -5.179   2.148  0.00  0.00    +0.033 C 
ATOM     18 CL   UNL     1      -1.137  -6.659  -0.078  0.00  0.00    -0.114 Cl
ENDBRANCH  14  16
ENDBRANCH   8  14
TORSDOF 2
