REMARK  Name = ZINC39670066
REMARK  6 active torsions:
REMARK  status: ('A' for Active; 'I' for Inactive)
REMARK    1  A    between atoms: C_1  and  C_2
REMARK    2  A    between atoms: C_7  and  C_11
REMARK    3  A    between atoms: C_11  and  N_12
REMARK    4  A    between atoms: C_13  and  C_15
REMARK    5  A    between atoms: C_26  and  C_28
REMARK    6  A    between atoms: C_31  and  C_35
REMARK                            x       y       z     vdW  Elec       q    Type
REMARK                         _______ _______ _______ _____ _____    ______ ____
ROOT
ATOM      1  C   UNL     1       2.835  -7.697   3.156  0.00  0.00    +0.100 C 
ATOM      2  C   UNL     1       3.906  -7.862   2.055  0.00  0.00    +0.121 C 
ATOM      3  N   UNL     1       4.790  -8.942   2.552  0.00  0.00    -0.296 N 
ATOM      4  C   UNL     1       3.866  -9.918   3.177  0.00  0.00    +0.115 C 
ATOM      5  C   UNL     1       2.811  -9.049   3.890  0.00  0.00    -0.004 C 
ATOM      6  C   UNL     1       1.432  -9.690   3.771  0.00  0.00    -0.010 C 
ATOM      7  C   UNL     1       1.416 -11.004   4.558  0.00  0.00    -0.082 C 
ATOM      8  N   UNL     1       1.734 -10.738   5.965  0.00  0.00    +0.379 N 
ATOM      9  C   UNL     1       3.098 -10.208   6.079  0.00  0.00    -0.082 C 
ATOM     10  C   UNL     1       3.186  -8.860   5.357  0.00  0.00    -0.010 C 
ATOM     11  C   UNL     1       6.133  -9.019   2.458  0.00  0.00    +0.247 C 
ATOM     12  O   UNL     1       6.767  -8.075   2.029  0.00  0.00    -0.270 OA
ATOM     13  H   UNL     1       1.081 -10.064   6.335  0.00  0.00    -0.086 HD
ATOM     14  H   UNL     1       1.663 -11.595   6.493  0.00  0.00    -0.086 HD
ENDROOT
BRANCH  11  15
ATOM     15  C   UNL     1       6.833 -10.252   2.876  0.00  0.00    +0.040 A 
ATOM     16  C   UNL     1       6.139 -11.461   2.954  0.00  0.00    +0.014 A 
ATOM     17  C   UNL     1       6.798 -12.608   3.345  0.00  0.00    +0.016 A 
ATOM     18  C   UNL     1       8.144 -12.565   3.659  0.00  0.00    +0.090 A 
ATOM     19  C   UNL     1       8.840 -11.369   3.584  0.00  0.00    +0.136 A 
ATOM     20  C   UNL     1       8.193 -10.214   3.188  0.00  0.00    +0.052 A 
ATOM     21  F   UNL     1      10.155 -11.334   3.893  0.00  0.00    -0.205 F 
BRANCH  18  22
ATOM     22  C   UNL     1       8.857 -13.823   4.084  0.00  0.00    +0.420 C 
ATOM     23  F   UNL     1       7.955 -14.892   4.085  0.00  0.00    -0.166 F 
ATOM     24  F   UNL     1       9.899 -14.092   3.192  0.00  0.00    -0.166 F 
ATOM     25  F   UNL     1       9.377 -13.651   5.371  0.00  0.00    -0.166 F 
ENDBRANCH  18  22
ENDBRANCH  11  15
BRANCH   1  27
ATOM     26  N   UNL     1       0.587  -6.666   3.210  0.00  0.00    -0.309 N 
ATOM     27  C   UNL     1       1.489  -7.410   2.541  0.00  0.00    +0.219 C 
ATOM     28  O   UNL     1       1.218  -7.850   1.444  0.00  0.00    -0.275 OA
ATOM     29  H   UNL     1       0.804  -6.314   4.088  0.00  0.00    +0.149 HD
BRANCH  26  30
ATOM     30  C   UNL     1      -0.721  -6.387   2.612  0.00  0.00    +0.159 C 
BRANCH  30  37
ATOM     31  C   UNL     1      -5.101  -3.578   7.883  0.00  0.00    +0.044 C 
ATOM     32  C   UNL     1      -4.168  -3.681   6.704  0.00  0.00    -0.046 A 
ATOM     33  C   UNL     1      -3.745  -2.520   6.035  0.00  0.00    +0.021 A 
ATOM     34  C   UNL     1      -2.909  -2.609   4.979  0.00  0.00    +0.093 A 
ATOM     35  N   UNL     1      -2.463  -3.824   4.547  0.00  0.00    -0.308 N 
ATOM     36  C   UNL     1      -1.630  -4.194   3.526  0.00  0.00    +0.115 A 
ATOM     37  C   UNL     1      -1.535  -5.541   3.557  0.00  0.00    +0.051 A 
ATOM     38  N   UNL     1      -2.284  -5.998   4.563  0.00  0.00    -0.342 N 
ATOM     39  C   UNL     1      -2.857  -4.974   5.179  0.00  0.00    +0.116 A 
ATOM     40  C   UNL     1      -3.726  -4.898   6.287  0.00  0.00    +0.048 A 
ATOM     41  H   UNL     1      -2.392  -6.931   4.805  0.00  0.00    +0.167 HD
ENDBRANCH  30  37
ENDBRANCH  26  30
ENDBRANCH   1  27
TORSDOF 5
