REMARK  Name = ZINC12672773
REMARK  7 active torsions:
REMARK  status: ('A' for Active; 'I' for Inactive)
REMARK    1  A    between atoms: C_1  and  C_2
REMARK    2  A    between atoms: C_5  and  S_8
REMARK    3  A    between atoms: S_8  and  C_9
REMARK    4  A    between atoms: C_9  and  C_10
REMARK    5  A    between atoms: N_12  and  N_13
REMARK    6  A    between atoms: C_14  and  C_16
REMARK    7  A    between atoms: N_25  and  C_27
REMARK                            x       y       z     vdW  Elec       q    Type
REMARK                         _______ _______ _______ _____ _____    ______ ____
ROOT
ATOM      1  N   UNL     1       2.241   5.727  -0.377  0.00  0.00    -0.229 N 
ATOM      2  C   UNL     1       2.333   4.387  -0.270  0.00  0.00    +0.281 C 
ATOM      3  O   UNL     1       3.422   3.848  -0.295  0.00  0.00    -0.267 OA
ATOM      4  H   UNL     1       1.372   6.157  -0.357  0.00  0.00    +0.173 HD
ENDROOT
BRANCH   2   5
ATOM      5  C   UNL     1       1.110   3.573  -0.122  0.00  0.00    +0.155 A 
ATOM      6  C   UNL     1       1.199   2.109  -0.004  0.00  0.00    +0.020 A 
ATOM      7  C   UNL     1       2.409   1.424  -0.026  0.00  0.00    +0.011 A 
ATOM      8  C   UNL     1       2.411   0.050   0.089  0.00  0.00    +0.001 A 
ATOM      9  C   UNL     1       1.222  -0.654   0.226  0.00  0.00    +0.001 A 
ATOM     10  C   UNL     1       0.011   0.006   0.250  0.00  0.00    +0.014 A 
ATOM     11  C   UNL     1      -0.012   1.392   0.135  0.00  0.00    +0.051 A 
ATOM     12  C   UNL     1      -1.256   2.173   0.144  0.00  0.00    +0.280 A 
ATOM     13  O   UNL     1      -2.336   1.622   0.256  0.00  0.00    -0.265 OA
ATOM     14  N   UNL     1      -1.175   3.514   0.031  0.00  0.00    -0.196 N 
ATOM     15  N   UNL     1      -0.070   4.147  -0.094  0.00  0.00    -0.158 NA
BRANCH  14  16
ATOM     16  C   UNL     1      -2.362   4.254   0.046  0.00  0.00    +0.069 A 
ATOM     17  C   UNL     1      -2.595   5.216  -0.928  0.00  0.00    +0.028 A 
ATOM     18  C   UNL     1      -3.771   5.940  -0.913  0.00  0.00    +0.002 A 
ATOM     19  C   UNL     1      -4.711   5.716   0.077  0.00  0.00    +0.000 A 
ATOM     20  C   UNL     1      -4.479   4.763   1.052  0.00  0.00    +0.002 A 
ATOM     21  C   UNL     1      -3.308   4.031   1.039  0.00  0.00    +0.028 A 
ENDBRANCH  14  16
ENDBRANCH   2   5
BRANCH   1  24
ATOM     22  C   UNL     1       3.311   7.840  -0.625  0.00  0.00    +0.239 C 
ATOM     23  O   UNL     1       2.224   8.378  -0.600  0.00  0.00    -0.273 OA
ATOM     24  N   UNL     1       3.402   6.500  -0.517  0.00  0.00    -0.233 N 
ATOM     25  H   UNL     1       4.271   6.069  -0.537  0.00  0.00    +0.173 HD
BRANCH  22  26
ATOM     26  C   UNL     1       4.559   8.671  -0.775  0.00  0.00    +0.171 C 
BRANCH  26  27
ATOM     27  S   UNL     1       4.108  10.424  -0.894  0.00  0.00    -0.116 S 
BRANCH  27  32
ATOM     28  C   UNL     1       9.406  13.258  -1.475  0.00  0.00    +0.044 C 
ATOM     29  C   UNL     1       8.083  12.550  -1.330  0.00  0.00    -0.050 A 
ATOM     30  C   UNL     1       6.909  13.280  -1.316  0.00  0.00    +0.004 A 
ATOM     31  C   UNL     1       5.695  12.635  -1.183  0.00  0.00    +0.015 A 
ATOM     32  C   UNL     1       5.655  11.251  -1.064  0.00  0.00    +0.008 A 
ATOM     33  C   UNL     1       6.838  10.521  -1.073  0.00  0.00    +0.015 A 
ATOM     34  C   UNL     1       8.047  11.173  -1.212  0.00  0.00    +0.004 A 
ENDBRANCH  27  32
ENDBRANCH  26  27
ENDBRANCH  22  26
ENDBRANCH   1  24
TORSDOF 6
