REMARK  Name = ZINC20182166
REMARK  7 active torsions:
REMARK  status: ('A' for Active; 'I' for Inactive)
REMARK    1  A    between atoms: C_1  and  C_2
REMARK    2  A    between atoms: C_10  and  O_13
REMARK    3  A    between atoms: O_13  and  C_14
REMARK    4  A    between atoms: N_18  and  C_19
REMARK    5  A    between atoms: C_23  and  C_25
REMARK    6  A    between atoms: N_27  and  C_28
REMARK    7  A    between atoms: C_28  and  C_29
REMARK                            x       y       z     vdW  Elec       q    Type
REMARK                         _______ _______ _______ _____ _____    ______ ____
ROOT
ATOM      1  C   UNL     1       4.737  -4.082  -1.132  0.00  0.00    +0.079 C 
ATOM      2  C   UNL     1       3.839  -4.872  -0.178  0.00  0.00    +0.185 C 
ATOM      3  C   UNL     1       3.627  -6.301  -0.742  0.00  0.00    +0.096 C 
ATOM      4  C   UNL     1       2.624  -6.987   0.200  0.00  0.00    +0.114 C 
ATOM      5  C   UNL     1       3.137  -6.888   1.619  0.00  0.00    +0.018 A 
ATOM      6  C   UNL     1       2.718  -7.817   2.552  0.00  0.00    +0.009 A 
ATOM      7  C   UNL     1       3.168  -7.749   3.856  0.00  0.00    +0.004 A 
ATOM      8  C   UNL     1       4.048  -6.750   4.232  0.00  0.00    +0.049 A 
ATOM      9  C   UNL     1       4.478  -5.821   3.301  0.00  0.00    +0.162 A 
ATOM     10  C   UNL     1       4.026  -5.890   1.982  0.00  0.00    +0.170 A 
ATOM     11  O   UNL     1       4.476  -4.966   1.093  0.00  0.00    -0.464 OA
ATOM     12  N   UNL     1       1.364  -6.228   0.135  0.00  0.00    -0.292 N 
ATOM     13  C   UNL     1       1.397  -4.888   0.041  0.00  0.00    +0.310 C 
ATOM     14  O   UNL     1       0.348  -4.274   0.053  0.00  0.00    -0.252 OA
ATOM     15  N   UNL     1       2.546  -4.203  -0.065  0.00  0.00    -0.216 N 
ATOM     16  H   UNL     1       0.401  -6.758   0.163  0.00  0.00    +0.151 HD
ENDROOT
BRANCH  15  17
ATOM     17  C   UNL     1       2.503  -2.804  -0.071  0.00  0.00    +0.042 A 
ATOM     18  C   UNL     1       2.696  -2.097   1.109  0.00  0.00    +0.024 A 
ATOM     19  C   UNL     1       2.655  -0.715   1.108  0.00  0.00    +0.003 A 
ATOM     20  C   UNL     1       2.428  -0.028  -0.068  0.00  0.00    +0.013 A 
ATOM     21  C   UNL     1       2.227  -0.729  -1.258  0.00  0.00    +0.038 A 
ATOM     22  C   UNL     1       2.268  -2.124  -1.256  0.00  0.00    +0.036 A 
BRANCH  21  23
ATOM     23  C   UNL     1       1.977   0.004  -2.517  0.00  0.00    +0.244 C 
ATOM     24  O   UNL     1       1.807  -0.609  -3.554  0.00  0.00    -0.270 OA
ATOM     25  N   UNL     1       1.937   1.351  -2.517  0.00  0.00    -0.307 N 
ATOM     26  H   UNL     1       2.087   1.905  -1.578  0.00  0.00    +0.149 HD
BRANCH  25  27
ATOM     27  C   UNL     1       1.696   2.077  -3.766  0.00  0.00    +0.147 C 
BRANCH  27  28
ATOM     28  C   UNL     1       1.700   3.560  -3.494  0.00  0.00    +0.007 A 
ATOM     29  C   UNL     1       2.739   4.430  -3.522  0.00  0.00    +0.013 A 
ATOM     30  C   UNL     1       2.506   5.762  -3.235  0.00  0.00    +0.008 A 
ATOM     31  C   UNL     1       1.245   6.158  -2.934  0.00  0.00    +0.045 A 
ATOM     32  S   UNL     1       0.337   4.627  -3.058  0.00  0.00    -0.100 S 
ENDBRANCH  27  28
ENDBRANCH  25  27
ENDBRANCH  21  23
ENDBRANCH  15  17
BRANCH   9  33
ATOM     33  O   UNL     1       5.343  -4.839   3.672  0.00  0.00    -0.491 OA
ATOM     34  C   UNL     1       5.764  -4.827   5.037  0.00  0.00    +0.277 C 
ENDBRANCH   9  33
TORSDOF 5
