REMARK  Name = ZINC47274301
REMARK  10 active torsions:
REMARK  status: ('A' for Active; 'I' for Inactive)
REMARK    1  A    between atoms: C_1  and  C_2
REMARK    2  A    between atoms: C_3  and  C_28
REMARK    3  A    between atoms: N_4  and  C_23
REMARK    4  A    between atoms: C_5  and  N_9
REMARK    5  A    between atoms: C_6  and  C_7
REMARK    6  A    between atoms: C_10  and  C_12
REMARK    7  A    between atoms: C_12  and  N_13
REMARK    8  A    between atoms: N_13  and  C_14
REMARK    9  A    between atoms: N_13  and  C_18
REMARK   10  A    between atoms: C_14  and  C_15
REMARK                            x       y       z     vdW  Elec       q    Type
REMARK                         _______ _______ _______ _____ _____    ______ ____
ROOT
ATOM      1  N   UNL     1      -1.121  -3.722   1.044  0.00  0.00    -0.272 N 
ATOM      2  C   UNL     1      -0.326  -4.763   0.728  0.00  0.00    +0.202 C 
ATOM      3  O   UNL     1       0.236  -4.794  -0.346  0.00  0.00    -0.278 OA
ATOM      4  H   UNL     1      -1.493  -3.649   1.937  0.00  0.00    +0.156 HD
ENDROOT
BRANCH   1   9
ATOM      5  C   UNL     1      -1.970  -1.329  -3.326  0.00  0.00    +0.047 C 
ATOM      6  C   UNL     1      -1.795  -1.644  -1.862  0.00  0.00    -0.011 A 
ATOM      7  C   UNL     1      -1.918  -0.786  -0.837  0.00  0.00    +0.022 A 
ATOM      8  N   UNL     1      -1.685  -1.448   0.339  0.00  0.00    -0.329 N 
ATOM      9  C   UNL     1      -1.407  -2.755   0.092  0.00  0.00    +0.123 A 
ATOM     10  C   UNL     1      -1.464  -2.951  -1.281  0.00  0.00    +0.095 A 
ATOM     11  C   UNL     1      -2.257   0.677  -0.961  0.00  0.00    +0.064 C 
BRANCH   8  12
ATOM     12  C   UNL     1      -1.730  -0.837   1.669  0.00  0.00    +0.089 C 
ATOM     13  C   UNL     1      -0.425  -1.140   2.434  0.00  0.00    +0.025 C 
ATOM     14  C   UNL     1      -0.884  -1.352   3.898  0.00  0.00    +0.002 C 
ATOM     15  C   UNL     1      -2.226  -2.106   3.730  0.00  0.00    +0.002 C 
ATOM     16  C   UNL     1      -2.875  -1.451   2.493  0.00  0.00    +0.025 C 
ENDBRANCH   8  12
BRANCH  10  17
ATOM     17  C   UNL     1      -1.243  -4.177  -1.986  0.00  0.00    +0.103 C 
ATOM     18  N   UNL     1      -1.067  -5.150  -2.546  0.00  0.00    -0.191 NA
ENDBRANCH  10  17
ENDBRANCH   1   9
BRANCH   2  19
ATOM     19  C   UNL     1      -0.136  -5.891   1.710  0.00  0.00    +0.020 C 
BRANCH  19  20
ATOM     20  N   UNL     1       0.873  -6.825   1.193  0.00  0.00    +0.393 N 
ATOM     21  H   UNL     1       0.812  -6.864   0.187  0.00  0.00    -0.080 HD
BRANCH  20  22
ATOM     22  C   UNL     1       2.212  -6.366   1.585  0.00  0.00    -0.067 C 
ATOM     23  C   UNL     1       2.413  -4.882   1.189  0.00  0.00    -0.015 C 
ATOM     24  C   UNL     1       3.526  -4.416   2.162  0.00  0.00    -0.002 C 
ATOM     25  C   UNL     1       3.192  -5.131   3.487  0.00  0.00    -0.002 C 
ATOM     26  C   UNL     1       2.357  -6.371   3.120  0.00  0.00    -0.015 C 
ENDBRANCH  20  22
BRANCH  20  27
ATOM     27  C   UNL     1       0.632  -8.163   1.750  0.00  0.00    +0.019 C 
BRANCH  27  28
ATOM     28  C   UNL     1       1.549  -9.157   1.085  0.00  0.00    +0.194 C 
ATOM     29  O   UNL     1       2.315  -8.790   0.219  0.00  0.00    -0.278 OA
ATOM     30  N   UNL     1       1.517 -10.454   1.451  0.00  0.00    -0.331 N 
ATOM     31  H   UNL     1       0.904 -10.747   2.143  0.00  0.00    +0.145 HD
ATOM     32  H   UNL     1       2.107 -11.093   1.022  0.00  0.00    +0.145 HD
ENDBRANCH  27  28
ENDBRANCH  20  27
ENDBRANCH  19  20
ENDBRANCH   2  19
TORSDOF 8
