REMARK  Name = ZINC49161322
REMARK  8 active torsions:
REMARK  status: ('A' for Active; 'I' for Inactive)
REMARK    1  A    between atoms: C_1  and  C_2
REMARK    2  A    between atoms: C_2  and  C_3
REMARK    3  A    between atoms: C_2  and  C_4
REMARK    4  A    between atoms: C_4  and  C_5
REMARK    5  A    between atoms: C_5  and  N_6
REMARK    6  A    between atoms: N_9  and  N_10
REMARK    7  A    between atoms: C_11  and  C_13
REMARK    8  A    between atoms: C_13  and  C_18
REMARK                            x       y       z     vdW  Elec       q    Type
REMARK                         _______ _______ _______ _____ _____    ______ ____
ROOT
ATOM      1  N   UNL     1       0.667  -0.609   3.684  0.00  0.00    -0.298 N 
ATOM      2  C   UNL     1       0.159  -0.382   4.912  0.00  0.00    +0.316 C 
ATOM      3  O   UNL     1      -0.887   0.225   5.034  0.00  0.00    -0.251 OA
ATOM      4  N   UNL     1       0.811  -0.829   6.004  0.00  0.00    -0.218 N 
ATOM      5  H   UNL     1       1.502  -1.093   3.586  0.00  0.00    +0.150 HD
ATOM      6  H   UNL     1       0.446  -0.665   6.887  0.00  0.00    +0.174 HD
ENDROOT
BRANCH   4   7
ATOM      7  N   UNL     1       2.017  -1.528   5.862  0.00  0.00    -0.233 N 
ATOM      8  C   UNL     1       2.668  -1.975   6.954  0.00  0.00    +0.238 C 
ATOM      9  O   UNL     1       2.211  -1.771   8.059  0.00  0.00    -0.274 OA
ATOM     10  H   UNL     1       2.382  -1.692   4.979  0.00  0.00    +0.173 HD
BRANCH   8  11
ATOM     11  C   UNL     1       3.965  -2.728   6.803  0.00  0.00    +0.081 C 
ATOM     12  C   UNL     1       3.964  -4.215   7.160  0.00  0.00    +0.058 C 
ATOM     13  C   UNL     1       4.657  -3.208   8.080  0.00  0.00    +0.133 C 
ATOM     14 CL   UNL     1       6.459  -3.204   8.103  0.00  0.00    -0.100 Cl
ATOM     15 CL   UNL     1       3.858  -2.831   9.652  0.00  0.00    -0.100 Cl
ATOM     16  C   UNL     1       4.856  -2.280   5.642  0.00  0.00    +0.024 C 
ENDBRANCH   8  11
ENDBRANCH   4   7
BRANCH   1  17
ATOM     17  C   UNL     1      -0.042  -0.124   2.497  0.00  0.00    +0.106 C 
BRANCH  17  18
ATOM     18  C   UNL     1       0.742  -0.511   1.242  0.00  0.00    +0.022 C 
BRANCH  18  20
ATOM     19  C   UNL     1      -0.019   1.526   0.010  0.00  0.00    +0.007 C 
ATOM     20  C   UNL     1       0.002  -0.004   0.002  0.00  0.00    -0.016 C 
ATOM     21  C   UNL     1       0.718  -0.497  -1.257  0.00  0.00    +0.007 C 
ENDBRANCH  18  20
ENDBRANCH  17  18
ENDBRANCH   1  17
TORSDOF 5
