REMARK  Name = ZINC35806195
REMARK  7 active torsions:
REMARK  status: ('A' for Active; 'I' for Inactive)
REMARK    1  A    between atoms: C_1  and  C_2
REMARK    2  A    between atoms: C_2  and  C_3
REMARK    3  A    between atoms: C_12  and  C_13
REMARK    4  A    between atoms: C_13  and  C_15
REMARK    5  A    between atoms: C_13  and  C_22
REMARK    6  A    between atoms: C_15  and  C_16
REMARK    7  A    between atoms: C_22  and  C_23
REMARK                            x       y       z     vdW  Elec       q    Type
REMARK                         _______ _______ _______ _____ _____    ______ ____
ROOT
ATOM      1  C   UNL     1       5.355  -1.431  -3.022  0.00  0.00    +0.034 C 
ENDROOT
BRANCH   1  11
ATOM      2  C   UNL     1       0.487  -0.604  -2.141  0.00  0.00    -0.024 A 
ATOM      3  C   UNL     1       0.007  -0.939  -3.389  0.00  0.00    +0.005 A 
ATOM      4  C   UNL     1       0.873  -1.351  -4.393  0.00  0.00    +0.001 A 
ATOM      5  C   UNL     1       2.217  -1.431  -4.161  0.00  0.00    +0.010 A 
ATOM      6  C   UNL     1       2.725  -1.096  -2.904  0.00  0.00    +0.003 A 
ATOM      7  C   UNL     1       1.852  -0.673  -1.885  0.00  0.00    +0.050 A 
ATOM      8  N   UNL     1       2.623  -0.408  -0.775  0.00  0.00    -0.360 N 
ATOM      9  H   UNL     1       2.282  -0.101   0.080  0.00  0.00    +0.165 HD
ATOM     10  C   UNL     1       3.941  -0.642  -1.057  0.00  0.00    +0.087 A 
ATOM     11  C   UNL     1       4.069  -1.067  -2.324  0.00  0.00    -0.019 A 
BRANCH   2  13
ATOM     12  C   UNL     1      -0.539   1.370  -1.046  0.00  0.00    +0.009 C 
ATOM     13  C   UNL     1      -0.464  -0.158  -1.060  0.00  0.00    +0.034 C 
ENDBRANCH   2  13
ENDBRANCH   1  11
BRANCH   1  14
ATOM     14  C   UNL     1       6.293  -0.222  -3.026  0.00  0.00    +0.043 C 
BRANCH  14  15
ATOM     15  C   UNL     1       5.681   0.885  -3.845  0.00  0.00    -0.047 A 
ATOM     16  C   UNL     1       5.848   0.903  -5.217  0.00  0.00    +0.003 A 
ATOM     17  C   UNL     1       5.288   1.919  -5.969  0.00  0.00    +0.000 A 
ATOM     18  C   UNL     1       4.559   2.917  -5.348  0.00  0.00    +0.000 A 
ATOM     19  C   UNL     1       4.392   2.898  -3.976  0.00  0.00    +0.000 A 
ATOM     20  C   UNL     1       4.949   1.880  -3.225  0.00  0.00    +0.003 A 
ENDBRANCH  14  15
ENDBRANCH   1  14
BRANCH   1  21
ATOM     21  C   UNL     1       6.024  -2.593  -2.285  0.00  0.00    +0.104 C 
BRANCH  21  22
ATOM     22  C   UNL     1       7.221  -3.063  -3.070  0.00  0.00    +0.216 C 
ATOM     23  O   UNL     1       7.446  -2.599  -4.168  0.00  0.00    -0.276 OA
ATOM     24  N   UNL     1       8.041  -3.999  -2.553  0.00  0.00    -0.301 N 
ATOM     25  C   UNL     1       7.778  -4.574  -1.227  0.00  0.00    +0.108 C 
ATOM     26  C   UNL     1       7.744  -6.101  -1.349  0.00  0.00    +0.019 C 
ATOM     27  C   UNL     1       9.042  -6.586  -1.999  0.00  0.00    +0.003 C 
ATOM     28  C   UNL     1       9.165  -5.991  -3.404  0.00  0.00    +0.019 C 
ATOM     29  C   UNL     1       9.212  -4.467  -3.306  0.00  0.00    +0.108 C 
ENDBRANCH  21  22
ENDBRANCH   1  21
TORSDOF 6
