REMARK  Name = ZINC36594804
REMARK  13 active torsions:
REMARK  status: ('A' for Active; 'I' for Inactive)
REMARK    1  A    between atoms: C_1  and  O_2
REMARK    2  A    between atoms: O_2  and  C_3
REMARK    3  A    between atoms: C_5  and  C_11
REMARK    4  A    between atoms: C_7  and  O_9
REMARK    5  A    between atoms: O_9  and  C_10
REMARK    6  A    between atoms: N_24  and  C_25
REMARK    7  A    between atoms: C_25  and  C_27
REMARK    8  A    between atoms: C_25  and  C_31
REMARK    9  A    between atoms: C_27  and  C_28
REMARK   10  A    between atoms: C_28  and  S_29
REMARK   11  A    between atoms: S_29  and  C_30
REMARK   12  A    between atoms: C_31  and  O_33
REMARK   13  A    between atoms: O_33  and  C_34
REMARK                            x       y       z     vdW  Elec       q    Type
REMARK                         _______ _______ _______ _____ _____    ______ ____
ROOT
ATOM      1  C   UNL     1       1.379  -4.149   2.208  0.00  0.00    +0.156 C 
ATOM      2  C   UNL     1       0.429  -4.670   3.260  0.00  0.00    +0.062 A 
ATOM      3  C   UNL     1       0.829  -5.188   4.441  0.00  0.00    +0.040 A 
ATOM      4  N   UNL     1      -0.297  -5.543   5.121  0.00  0.00    -0.349 N 
ATOM      5  H   UNL     1      -0.336  -5.942   6.004  0.00  0.00    +0.166 HD
ATOM      6  C   UNL     1      -1.351  -5.234   4.331  0.00  0.00    +0.171 A 
ATOM      7  N   UNL     1      -0.905  -4.712   3.218  0.00  0.00    -0.348 N 
ATOM      8  C   UNL     1       2.264  -5.330   4.877  0.00  0.00    +0.074 C 
ATOM      9  C   UNL     1       3.137  -4.418   4.006  0.00  0.00    +0.116 C 
ATOM     10  N   UNL     1       2.737  -4.567   2.598  0.00  0.00    -0.273 N 
ATOM     11  C   UNL     1       3.591  -5.076   1.687  0.00  0.00    +0.304 C 
ATOM     12  O   UNL     1       4.671  -5.507   2.040  0.00  0.00    -0.253 OA
ATOM     13  N   UNL     1       3.246  -5.107   0.384  0.00  0.00    -0.286 N 
ATOM     14  H   UNL     1       2.417  -4.696   0.092  0.00  0.00    +0.151 HD
ATOM     15  H   UNL     1      -1.455  -4.404   2.481  0.00  0.00    +0.167 HD
ENDROOT
BRANCH   1  18
ATOM     16  C   UNL     1       0.993  -0.629   0.886  0.00  0.00    +0.124 A 
ATOM     17  C   UNL     1       1.064  -2.013   0.943  0.00  0.00    +0.051 A 
ATOM     18  C   UNL     1       1.303  -2.645   2.149  0.00  0.00    -0.014 A 
ATOM     19  C   UNL     1       1.472  -1.900   3.300  0.00  0.00    +0.051 A 
ATOM     20  C   UNL     1       1.403  -0.515   3.248  0.00  0.00    +0.124 A 
ATOM     21  C   UNL     1       1.169   0.122   2.039  0.00  0.00    +0.091 A 
BRANCH  16  23
ATOM     22  C   UNL     1       0.703   1.420  -0.285  0.00  0.00    +0.277 C 
ATOM     23  O   UNL     1       0.757  -0.008  -0.300  0.00  0.00    -0.495 OA
ENDBRANCH  16  23
BRANCH  20  24
ATOM     24  O   UNL     1       1.570   0.218   4.381  0.00  0.00    -0.495 OA
ATOM     25  C   UNL     1       1.485   1.639   4.253  0.00  0.00    +0.277 C 
ENDBRANCH  20  24
ENDBRANCH   1  18
BRANCH  13  26
ATOM     26  C   UNL     1       4.122  -5.762  -0.590  0.00  0.00    +0.184 C 
BRANCH  26  27
ATOM     27  C   UNL     1       3.821  -7.239  -0.624  0.00  0.00    +0.327 C 
ATOM     28  O   UNL     1       2.962  -7.697   0.092  0.00  0.00    -0.249 OA
BRANCH  27  29
ATOM     29  O   UNL     1       4.506  -8.045  -1.450  0.00  0.00    -0.467 OA
ATOM     30  C   UNL     1       4.169  -9.433  -1.430  0.00  0.00    +0.280 C 
ENDBRANCH  27  29
ENDBRANCH  26  27
BRANCH  26  31
ATOM     31  C   UNL     1       3.882  -5.161  -1.977  0.00  0.00    +0.044 C 
BRANCH  31  32
ATOM     32  C   UNL     1       4.306  -3.691  -1.975  0.00  0.00    +0.071 C 
BRANCH  32  33
ATOM     33  S   UNL     1       4.022  -2.978  -3.619  0.00  0.00    -0.164 S 
ATOM     34  C   UNL     1       4.568  -1.257  -3.451  0.00  0.00    +0.084 C 
ENDBRANCH  32  33
ENDBRANCH  31  32
ENDBRANCH  26  31
ENDBRANCH  13  26
TORSDOF 9
