REMARK  Name = ZINC14478003
REMARK  7 active torsions:
REMARK  status: ('A' for Active; 'I' for Inactive)
REMARK    1  A    between atoms: C_1  and  C_2
REMARK    2  A    between atoms: C_2  and  C_3
REMARK    3  A    between atoms: C_3  and  O_4
REMARK    4  A    between atoms: O_4  and  C_5
REMARK    5  A    between atoms: C_5  and  C_7
REMARK    6  A    between atoms: C_20  and  C_23
REMARK    7  A    between atoms: C_28  and  N_29
REMARK                            x       y       z     vdW  Elec       q    Type
REMARK                         _______ _______ _______ _____ _____    ______ ____
ROOT
ATOM      1  C   UNL     1      -0.031   0.055   0.052  0.00  0.00    +0.059 A 
ATOM      2  C   UNL     1      -0.023   1.454   0.033  0.00  0.00    +0.017 A 
ATOM      3  C   UNL     1       1.161   2.131   0.005  0.00  0.00    +0.024 A 
ATOM      4  C   UNL     1       2.373   1.445  -0.004  0.00  0.00    +0.031 A 
ATOM      5  C   UNL     1       2.370   0.042   0.030  0.00  0.00    -0.019 A 
ATOM      6  C   UNL     1       1.181  -0.644   0.051  0.00  0.00    +0.021 A 
ATOM      7  C   UNL     1       3.681  -0.643   0.061  0.00  0.00    +0.049 C 
ATOM      8  C   UNL     1       3.886  -2.035  -0.440  0.00  0.00    -0.023 C 
ATOM      9  C   UNL     1       5.112  -2.143  -0.939  0.00  0.00    -0.030 C 
ATOM     10  C   UNL     1       5.844  -0.805  -0.823  0.00  0.00    +0.033 C 
ATOM     11  C   UNL     1       4.673   0.187  -0.808  0.00  0.00    +0.029 C 
ATOM     12  C   UNL     1       4.877   1.490  -0.057  0.00  0.00    +0.107 C 
ATOM     13  N   UNL     1       3.563   2.168  -0.067  0.00  0.00    -0.336 N 
ATOM     14  H   UNL     1       3.528   3.136  -0.120  0.00  0.00    +0.147 HD
ENDROOT
BRANCH  12  15
ATOM     15  C   UNL     1       5.307   1.212   1.361  0.00  0.00    +0.003 A 
ATOM     16  C   UNL     1       4.365   1.155   2.371  0.00  0.00    +0.008 A 
ATOM     17  C   UNL     1       4.760   0.899   3.671  0.00  0.00    +0.000 A 
ATOM     18  C   UNL     1       6.096   0.700   3.960  0.00  0.00    +0.002 A 
ATOM     19  C   UNL     1       7.039   0.756   2.951  0.00  0.00    +0.033 A 
ATOM     20  C   UNL     1       6.643   1.007   1.650  0.00  0.00    +0.131 A 
BRANCH  20  21
ATOM     21  N   UNL     1       7.651   1.061   0.567  0.00  0.00    +0.057 N 
ATOM     22  O   UNL     1       8.813   0.780   0.802  0.00  0.00    -0.126 OA
ATOM     23  O   UNL     1       7.319   1.386  -0.559  0.00  0.00    -0.126 OA
ENDBRANCH  20  21
ENDBRANCH  12  15
BRANCH   1  24
ATOM     24  C   UNL     1      -1.309  -0.678   0.074  0.00  0.00    +0.339 C 
ATOM     25  O   UNL     1      -1.312  -1.893   0.091  0.00  0.00    -0.245 OA
BRANCH  24  26
ATOM     26  O   UNL     1      -2.474  -0.001   0.075  0.00  0.00    -0.461 OA
BRANCH  26  27
ATOM     27  C   UNL     1      -3.694  -0.788   0.097  0.00  0.00    +0.232 C 
BRANCH  27  29
ATOM     28  C   UNL     1      -6.190  -0.683   0.118  0.00  0.00    +0.007 C 
ATOM     29  C   UNL     1      -4.905   0.147   0.095  0.00  0.00    +0.038 C 
ENDBRANCH  27  29
ENDBRANCH  26  27
ENDBRANCH  24  26
ENDBRANCH   1  24
TORSDOF 6
