REMARK  Name = ZINC16740078
REMARK  6 active torsions:
REMARK  status: ('A' for Active; 'I' for Inactive)
REMARK    1  A    between atoms: C_1  and  C_2
REMARK    2  A    between atoms: C_6  and  N_9
REMARK    3  A    between atoms: C_7  and  C_8
REMARK    4  A    between atoms: N_12  and  C_13
REMARK    5  A    between atoms: N_17  and  C_32
REMARK    6  A    between atoms: C_24  and  C_26
REMARK                            x       y       z     vdW  Elec       q    Type
REMARK                         _______ _______ _______ _____ _____    ______ ____
ROOT
ATOM      1  C   UNL     1      -3.558   1.963   0.152  0.00  0.00    +0.280 C 
ATOM      2  C   UNL     1      -4.574   1.356  -0.776  0.00  0.00    +0.262 C 
ATOM      3  O   UNL     1      -5.020   2.026  -1.683  0.00  0.00    -0.271 OA
ATOM      4  N   UNL     1      -4.998   0.101  -0.621  0.00  0.00    -0.271 N 
ATOM      5  C   UNL     1      -4.534  -0.786   0.337  0.00  0.00    +0.045 A 
ATOM      6  C   UNL     1      -4.341  -2.112  -0.056  0.00  0.00    +0.024 A 
ATOM      7  C   UNL     1      -3.887  -3.052   0.842  0.00  0.00    +0.002 A 
ATOM      8  C   UNL     1      -3.615  -2.689   2.151  0.00  0.00    +0.001 A 
ATOM      9  C   UNL     1      -3.798  -1.387   2.556  0.00  0.00    +0.012 A 
ATOM     10  C   UNL     1      -4.259  -0.417   1.653  0.00  0.00    +0.022 A 
ATOM     11  C   UNL     1      -4.429   0.956   2.153  0.00  0.00    +0.077 C 
ATOM     12  N   UNL     1      -4.119   2.020   1.501  0.00  0.00    -0.251 NA
ATOM     13  C   UNL     1      -6.036  -0.378  -1.538  0.00  0.00    +0.138 C 
ENDROOT
BRANCH   1  17
ATOM     14  N   UNL     1      -0.019   0.966   0.088  0.00  0.00    -0.269 N 
ATOM     15  C   UNL     1      -1.134   1.724   0.081  0.00  0.00    +0.306 C 
ATOM     16  O   UNL     1      -1.046   2.934   0.005  0.00  0.00    -0.252 OA
ATOM     17  N   UNL     1      -2.346   1.140   0.159  0.00  0.00    -0.270 N 
ATOM     18  H   UNL     1      -0.090  -0.002   0.083  0.00  0.00    +0.156 HD
ATOM     19  H   UNL     1      -2.416   0.174   0.220  0.00  0.00    +0.153 HD
BRANCH  14  25
ATOM     20  C   UNL     1       4.681   0.949   1.529  0.00  0.00    +0.044 C 
ATOM     21  C   UNL     1       3.537   1.588   0.786  0.00  0.00    -0.046 A 
ATOM     22  C   UNL     1       3.732   2.779   0.109  0.00  0.00    +0.004 A 
ATOM     23  C   UNL     1       2.685   3.369  -0.574  0.00  0.00    +0.002 A 
ATOM     24  C   UNL     1       1.441   2.767  -0.587  0.00  0.00    +0.023 A 
ATOM     25  C   UNL     1       1.241   1.575   0.095  0.00  0.00    +0.038 A 
ATOM     26  C   UNL     1       2.295   0.985   0.781  0.00  0.00    -0.026 A 
ATOM     27  C   UNL     1       2.083  -0.312   1.518  0.00  0.00    +0.046 C 
ENDBRANCH  14  25
ENDBRANCH   1  17
BRANCH  11  28
ATOM     28  C   UNL     1      -4.998   1.125   3.510  0.00  0.00    +0.001 A 
ATOM     29  C   UNL     1      -5.817   0.135   4.054  0.00  0.00    +0.010 A 
ATOM     30  C   UNL     1      -6.341   0.296   5.320  0.00  0.00    +0.001 A 
ATOM     31  C   UNL     1      -6.064   1.441   6.046  0.00  0.00    +0.000 A 
ATOM     32  C   UNL     1      -5.257   2.428   5.510  0.00  0.00    +0.001 A 
ATOM     33  C   UNL     1      -4.723   2.276   4.247  0.00  0.00    +0.010 A 
ENDBRANCH  11  28
TORSDOF 3
