REMARK  Name = ZINC40019721
REMARK  16 active torsions:
REMARK  status: ('A' for Active; 'I' for Inactive)
REMARK    1  A    between atoms: C_1  and  C_2
REMARK    2  A    between atoms: C_2  and  C_3
REMARK    3  A    between atoms: C_3  and  C_4
REMARK    4  A    between atoms: C_4  and  N_5
REMARK    5  A    between atoms: N_5  and  C_6
REMARK    6  A    between atoms: N_5  and  C_10
REMARK    7  A    between atoms: C_6  and  C_7
REMARK    8  A    between atoms: C_7  and  C_8
REMARK    9  A    between atoms: C_8  and  C_9
REMARK   10  A    between atoms: C_10  and  C_11
REMARK   11  A    between atoms: C_11  and  C_12
REMARK   12  A    between atoms: C_12  and  N_13
REMARK   13  A    between atoms: C_14  and  C_32
REMARK   14  A    between atoms: C_16  and  C_21
REMARK   15  A    between atoms: C_21  and  C_23
REMARK   16  A    between atoms: C_37  and  N_38
REMARK                            x       y       z     vdW  Elec       q    Type
REMARK                         _______ _______ _______ _____ _____    ______ ____
ROOT
ATOM      1  N   UNL     1      -1.317  -5.037   3.472  0.00  0.00    -0.284 N 
ATOM      2  C   UNL     1      -0.063  -5.646   3.931  0.00  0.00    +0.147 C 
ATOM      3  C   UNL     1      -0.300  -6.071   5.361  0.00  0.00    +0.080 C 
ATOM      4  C   UNL     1      -1.573  -5.727   5.665  0.00  0.00    +0.249 C 
ATOM      5  C   UNL     1      -2.195  -5.082   4.491  0.00  0.00    +0.288 C 
ATOM      6  O   UNL     1      -3.333  -4.657   4.450  0.00  0.00    -0.266 OA
ATOM      7  O   UNL     1      -2.178  -5.936   6.857  0.00  0.00    -0.282 OA
ENDROOT
BRANCH   2   8
ATOM      8  C   UNL     1       0.273  -6.845   3.081  0.00  0.00    +0.008 A 
ATOM      9  C   UNL     1      -0.732  -7.524   2.417  0.00  0.00    +0.008 A 
ATOM     10  C   UNL     1      -0.424  -8.623   1.638  0.00  0.00    +0.000 A 
ATOM     11  C   UNL     1       0.888  -9.044   1.522  0.00  0.00    +0.002 A 
ATOM     12  C   UNL     1       1.892  -8.364   2.186  0.00  0.00    +0.033 A 
ATOM     13  C   UNL     1       1.585  -7.262   2.962  0.00  0.00    +0.131 A 
BRANCH  13  14
ATOM     14  N   UNL     1       2.661  -6.531   3.668  0.00  0.00    +0.057 N 
ATOM     15  O   UNL     1       3.818  -6.825   3.477  0.00  0.00    -0.126 OA
ATOM     16  O   UNL     1       2.383  -5.639   4.436  0.00  0.00    -0.126 OA
ENDBRANCH  13  14
ENDBRANCH   2   8
BRANCH   3  17
ATOM     17  C   UNL     1       0.664  -6.730   6.249  0.00  0.00    +0.230 C 
ATOM     18  O   UNL     1       0.926  -7.910   6.096  0.00  0.00    -0.283 OA
BRANCH  17  19
ATOM     19  C   UNL     1       1.314  -5.967   7.323  0.00  0.00    +0.176 A 
ATOM     20  C   UNL     1       2.292  -6.443   8.142  0.00  0.00    +0.061 A 
ATOM     21  C   UNL     1       2.631  -5.346   9.046  0.00  0.00    +0.021 A 
ATOM     22  C   UNL     1       3.540  -5.197  10.098  0.00  0.00    +0.011 A 
ATOM     23  C   UNL     1       3.615  -4.006  10.764  0.00  0.00    +0.001 A 
ATOM     24  C   UNL     1       2.795  -2.946  10.403  0.00  0.00    +0.004 A 
ATOM     25  C   UNL     1       1.892  -3.073   9.369  0.00  0.00    +0.047 A 
ATOM     26  C   UNL     1       1.798  -4.274   8.676  0.00  0.00    +0.136 A 
ATOM     27  O   UNL     1       1.035  -4.686   7.644  0.00  0.00    -0.452 OA
ENDBRANCH  17  19
ENDBRANCH   3  17
BRANCH   1  28
ATOM     28  C   UNL     1      -1.567  -4.475   2.143  0.00  0.00    +0.107 C 
BRANCH  28  29
ATOM     29  C   UNL     1      -1.190  -2.992   2.137  0.00  0.00    +0.000 C 
BRANCH  29  30
ATOM     30  C   UNL     1      -1.451  -2.405   0.749  0.00  0.00    -0.077 C 
BRANCH  30  31
ATOM     31  N   UNL     1      -1.089  -0.981   0.743  0.00  0.00    +0.380 N 
ATOM     32  H   UNL     1      -1.585  -0.505   1.481  0.00  0.00    -0.082 HD
BRANCH  31  33
ATOM     33  C   UNL     1       0.358  -0.843   0.958  0.00  0.00    -0.079 C 
BRANCH  33  34
ATOM     34  C   UNL     1       0.717   0.640   1.077  0.00  0.00    -0.019 C 
BRANCH  34  36
ATOM     35  C   UNL     1       2.557   2.262   1.550  0.00  0.00    +0.004 C 
ATOM     36  C   UNL     1       2.198   0.779   1.432  0.00  0.00    -0.005 C 
ENDBRANCH  34  36
ENDBRANCH  33  34
ENDBRANCH  31  33
BRANCH  31  37
ATOM     37  C   UNL     1      -1.450  -0.389  -0.551  0.00  0.00    -0.079 C 
BRANCH  37  38
ATOM     38  C   UNL     1      -2.971  -0.418  -0.719  0.00  0.00    -0.019 C 
BRANCH  38  39
ATOM     39  C   UNL     1      -3.356   0.318  -2.004  0.00  0.00    -0.005 C 
ATOM     40  C   UNL     1      -4.877   0.288  -2.171  0.00  0.00    +0.004 C 
ENDBRANCH  38  39
ENDBRANCH  37  38
ENDBRANCH  31  37
ENDBRANCH  30  31
ENDBRANCH  29  30
ENDBRANCH  28  29
ENDBRANCH   1  28
TORSDOF 14
