REMARK  Name = ZINC39584757
REMARK  7 active torsions:
REMARK  status: ('A' for Active; 'I' for Inactive)
REMARK    1  A    between atoms: C_4  and  N_7
REMARK    2  A    between atoms: C_8  and  C_29
REMARK    3  A    between atoms: C_12  and  S_13
REMARK    4  A    between atoms: S_13  and  C_14
REMARK    5  A    between atoms: C_14  and  C_15
REMARK    6  A    between atoms: N_17  and  N_18
REMARK    7  A    between atoms: C_19  and  C_20
REMARK                            x       y       z     vdW  Elec       q    Type
REMARK                         _______ _______ _______ _____ _____    ______ ____
ROOT
ATOM      1  N   UNL     1       3.672  -0.642  -0.013  0.00  0.00    -0.254 N 
ATOM      2  C   UNL     1       3.817  -2.106   0.050  0.00  0.00    +0.213 C 
ATOM      3  N   UNL     1       5.272  -2.322  -0.038  0.00  0.00    -0.242 N 
ATOM      4  N   UNL     1       5.849  -1.050  -0.140  0.00  0.00    -0.162 NA
ATOM      5  C   UNL     1       4.953  -0.122  -0.131  0.00  0.00    +0.180 C 
ATOM      6  H   UNL     1       5.736  -3.173  -0.026  0.00  0.00    +0.170 HD
ENDROOT
BRANCH   2   7
ATOM      7  C   UNL     1       3.279  -2.635   1.354  0.00  0.00    -0.008 A 
ATOM      8  C   UNL     1       2.145  -2.075   1.912  0.00  0.00    +0.008 A 
ATOM      9  C   UNL     1       1.650  -2.560   3.108  0.00  0.00    +0.020 A 
ATOM     10  C   UNL     1       2.291  -3.607   3.747  0.00  0.00    +0.041 A 
ATOM     11  C   UNL     1       3.426  -4.167   3.189  0.00  0.00    +0.020 A 
ATOM     12  C   UNL     1       3.916  -3.685   1.990  0.00  0.00    +0.008 A 
ATOM     13 CL   UNL     1       1.671  -4.216   5.250  0.00  0.00    -0.084 Cl
ENDBRANCH   2   7
BRANCH   1  17
ATOM     14  C   UNL     1       0.112   1.515   0.118  0.00  0.00    +0.000 A 
ATOM     15  C   UNL     1       1.082   1.726   1.081  0.00  0.00    +0.002 A 
ATOM     16  C   UNL     1       2.264   1.012   1.040  0.00  0.00    +0.023 A 
ATOM     17  C   UNL     1       2.477   0.082   0.031  0.00  0.00    +0.038 A 
ATOM     18  C   UNL     1       1.500  -0.128  -0.934  0.00  0.00    +0.023 A 
ATOM     19  C   UNL     1       0.321   0.590  -0.888  0.00  0.00    +0.002 A 
ENDBRANCH   1  17
BRANCH   5  20
ATOM     20  S   UNL     1       5.313   1.599  -0.249  0.00  0.00    -0.079 S 
BRANCH  20  21
ATOM     21  C   UNL     1       7.121   1.661  -0.379  0.00  0.00    +0.174 C 
BRANCH  21  22
ATOM     22  C   UNL     1       7.567   3.096  -0.488  0.00  0.00    +0.242 C 
ATOM     23  O   UNL     1       6.747   3.989  -0.479  0.00  0.00    -0.273 OA
ATOM     24  N   UNL     1       8.879   3.388  -0.596  0.00  0.00    -0.206 N 
ATOM     25  H   UNL     1       9.535   2.674  -0.604  0.00  0.00    +0.177 HD
BRANCH  24  26
ATOM     26  N   UNL     1       9.294   4.722  -0.697  0.00  0.00    -0.188 NA
ATOM     27  C   UNL     1      10.568   5.005  -0.802  0.00  0.00    +0.136 C 
BRANCH  27  28
ATOM     28  C   UNL     1      10.984   6.340  -0.903  0.00  0.00    +0.000 C 
ATOM     29  C   UNL     1      12.290   6.809  -1.026  0.00  0.00    +0.004 A 
ATOM     30  C   UNL     1      13.538   6.151  -1.085  0.00  0.00    +0.010 A 
ATOM     31  C   UNL     1      14.677   6.878  -1.208  0.00  0.00    +0.001 A 
ATOM     32  C   UNL     1      14.651   8.274  -1.279  0.00  0.00    +0.002 A 
ATOM     33  C   UNL     1      13.490   8.972  -1.229  0.00  0.00    +0.026 A 
ATOM     34  C   UNL     1      12.256   8.280  -1.101  0.00  0.00    +0.043 A 
ATOM     35  N   UNL     1      11.016   8.717  -1.030  0.00  0.00    -0.380 N 
ATOM     36  C   UNL     1      10.107   7.573  -0.909  0.00  0.00    +0.150 C 
ATOM     37  H   UNL     1      10.747   9.648  -1.059  0.00  0.00    +0.160 HD
ENDBRANCH  27  28
ENDBRANCH  24  26
ENDBRANCH  21  22
ENDBRANCH  20  21
ENDBRANCH   5  20
TORSDOF 7
