REMARK  Name = ZINC19821391
REMARK  5 active torsions:
REMARK  status: ('A' for Active; 'I' for Inactive)
REMARK    1  A    between atoms: C_4  and  C_7
REMARK    2  A    between atoms: C_7  and  C_8
REMARK    3  A    between atoms: C_26  and  C_28
REMARK    4  A    between atoms: N_30  and  C_31
REMARK    5  A    between atoms: C_31  and  C_32
REMARK                            x       y       z     vdW  Elec       q    Type
REMARK                         _______ _______ _______ _____ _____    ______ ____
ROOT
ATOM      1  C   UNL     1       8.601   6.218  -1.828  0.00  0.00    -0.004 C 
ATOM      2  C   UNL     1       9.001   4.884  -1.191  0.00  0.00    +0.023 C 
ATOM      3  C   UNL     1       7.802   3.933  -1.215  0.00  0.00    +0.108 C 
ATOM      4  N   UNL     1       6.684   4.534  -0.475  0.00  0.00    -0.301 N 
ATOM      5  C   UNL     1       6.252   5.792  -1.097  0.00  0.00    +0.108 C 
ATOM      6  C   UNL     1       7.405   6.798  -1.069  0.00  0.00    +0.023 C 
ATOM      7  C   UNL     1       5.639   3.655  -0.367  0.00  0.00    +0.200 A 
ATOM      8  N   UNL     1       4.475   4.074   0.199  0.00  0.00    -0.295 N 
ATOM      9  H   UNL     1       4.377   5.111   0.553  0.00  0.00    +0.172 HD
ATOM     10  C   UNL     1       3.438   3.218   0.325  0.00  0.00    +0.258 A 
ATOM     11  O   UNL     1       2.391   3.579   0.839  0.00  0.00    -0.267 OA
ATOM     12  C   UNL     1       3.588   1.910  -0.144  0.00  0.00    +0.069 A 
ATOM     13  C   UNL     1       4.786   1.537  -0.728  0.00  0.00    +0.138 A 
ATOM     14  N   UNL     1       5.784   2.425  -0.812  0.00  0.00    -0.200 NA
ATOM     15  N   UNL     1       4.950   0.257  -1.227  0.00  0.00    -0.270 N 
ATOM     16  C   UNL     1       3.893  -0.553  -1.410  0.00  0.00    +0.219 C 
ATOM     17  O   UNL     1       4.071  -1.705  -1.746  0.00  0.00    -0.275 OA
ATOM     18  C   UNL     1       2.491  -0.045  -1.203  0.00  0.00    +0.114 C 
ATOM     19  C   UNL     1       2.462   0.920  -0.017  0.00  0.00    +0.122 C 
ATOM     20  H   UNL     1       5.956  -0.110  -1.479  0.00  0.00    +0.156 HD
ENDROOT
BRANCH  19  21
ATOM     21  C   UNL     1       1.147   1.655   0.000  0.00  0.00    +0.221 C 
ATOM     22  O   UNL     1       0.778   2.261  -0.984  0.00  0.00    -0.275 OA
ATOM     23  N   UNL     1       0.380   1.640   1.108  0.00  0.00    -0.311 N 
ATOM     24  H   UNL     1       0.716   1.095   2.002  0.00  0.00    +0.149 HD
BRANCH  23  25
ATOM     25  C   UNL     1      -0.901   2.350   1.122  0.00  0.00    +0.139 C 
BRANCH  25  26
ATOM     26  C   UNL     1      -1.560   2.172   2.466  0.00  0.00    -0.030 A 
ATOM     27  C   UNL     1      -2.416   1.109   2.680  0.00  0.00    +0.005 A 
ATOM     28  C   UNL     1      -3.017   0.943   3.914  0.00  0.00    +0.000 A 
ATOM     29  C   UNL     1      -2.768   1.845   4.931  0.00  0.00    +0.000 A 
ATOM     30  C   UNL     1      -1.915   2.912   4.715  0.00  0.00    +0.000 A 
ATOM     31  C   UNL     1      -1.311   3.075   3.483  0.00  0.00    +0.005 A 
ENDBRANCH  25  26
ENDBRANCH  23  25
ENDBRANCH  19  21
BRANCH   1  32
ATOM     32  C   UNL     1       9.777   7.193  -1.754  0.00  0.00    +0.038 C 
BRANCH  32  36
ATOM     33  C   UNL     1       8.782  10.787  -3.836  0.00  0.00    +0.000 A 
ATOM     34  C   UNL     1       8.496  10.667  -2.489  0.00  0.00    +0.000 A 
ATOM     35  C   UNL     1       8.819   9.504  -1.815  0.00  0.00    +0.003 A 
ATOM     36  C   UNL     1       9.426   8.461  -2.489  0.00  0.00    -0.047 A 
ATOM     37  C   UNL     1       9.716   8.583  -3.835  0.00  0.00    +0.003 A 
ATOM     38  C   UNL     1       9.390   9.744  -4.510  0.00  0.00    +0.000 A 
ENDBRANCH  32  36
ENDBRANCH   1  32
TORSDOF 5
