REMARK  Name = ZINC39637412
REMARK  7 active torsions:
REMARK  status: ('A' for Active; 'I' for Inactive)
REMARK    1  A    between atoms: C_1  and  C_2
REMARK    2  A    between atoms: C_7  and  N_12
REMARK    3  A    between atoms: C_9  and  C_11
REMARK    4  A    between atoms: C_13  and  C_15
REMARK    5  A    between atoms: C_26  and  C_28
REMARK    6  A    between atoms: C_33  and  O_34
REMARK    7  A    between atoms: O_34  and  C_35
REMARK                            x       y       z     vdW  Elec       q    Type
REMARK                         _______ _______ _______ _____ _____    ______ ____
ROOT
ATOM      1  C   UNL     1       1.873  -4.090   4.663  0.00  0.00    +0.100 C 
ATOM      2  C   UNL     1       3.307  -4.330   4.139  0.00  0.00    +0.121 C 
ATOM      3  N   UNL     1       3.719  -5.615   4.753  0.00  0.00    -0.296 N 
ATOM      4  C   UNL     1       2.500  -6.457   4.700  0.00  0.00    +0.115 C 
ATOM      5  C   UNL     1       1.347  -5.487   5.029  0.00  0.00    -0.004 C 
ATOM      6  C   UNL     1       0.118  -5.826   4.190  0.00  0.00    -0.010 C 
ATOM      7  C   UNL     1      -0.421  -7.195   4.613  0.00  0.00    -0.082 C 
ATOM      8  N   UNL     1      -0.770  -7.167   6.038  0.00  0.00    +0.379 N 
ATOM      9  C   UNL     1       0.434  -6.933   6.844  0.00  0.00    -0.082 C 
ATOM     10  C   UNL     1       1.010  -5.553   6.516  0.00  0.00    -0.010 C 
ATOM     11  C   UNL     1       4.929  -5.943   5.248  0.00  0.00    +0.252 C 
ATOM     12  O   UNL     1       5.140  -7.076   5.637  0.00  0.00    -0.270 OA
ATOM     13  H   UNL     1      -1.435  -6.426   6.206  0.00  0.00    -0.086 HD
ATOM     14  H   UNL     1      -1.183  -8.050   6.300  0.00  0.00    -0.086 HD
ENDROOT
BRANCH  11  15
ATOM     15  C   UNL     1       5.997  -4.928   5.318  0.00  0.00    +0.099 A 
ATOM     16  C   UNL     1       6.111  -3.944   4.330  0.00  0.00    +0.020 A 
ATOM     17  C   UNL     1       7.130  -3.015   4.442  0.00  0.00    +0.021 A 
ATOM     18  C   UNL     1       7.999  -3.084   5.517  0.00  0.00    +0.114 A 
ATOM     19  N   UNL     1       7.874  -4.021   6.437  0.00  0.00    -0.220 NA
ATOM     20  C   UNL     1       6.914  -4.929   6.380  0.00  0.00    +0.233 A 
BRANCH  20  21
ATOM     21  O   UNL     1       6.820  -5.869   7.351  0.00  0.00    -0.437 OA
BRANCH  21  22
ATOM     22  C   UNL     1       7.783  -5.897   8.309  0.00  0.00    +0.130 A 
ATOM     23  C   UNL     1       7.753  -4.980   9.350  0.00  0.00    +0.048 A 
ATOM     24  C   UNL     1       8.733  -5.010  10.323  0.00  0.00    +0.023 A 
ATOM     25  C   UNL     1       9.744  -5.952  10.260  0.00  0.00    +0.041 A 
ATOM     26  C   UNL     1       9.776  -6.867   9.222  0.00  0.00    +0.023 A 
ATOM     27  C   UNL     1       8.794  -6.845   8.250  0.00  0.00    +0.048 A 
ATOM     28 CL   UNL     1      10.975  -5.987  11.484  0.00  0.00    -0.084 Cl
ENDBRANCH  21  22
ENDBRANCH  20  21
ENDBRANCH  11  15
BRANCH   1  30
ATOM     29  N   UNL     1      -0.014  -2.673   3.921  0.00  0.00    -0.312 N 
ATOM     30  C   UNL     1       1.018  -3.472   3.586  0.00  0.00    +0.218 C 
ATOM     31  O   UNL     1       1.260  -3.694   2.419  0.00  0.00    -0.275 OA
ATOM     32  H   UNL     1      -0.207  -2.496   4.855  0.00  0.00    +0.149 HD
BRANCH  29  38
ATOM     33  C   UNL     1      -4.488  -0.826   2.913  0.00  0.00    +0.008 C 
ATOM     34  C   UNL     1      -3.100  -1.136   2.348  0.00  0.00    -0.009 C 
ATOM     35  C   UNL     1      -2.448   0.159   1.858  0.00  0.00    +0.003 C 
ATOM     36  C   UNL     1      -1.061  -0.152   1.292  0.00  0.00    +0.002 C 
ATOM     37  C   UNL     1      -0.193  -0.778   2.385  0.00  0.00    +0.022 C 
ATOM     38  C   UNL     1      -0.845  -2.073   2.875  0.00  0.00    +0.076 C 
ATOM     39  C   UNL     1      -2.232  -1.763   3.441  0.00  0.00    +0.009 C 
ATOM     40  C   UNL     1      -2.885  -3.057   3.930  0.00  0.00    +0.009 C 
ENDBRANCH  29  38
ENDBRANCH   1  30
TORSDOF 5
