REMARK  Name = ZINC12098648
REMARK  4 active torsions:
REMARK  status: ('A' for Active; 'I' for Inactive)
REMARK    1  A    between atoms: C_4  and  C_7
REMARK    2  A    between atoms: N_9  and  C_10
REMARK    3  A    between atoms: C_19  and  O_21
REMARK    4  A    between atoms: C_26  and  N_70
REMARK                            x       y       z     vdW  Elec       q    Type
REMARK                         _______ _______ _______ _____ _____    ______ ____
ROOT
ATOM      1  C   UNL     1       2.576   3.710   0.162  0.00  0.00    +0.133 C 
ATOM      2  C   UNL     1       1.160   3.175   0.118  0.00  0.00    -0.021 A 
ATOM      3  C   UNL     1      -0.052   3.844   0.138  0.00  0.00    +0.006 A 
ATOM      4  C   UNL     1      -1.238   3.137   0.088  0.00  0.00    +0.000 A 
ATOM      5  C   UNL     1      -1.215   1.757   0.011  0.00  0.00    +0.000 A 
ATOM      6  C   UNL     1      -0.007   1.088  -0.004  0.00  0.00    +0.004 A 
ATOM      7  C   UNL     1       1.183   1.794   0.047  0.00  0.00    -0.034 A 
ATOM      8  C   UNL     1       2.614   1.312   0.039  0.00  0.00    +0.021 C 
ATOM      9  C   UNL     1       3.464   2.544  -0.323  0.00  0.00    +0.149 C 
ATOM     10  C   UNL     1       2.803   0.220  -1.010  0.00  0.00    -0.005 C 
ATOM     11  C   UNL     1       4.253  -0.271  -0.975  0.00  0.00    -0.077 C 
ATOM     12  C   UNL     1       4.452   0.285   1.376  0.00  0.00    -0.077 C 
ATOM     13  C   UNL     1       3.008   0.794   1.420  0.00  0.00    -0.005 C 
ATOM     14  N   UNL     1       4.547  -0.798   0.375  0.00  0.00    +0.382 N 
ATOM     15  H   UNL     1       3.860  -1.526   0.605  0.00  0.00    -0.081 HD
ENDROOT
BRANCH  14  16
ATOM     16  C   UNL     1       5.900  -1.391   0.401  0.00  0.00    -0.062 C 
ATOM     17  C   UNL     1       5.998  -2.454  -0.695  0.00  0.00    -0.024 C 
ATOM     18  C   UNL     1       7.387  -3.096  -0.661  0.00  0.00    +0.005 C 
ATOM     19  C   UNL     1       7.614  -3.748   0.704  0.00  0.00    -0.010 C 
ATOM     20  C   UNL     1       6.550  -4.823   0.939  0.00  0.00    +0.007 C 
ATOM     21  C   UNL     1       5.161  -4.181   0.905  0.00  0.00    -0.010 C 
ATOM     22  C   UNL     1       4.934  -3.529  -0.461  0.00  0.00    +0.005 C 
ATOM     23  C   UNL     1       5.063  -3.118   2.001  0.00  0.00    +0.005 C 
ATOM     24  C   UNL     1       6.127  -2.044   1.766  0.00  0.00    -0.024 C 
ATOM     25  C   UNL     1       7.516  -2.685   1.800  0.00  0.00    +0.005 C 
ENDBRANCH  14  16
BRANCH   1  28
ATOM     26  C   UNL     1       2.632   5.319   1.992  0.00  0.00    +0.245 C 
ATOM     27  O   UNL     1       2.063   6.114   1.270  0.00  0.00    -0.270 OA
ATOM     28  N   UNL     1       2.933   4.088   1.532  0.00  0.00    -0.302 N 
ATOM     29  H   UNL     1       3.387   3.453   2.107  0.00  0.00    +0.150 HD
BRANCH  26  33
ATOM     30  C   UNL     1       3.667   6.414   5.963  0.00  0.00    +0.000 A 
ATOM     31  C   UNL     1       3.021   7.323   5.144  0.00  0.00    +0.001 A 
ATOM     32  C   UNL     1       2.682   6.973   3.853  0.00  0.00    +0.013 A 
ATOM     33  C   UNL     1       2.993   5.700   3.374  0.00  0.00    +0.037 A 
ATOM     34  C   UNL     1       3.640   4.786   4.207  0.00  0.00    +0.013 A 
ATOM     35  C   UNL     1       3.978   5.150   5.494  0.00  0.00    +0.001 A 
ENDBRANCH  26  33
ENDBRANCH   1  28
BRANCH   9  36
ATOM     36  O   UNL     1       3.675   2.619  -1.734  0.00  0.00    -0.389 OA
ATOM     37  H   UNL     1       4.130   3.422  -2.022  0.00  0.00    +0.210 HD
ENDBRANCH   9  36
TORSDOF 4
