REMARK  Name = ZINC22069238
REMARK  13 active torsions:
REMARK  status: ('A' for Active; 'I' for Inactive)
REMARK    1  A    between atoms: C_1  and  C_2
REMARK    2  A    between atoms: C_2  and  O_3
REMARK    3  A    between atoms: O_3  and  C_4
REMARK    4  A    between atoms: C_4  and  C_6
REMARK    5  A    between atoms: C_7  and  C_31
REMARK    6  A    between atoms: C_10  and  N_11
REMARK    7  A    between atoms: C_12  and  C_14
REMARK    8  A    between atoms: C_14  and  C_16
REMARK    9  A    between atoms: C_14  and  S_17
REMARK   10  A    between atoms: S_17  and  C_18
REMARK   11  A    between atoms: C_22  and  C_26
REMARK   12  A    between atoms: C_23  and  C_25
REMARK   13  A    between atoms: N_29  and  C_30
REMARK                            x       y       z     vdW  Elec       q    Type
REMARK                         _______ _______ _______ _____ _____    ______ ____
ROOT
ATOM      1  N   UNL     1      -1.169   4.961   0.040  0.00  0.00    -0.278 N 
ATOM      2  C   UNL     1      -2.509   5.109   0.053  0.00  0.00    +0.231 C 
ATOM      3  O   UNL     1      -3.227   4.133   0.055  0.00  0.00    -0.274 OA
ATOM      4  H   UNL     1      -0.517   5.847   0.038  0.00  0.00    +0.155 HD
ENDROOT
BRANCH   1   9
ATOM      5  C   UNL     1       0.732   3.337   0.013  0.00  0.00    +0.091 A 
ATOM      6  C   UNL     1       1.031   1.924   0.003  0.00  0.00    -0.021 A 
ATOM      7  C   UNL     1      -0.013   1.076   0.008  0.00  0.00    +0.051 A 
ATOM      8  S   UNL     1      -1.424   2.161   0.019  0.00  0.00    -0.081 S 
ATOM      9  C   UNL     1      -0.613   3.691   0.028  0.00  0.00    +0.086 A 
BRANCH   6  10
ATOM     10  C   UNL     1       2.452   1.422  -0.014  0.00  0.00    +0.020 C 
ATOM     11  C   UNL     1       2.668  -0.077  -0.228  0.00  0.00    +0.009 C 
ATOM     12  C   UNL     1       2.903   0.541   1.152  0.00  0.00    +0.009 C 
ENDBRANCH   6  10
BRANCH   5  13
ATOM     13  C   UNL     1       1.793   4.347   0.008  0.00  0.00    +0.342 C 
ATOM     14  O   UNL     1       2.223   4.772  -1.048  0.00  0.00    -0.245 OA
BRANCH  13  15
ATOM     15  O   UNL     1       2.293   4.806   1.173  0.00  0.00    -0.461 OA
BRANCH  15  17
ATOM     16  C   UNL     1       3.780   6.202   2.504  0.00  0.00    +0.048 C 
ATOM     17  C   UNL     1       3.342   5.806   1.092  0.00  0.00    +0.229 C 
ENDBRANCH  15  17
ENDBRANCH  13  15
ENDBRANCH   5  13
ENDBRANCH   1   9
BRANCH   2  18
ATOM     18  C   UNL     1      -3.113   6.490   0.067  0.00  0.00    +0.137 C 
ATOM     19  C   UNL     1      -3.075   7.050   1.490  0.00  0.00    +0.029 C 
BRANCH  18  20
ATOM     20  S   UNL     1      -4.830   6.402  -0.501  0.00  0.00    -0.075 S 
BRANCH  20  21
ATOM     21  C   UNL     1      -5.230   8.118  -0.532  0.00  0.00    +0.173 A 
ATOM     22  N   UNL     1      -4.320   9.004  -0.181  0.00  0.00    -0.216 NA
ATOM     23  C   UNL     1      -4.593  10.303  -0.195  0.00  0.00    +0.117 A 
ATOM     24  C   UNL     1      -5.853  10.797  -0.579  0.00  0.00    +0.075 A 
ATOM     25  C   UNL     1      -5.983  12.244  -0.537  0.00  0.00    -0.026 A 
ATOM     26  C   UNL     1      -4.934  12.984  -0.150  0.00  0.00    -0.008 A 
ATOM     27  S   UNL     1      -3.674  11.771   0.192  0.00  0.00    -0.073 S 
ATOM     28  C   UNL     1      -4.843  14.484  -0.031  0.00  0.00    +0.052 C 
ATOM     29  C   UNL     1      -7.281  12.904  -0.924  0.00  0.00    +0.045 C 
ATOM     30  C   UNL     1      -6.821   9.812  -0.953  0.00  0.00    +0.263 A 
ATOM     31  O   UNL     1      -7.940  10.147  -1.301  0.00  0.00    -0.267 OA
ATOM     32  N   UNL     1      -6.476   8.511  -0.923  0.00  0.00    -0.290 N 
ATOM     33  C   UNL     1      -7.461   7.498  -1.312  0.00  0.00    +0.154 C 
ENDBRANCH  20  21
ENDBRANCH  18  20
ENDBRANCH   2  18
TORSDOF 8
