REMARK  Name = ZINC14471963
REMARK  3 active torsions:
REMARK  status: ('A' for Active; 'I' for Inactive)
REMARK    1  A    between atoms: C_1  and  C_2
REMARK    2  A    between atoms: C_9  and  C_18
REMARK    3  A    between atoms: C_22  and  N_24
REMARK                            x       y       z     vdW  Elec       q    Type
REMARK                         _______ _______ _______ _____ _____    ______ ____
ROOT
ATOM      1  C   UNL     1      -5.475   3.225  -2.219  0.00  0.00    +0.045 C 
ATOM      2  C   UNL     1      -4.538   2.159  -1.712  0.00  0.00    -0.029 A 
ATOM      3  C   UNL     1      -4.882   0.832  -1.846  0.00  0.00    +0.006 A 
ATOM      4  C   UNL     1      -4.034  -0.158  -1.385  0.00  0.00    +0.020 A 
ATOM      5  C   UNL     1      -2.840   0.192  -0.781  0.00  0.00    +0.046 A 
ATOM      6  C   UNL     1      -2.491   1.519  -0.638  0.00  0.00    -0.001 A 
ATOM      7  C   UNL     1      -3.333   2.529  -1.112  0.00  0.00    +0.036 A 
ATOM      8  N   UNL     1      -3.037   3.888  -1.046  0.00  0.00    -0.336 N 
ATOM      9  C   UNL     1      -1.803   4.263  -0.331  0.00  0.00    +0.105 C 
ATOM     10  C   UNL     1      -0.757   3.230  -0.693  0.00  0.00    +0.029 C 
ATOM     11  C   UNL     1      -1.228   1.926   0.018  0.00  0.00    +0.050 C 
ATOM     12  C   UNL     1      -0.013   1.076   0.008  0.00  0.00    -0.023 C 
ATOM     13  C   UNL     1       1.055   1.866   0.002  0.00  0.00    -0.030 C 
ATOM     14  C   UNL     1       0.618   3.333  -0.024  0.00  0.00    +0.033 C 
ATOM     15 CL   UNL     1      -1.772  -1.047  -0.199  0.00  0.00    -0.083 Cl
ATOM     16  H   UNL     1      -3.825   4.414  -0.700  0.00  0.00    +0.147 HD
ENDROOT
BRANCH   9  17
ATOM     17  C   UNL     1      -1.353   5.629  -0.781  0.00  0.00    -0.025 A 
ATOM     18  C   UNL     1      -1.498   6.004  -2.104  0.00  0.00    +0.005 A 
ATOM     19  C   UNL     1      -1.085   7.256  -2.518  0.00  0.00    +0.003 A 
ATOM     20  C   UNL     1      -0.527   8.135  -1.608  0.00  0.00    +0.033 A 
ATOM     21  C   UNL     1      -0.383   7.761  -0.285  0.00  0.00    +0.127 A 
ATOM     22  C   UNL     1      -0.800   6.510   0.129  0.00  0.00    +0.038 A 
BRANCH  21  23
ATOM     23  N   UNL     1       0.214   8.702   0.689  0.00  0.00    +0.056 N 
ATOM     24  O   UNL     1       0.578   9.806   0.325  0.00  0.00    -0.126 OA
ATOM     25  O   UNL     1       0.341   8.373   1.855  0.00  0.00    -0.126 OA
ENDBRANCH  21  23
ENDBRANCH   9  17
TORSDOF 2
