REMARK  Name = ZINC24208208
REMARK  11 active torsions:
REMARK  status: ('A' for Active; 'I' for Inactive)
REMARK    1  A    between atoms: C_1  and  C_2
REMARK    2  A    between atoms: C_2  and  C_3
REMARK    3  A    between atoms: C_3  and  N_4
REMARK    4  A    between atoms: C_5  and  C_7
REMARK    5  A    between atoms: C_7  and  S_8
REMARK    6  A    between atoms: S_8  and  C_9
REMARK    7  A    between atoms: C_12  and  S_14
REMARK    8  A    between atoms: S_14  and  C_15
REMARK    9  A    between atoms: C_15  and  C_16
REMARK   10  A    between atoms: C_25  and  C_28
REMARK   11  A    between atoms: C_26  and  C_27
REMARK                            x       y       z     vdW  Elec       q    Type
REMARK                         _______ _______ _______ _____ _____    ______ ____
ROOT
ATOM      1  S   UNL     1      -2.548  -1.082   1.717  0.00  0.00    -0.092 S 
ENDROOT
BRANCH   1   5
ATOM      2  C   UNL     1      -2.652  -5.516   1.712  0.00  0.00    +0.160 A 
ATOM      3  N   UNL     1      -2.643  -4.935   0.528  0.00  0.00    -0.134 NA
ATOM      4  N   UNL     1      -2.612  -3.563   0.439  0.00  0.00    -0.134 NA
ATOM      5  C   UNL     1      -2.590  -2.834   1.539  0.00  0.00    +0.160 A 
ATOM      6  S   UNL     1      -2.607  -4.100   2.800  0.00  0.00    -0.033 S 
BRANCH   2   7
ATOM      7  S   UNL     1      -2.689  -7.232   2.114  0.00  0.00    -0.088 S 
BRANCH   7   8
ATOM      8  C   UNL     1      -2.716  -8.060   0.500  0.00  0.00    +0.172 C 
BRANCH   8  10
ATOM      9  N   UNL     1      -2.773 -10.377  -0.365  0.00  0.00    -0.315 N 
ATOM     10  C   UNL     1      -2.749  -9.553   0.702  0.00  0.00    +0.223 C 
ATOM     11  O   UNL     1      -2.755 -10.013   1.824  0.00  0.00    -0.275 OA
ATOM     12  H   UNL     1      -2.768  -9.959  -1.382  0.00  0.00    +0.149 HD
BRANCH   9  13
ATOM     13  C   UNL     1      -2.806 -11.828  -0.168  0.00  0.00    +0.104 C 
BRANCH  13  15
ATOM     14  C   UNL     1      -2.862 -14.042  -1.324  0.00  0.00    +0.005 C 
ATOM     15  C   UNL     1      -2.828 -12.526  -1.529  0.00  0.00    +0.015 C 
ENDBRANCH  13  15
ENDBRANCH   9  13
ENDBRANCH   8  10
ENDBRANCH   7   8
ENDBRANCH   2   7
ENDBRANCH   1   5
BRANCH   1  16
ATOM     16  C   UNL     1      -2.541  -0.467   0.010  0.00  0.00    +0.112 C 
BRANCH  16  17
ATOM     17  C   UNL     1      -2.506   1.039   0.019  0.00  0.00    -0.020 A 
ATOM     18  C   UNL     1      -3.653   1.764   0.028  0.00  0.00    +0.097 A 
ATOM     19  C   UNL     1      -3.592   3.174   0.035  0.00  0.00    +0.338 A 
ATOM     20  O   UNL     1      -4.629   3.812   0.044  0.00  0.00    -0.245 OA
ATOM     21  O   UNL     1      -2.421   3.829   0.046  0.00  0.00    -0.422 OA
ATOM     22  C   UNL     1      -1.244   3.168   0.031  0.00  0.00    +0.142 A 
ATOM     23  C   UNL     1      -1.230   1.762   0.017  0.00  0.00    +0.022 A 
ATOM     24  C   UNL     1      -0.013   1.076   0.008  0.00  0.00    +0.012 A 
ATOM     25  C   UNL     1       1.168   1.784   0.001  0.00  0.00    +0.004 A 
ATOM     26  C   UNL     1       1.153   3.172   0.008  0.00  0.00    -0.044 A 
ATOM     27  C   UNL     1      -0.041   3.862   0.023  0.00  0.00    -0.005 A 
ATOM     28  C   UNL     1      -0.040   5.369   0.032  0.00  0.00    +0.048 C 
ATOM     29  C   UNL     1       2.454   3.932   0.000  0.00  0.00    +0.044 C 
ENDBRANCH  16  17
ENDBRANCH   1  16
TORSDOF 8
