REMARK  Name = ZINC00914807
REMARK  13 active torsions:
REMARK  status: ('A' for Active; 'I' for Inactive)
REMARK    1  A    between atoms: C_1  and  C_2
REMARK    2  A    between atoms: C_6  and  C_8
REMARK    3  A    between atoms: C_8  and  C_9
REMARK    4  A    between atoms: C_9  and  N_10
REMARK    5  A    between atoms: N_10  and  C_11
REMARK    6  A    between atoms: N_10  and  S_26
REMARK    7  A    between atoms: C_11  and  C_12
REMARK    8  A    between atoms: C_15  and  C_25
REMARK    9  A    between atoms: C_18  and  C_24
REMARK   10  A    between atoms: S_26  and  C_29
REMARK   11  A    between atoms: C_34  and  C_35
REMARK   12  A    between atoms: C_35  and  O_37
REMARK   13  A    between atoms: O_37  and  C_38
REMARK                            x       y       z     vdW  Elec       q    Type
REMARK                         _______ _______ _______ _____ _____    ______ ____
ROOT
ATOM      1  N   UNL     1      -2.480   2.466  -1.299  0.00  0.00    -0.172 NA
ENDROOT
BRANCH   1   2
ATOM      2  S   UNL     1      -1.527   2.441   0.055  0.00  0.00    +0.062 S 
ATOM      3  O   UNL     1      -2.328   1.917   1.105  0.00  0.00    -0.153 OA
ATOM      4  O   UNL     1      -0.903   3.715   0.136  0.00  0.00    -0.153 OA
BRANCH   2   5
ATOM      5  C   UNL     1      -0.243   1.269  -0.233  0.00  0.00    +0.119 A 
ATOM      6  C   UNL     1      -0.333   0.393  -1.295  0.00  0.00    +0.029 A 
ATOM      7  C   UNL     1       0.671  -0.532  -1.519  0.00  0.00    +0.002 A 
ATOM      8  C   UNL     1       1.772  -0.584  -0.682  0.00  0.00    +0.001 A 
ATOM      9  C   UNL     1       1.874   0.287   0.383  0.00  0.00    +0.017 A 
ATOM     10  C   UNL     1       0.864   1.222   0.615  0.00  0.00    +0.085 A 
BRANCH  10  11
ATOM     11  C   UNL     1       0.967   2.158   1.754  0.00  0.00    +0.341 C 
ATOM     12  O   UNL     1       0.033   2.884   2.030  0.00  0.00    -0.245 OA
BRANCH  11  13
ATOM     13  O   UNL     1       2.096   2.206   2.487  0.00  0.00    -0.464 OA
ATOM     14  C   UNL     1       2.126   3.149   3.590  0.00  0.00    +0.280 C 
ENDBRANCH  11  13
ENDBRANCH  10  11
ENDBRANCH   2   5
ENDBRANCH   1   2
BRANCH   1  15
ATOM     15  C   UNL     1      -3.549   1.478  -1.461  0.00  0.00    +0.114 C 
BRANCH  15  16
ATOM     16  C   UNL     1      -4.887   2.104  -1.063  0.00  0.00    +0.052 C 
BRANCH  16  22
ATOM     17  C   UNL     1      -7.703  -1.582   0.817  0.00  0.00    +0.044 C 
ATOM     18  C   UNL     1      -7.334  -0.676  -0.330  0.00  0.00    -0.050 A 
ATOM     19  C   UNL     1      -8.005  -0.778  -1.534  0.00  0.00    +0.003 A 
ATOM     20  C   UNL     1      -7.667   0.053  -2.586  0.00  0.00    +0.001 A 
ATOM     21  C   UNL     1      -6.661   0.989  -2.432  0.00  0.00    +0.004 A 
ATOM     22  C   UNL     1      -5.987   1.087  -1.229  0.00  0.00    -0.046 A 
ATOM     23  C   UNL     1      -6.326   0.256  -0.177  0.00  0.00    +0.007 A 
ENDBRANCH  16  22
ENDBRANCH  15  16
ENDBRANCH   1  15
BRANCH   1  24
ATOM     24  C   UNL     1      -2.254   3.477  -2.335  0.00  0.00    +0.150 C 
BRANCH  24  25
ATOM     25  C   UNL     1      -1.365   2.905  -3.410  0.00  0.00    +0.033 A 
ATOM     26  C   UNL     1      -1.916   2.356  -4.521  0.00  0.00    +0.020 A 
ATOM     27  C   UNL     1      -1.025   1.809  -5.545  0.00  0.00    +0.002 A 
ATOM     28  C   UNL     1      -1.534   1.231  -6.713  0.00  0.00    -0.041 A 
ATOM     29  C   UNL     1      -0.676   0.729  -7.650  0.00  0.00    +0.004 A 
ATOM     30  C   UNL     1       0.697   0.789  -7.454  0.00  0.00    +0.005 A 
ATOM     31  C   UNL     1       1.221   1.355  -6.312  0.00  0.00    -0.026 A 
ATOM     32  C   UNL     1       0.366   1.872  -5.344  0.00  0.00    +0.052 A 
ATOM     33  N   UNL     1       0.863   2.444  -4.192  0.00  0.00    -0.322 N 
ATOM     34  H   UNL     1       1.852   2.484  -4.048  0.00  0.00    +0.169 HD
ATOM     35  C   UNL     1       0.037   2.948  -3.259  0.00  0.00    +0.254 A 
ATOM     36  O   UNL     1       0.511   3.451  -2.255  0.00  0.00    -0.268 OA
ATOM     37  C   UNL     1       2.713   1.413  -6.113  0.00  0.00    +0.046 C 
ATOM     38  C   UNL     1      -3.023   1.160  -6.935  0.00  0.00    +0.044 C 
ENDBRANCH  24  25
ENDBRANCH   1  24
TORSDOF 9
