REMARK  Name = ZINC32753371
REMARK  8 active torsions:
REMARK  status: ('A' for Active; 'I' for Inactive)
REMARK    1  A    between atoms: C_1  and  C_2
REMARK    2  A    between atoms: C_2  and  C_4
REMARK    3  A    between atoms: C_2  and  N_13
REMARK    4  A    between atoms: C_14  and  C_16
REMARK    5  A    between atoms: C_16  and  N_17
REMARK    6  A    between atoms: N_17  and  C_18
REMARK    7  A    between atoms: C_21  and  S_24
REMARK    8  A    between atoms: S_24  and  N_27
REMARK                            x       y       z     vdW  Elec       q    Type
REMARK                         _______ _______ _______ _____ _____    ______ ____
ROOT
ATOM      1  N   UNL     1       7.067   2.813   2.785  0.00  0.00    -0.335 N 
ATOM      2  H   UNL     1       7.605   1.914   2.451  0.00  0.00    +0.147 HD
ENDROOT
BRANCH   1   3
ATOM      3  C   UNL     1       7.689   3.717   3.650  0.00  0.00    +0.028 A 
ATOM      4  C   UNL     1       7.013   4.856   4.069  0.00  0.00    +0.025 A 
ATOM      5  C   UNL     1       7.630   5.746   4.927  0.00  0.00    +0.030 A 
ATOM      6  C   UNL     1       8.921   5.508   5.361  0.00  0.00    +0.106 A 
ATOM      7  C   UNL     1       9.598   4.378   4.942  0.00  0.00    +0.030 A 
ATOM      8  C   UNL     1       8.986   3.482   4.087  0.00  0.00    +0.025 A 
BRANCH   6   9
ATOM      9  S   UNL     1       9.705   6.649   6.451  0.00  0.00    +0.061 S 
ATOM     10  O   UNL     1       8.667   7.344   7.128  0.00  0.00    -0.153 OA
ATOM     11  O   UNL     1      10.712   5.923   7.143  0.00  0.00    -0.153 OA
BRANCH   9  12
ATOM     12  N   UNL     1      10.488   7.766   5.512  0.00  0.00    -0.177 NA
ATOM     13  C   UNL     1      11.860   7.512   5.131  0.00  0.00    +0.109 C 
ATOM     14  C   UNL     1      12.816   8.085   6.198  0.00  0.00    +0.017 C 
ATOM     15  C   UNL     1      12.817   9.555   6.145  0.00  0.00    +0.001 C 
ATOM     16  C   UNL     1      11.469  10.196   6.460  0.00  0.00    +0.001 C 
ATOM     17  C   UNL     1      10.633  10.245   5.205  0.00  0.00    +0.017 C 
ATOM     18  C   UNL     1       9.759   8.982   5.102  0.00  0.00    +0.109 C 
ENDBRANCH   9  12
ENDBRANCH   6   9
ENDBRANCH   1   3
BRANCH   1  19
ATOM     19  C   UNL     1       5.699   3.062   2.325  0.00  0.00    +0.197 C 
BRANCH  19  21
ATOM     20  N   UNL     1       4.034   1.964   0.862  0.00  0.00    -0.304 N 
ATOM     21  C   UNL     1       5.266   1.946   1.410  0.00  0.00    +0.231 C 
ATOM     22  O   UNL     1       6.025   1.033   1.166  0.00  0.00    -0.274 OA
ATOM     23  H   UNL     1       3.346   2.793   1.083  0.00  0.00    +0.149 HD
BRANCH  20  25
ATOM     24  C   UNL     1       4.091   1.172  -1.451  0.00  0.00    +0.036 C 
ATOM     25  C   UNL     1       3.613   0.879  -0.028  0.00  0.00    +0.136 C 
BRANCH  25  26
ATOM     26  C   UNL     1       2.110   0.773  -0.014  0.00  0.00    +0.126 A 
ATOM     27  C   UNL     1       1.422  -0.377  -0.013  0.00  0.00    +0.055 A 
ATOM     28  C   UNL     1       0.002  -0.004   0.002  0.00  0.00    +0.020 A 
ATOM     29  C   UNL     1      -1.194  -0.720   0.010  0.00  0.00    +0.011 A 
ATOM     30  C   UNL     1      -2.385  -0.050   0.025  0.00  0.00    +0.001 A 
ATOM     31  C   UNL     1      -2.411   1.337   0.034  0.00  0.00    +0.004 A 
ATOM     32  C   UNL     1      -1.238   2.062   0.030  0.00  0.00    +0.047 A 
ATOM     33  C   UNL     1      -0.017   1.401   0.010  0.00  0.00    +0.135 A 
ATOM     34  O   UNL     1       1.265   1.819  -0.000  0.00  0.00    -0.458 OA
ENDBRANCH  25  26
ENDBRANCH  20  25
ENDBRANCH  19  21
ENDBRANCH   1  19
TORSDOF 7
