REMARK  Name = ZINC12285398
REMARK  12 active torsions:
REMARK  status: ('A' for Active; 'I' for Inactive)
REMARK    1  A    between atoms: C_1  and  O_2
REMARK    2  A    between atoms: O_2  and  C_3
REMARK    3  A    between atoms: C_6  and  C_11
REMARK    4  A    between atoms: C_8  and  O_9
REMARK    5  A    between atoms: O_9  and  C_10
REMARK    6  A    between atoms: C_15  and  O_37
REMARK    7  A    between atoms: C_16  and  O_35
REMARK    8  A    between atoms: N_22  and  N_23
REMARK    9  A    between atoms: C_24  and  C_26
REMARK   10  A    between atoms: C_29  and  N_32
REMARK   11  A    between atoms: O_35  and  C_36
REMARK   12  A    between atoms: O_37  and  C_38
REMARK                            x       y       z     vdW  Elec       q    Type
REMARK                         _______ _______ _______ _____ _____    ______ ____
ROOT
ATOM      1  C   UNL     1      -1.118   7.126   1.853  0.00  0.00    +0.157 C 
ATOM      2  C   UNL     1       0.183   7.657   2.386  0.00  0.00    -0.014 A 
ATOM      3  C   UNL     1       0.436   7.550   3.747  0.00  0.00    +0.055 A 
ATOM      4  C   UNL     1       1.621   8.026   4.278  0.00  0.00    +0.162 A 
ATOM      5  C   UNL     1       2.565   8.615   3.442  0.00  0.00    +0.162 A 
ATOM      6  C   UNL     1       2.309   8.719   2.086  0.00  0.00    +0.053 A 
ATOM      7  C   UNL     1       1.118   8.241   1.559  0.00  0.00    -0.030 A 
ATOM      8  C   UNL     1       0.879   8.378   0.080  0.00  0.00    +0.133 C 
ATOM      9  C   UNL     1      -0.582   8.293  -0.241  0.00  0.00    +0.237 C 
ATOM     10  O   UNL     1      -0.974   8.758  -1.290  0.00  0.00    -0.274 OA
ATOM     11  N   UNL     1      -1.470   7.727   0.578  0.00  0.00    -0.208 N 
ENDROOT
BRANCH   1  15
ATOM     12  C   UNL     1      -0.787   2.893   1.346  0.00  0.00    +0.162 A 
ATOM     13  C   UNL     1      -0.254   3.751   0.398  0.00  0.00    +0.050 A 
ATOM     14  C   UNL     1      -0.368   5.119   0.562  0.00  0.00    +0.009 A 
ATOM     15  C   UNL     1      -1.003   5.634   1.677  0.00  0.00    -0.017 A 
ATOM     16  C   UNL     1      -1.532   4.784   2.629  0.00  0.00    +0.055 A 
ATOM     17  C   UNL     1      -1.427   3.411   2.468  0.00  0.00    +0.162 A 
BRANCH  12  19
ATOM     18  C   UNL     1      -0.013   1.086   0.008  0.00  0.00    +0.277 C 
ATOM     19  O   UNL     1      -0.682   1.547   1.184  0.00  0.00    -0.491 OA
ENDBRANCH  12  19
BRANCH  17  20
ATOM     20  O   UNL     1      -1.947   2.574   3.404  0.00  0.00    -0.491 OA
ATOM     21  C   UNL     1      -2.589   3.176   4.530  0.00  0.00    +0.277 C 
ENDBRANCH  17  20
ENDBRANCH   1  15
BRANCH  11  22
ATOM     22  N   UNL     1      -2.816   7.711   0.188  0.00  0.00    -0.227 N 
ATOM     23  C   UNL     1      -3.550   8.839   0.256  0.00  0.00    +0.260 C 
ATOM     24  O   UNL     1      -3.046   9.870   0.656  0.00  0.00    -0.269 OA
ATOM     25  H   UNL     1      -3.218   6.889  -0.132  0.00  0.00    +0.173 HD
BRANCH  23  26
ATOM     26  C   UNL     1      -4.970   8.823  -0.157  0.00  0.00    +0.038 A 
ATOM     27  C   UNL     1      -5.551   7.642  -0.622  0.00  0.00    +0.015 A 
ATOM     28  C   UNL     1      -6.877   7.633  -1.002  0.00  0.00    +0.033 A 
ATOM     29  C   UNL     1      -7.629   8.792  -0.930  0.00  0.00    +0.126 A 
ATOM     30  C   UNL     1      -7.058   9.967  -0.474  0.00  0.00    +0.033 A 
ATOM     31  C   UNL     1      -5.734   9.989  -0.087  0.00  0.00    +0.015 A 
BRANCH  29  32
ATOM     32  N   UNL     1      -9.050   8.776  -1.344  0.00  0.00    +0.056 N 
ATOM     33  O   UNL     1      -9.714   9.795  -1.282  0.00  0.00    -0.126 OA
ATOM     34  O   UNL     1      -9.555   7.743  -1.746  0.00  0.00    -0.126 OA
ENDBRANCH  29  32
ENDBRANCH  23  26
ENDBRANCH  11  22
BRANCH   5  35
ATOM     35  O   UNL     1       3.734   9.084   3.954  0.00  0.00    -0.491 OA
ATOM     36  C   UNL     1       4.654   9.676   3.035  0.00  0.00    +0.277 C 
ENDBRANCH   5  35
BRANCH   4  37
ATOM     37  O   UNL     1       1.863   7.918   5.612  0.00  0.00    -0.491 OA
ATOM     38  C   UNL     1       0.849   7.301   6.407  0.00  0.00    +0.277 C 
ENDBRANCH   4  37
TORSDOF 8
