REMARK  Name = ZINC09881167
REMARK  11 active torsions:
REMARK  status: ('A' for Active; 'I' for Inactive)
REMARK    1  A    between atoms: C_1  and  C_2
REMARK    2  A    between atoms: C_2  and  C_3
REMARK    3  A    between atoms: C_2  and  C_4
REMARK    4  A    between atoms: C_2  and  O_5
REMARK    5  A    between atoms: O_5  and  C_6
REMARK    6  A    between atoms: C_6  and  C_8
REMARK    7  A    between atoms: C_8  and  S_9
REMARK    8  A    between atoms: S_9  and  C_10
REMARK    9  A    between atoms: C_13  and  C_22
REMARK   10  A    between atoms: N_14  and  C_15
REMARK   11  A    between atoms: C_22  and  N_55
REMARK                            x       y       z     vdW  Elec       q    Type
REMARK                         _______ _______ _______ _____ _____    ______ ____
ROOT
ATOM      1  C   UNL     1       6.231   1.117   2.094  0.00  0.00    +0.197 A 
ATOM      2  N   UNL     1       6.413   0.042   1.363  0.00  0.00    -0.122 NA
ATOM      3  N   UNL     1       5.366  -0.703   1.412  0.00  0.00    -0.135 NA
ATOM      4  C   UNL     1       4.456  -0.149   2.163  0.00  0.00    +0.122 A 
ATOM      5  N   UNL     1       4.975   1.030   2.629  0.00  0.00    -0.276 N 
ENDROOT
BRANCH   5   6
ATOM      6  C   UNL     1       4.348   1.956   3.477  0.00  0.00    +0.050 A 
ATOM      7  C   UNL     1       3.247   2.672   3.031  0.00  0.00    +0.029 A 
ATOM      8  C   UNL     1       2.629   3.580   3.869  0.00  0.00    +0.040 A 
ATOM      9  C   UNL     1       3.114   3.781   5.151  0.00  0.00    +0.124 A 
ATOM     10  C   UNL     1       4.216   3.071   5.596  0.00  0.00    +0.040 A 
ATOM     11  C   UNL     1       4.833   2.160   4.762  0.00  0.00    +0.029 A 
ATOM     12  F   UNL     1       2.511   4.673   5.967  0.00  0.00    -0.205 F 
ENDBRANCH   5   6
BRANCH   1  13
ATOM     13  S   UNL     1       7.386   2.425   2.339  0.00  0.00    -0.074 S 
BRANCH  13  14
ATOM     14  C   UNL     1       8.764   1.821   1.333  0.00  0.00    +0.197 C 
BRANCH  14  15
ATOM     15  C   UNL     1       9.901   2.808   1.393  0.00  0.00    +0.318 C 
ATOM     16  O   UNL     1       9.791   3.817   2.050  0.00  0.00    -0.250 OA
BRANCH  15  17
ATOM     17  O   UNL     1      11.036   2.566   0.718  0.00  0.00    -0.458 OA
BRANCH  17  19
ATOM     18  C   UNL     1      12.505   3.711   2.287  0.00  0.00    +0.055 C 
ATOM     19  C   UNL     1      12.089   3.561   0.823  0.00  0.00    +0.105 C 
ATOM     20  C   UNL     1      13.294   3.115  -0.008  0.00  0.00    +0.055 C 
ATOM     21  C   UNL     1      11.576   4.903   0.298  0.00  0.00    +0.055 C 
ENDBRANCH  17  19
ENDBRANCH  15  17
ENDBRANCH  14  15
ENDBRANCH  13  14
ENDBRANCH   1  13
BRANCH   4  22
ATOM     22  C   UNL     1       3.089  -0.706   2.468  0.00  0.00    -0.001 C 
BRANCH  22  28
ATOM     23  C   UNL     1       1.779  -1.678   4.256  0.00  0.00    -0.078 C 
ATOM     24  C   UNL     1       1.866  -2.316   5.644  0.00  0.00    -0.019 C 
ATOM     25  C   UNL     1       2.632  -3.638   5.546  0.00  0.00    -0.004 C 
ATOM     26  C   UNL     1       4.021  -3.371   4.959  0.00  0.00    -0.019 C 
ATOM     27  C   UNL     1       3.871  -2.703   3.590  0.00  0.00    -0.078 C 
ATOM     28  N   UNL     1       3.147  -1.425   3.757  0.00  0.00    +0.384 N 
ATOM     29  H   UNL     1       3.649  -0.845   4.440  0.00  0.00    -0.081 HD
ENDBRANCH  22  28
ENDBRANCH   4  22
TORSDOF 8
