REMARK  Name = ZINC12498260
REMARK  9 active torsions:
REMARK  status: ('A' for Active; 'I' for Inactive)
REMARK    1  A    between atoms: C_1  and  C_2
REMARK    2  A    between atoms: C_7  and  C_8
REMARK    3  A    between atoms: N_16  and  C_19
REMARK    4  A    between atoms: C_23  and  C_25
REMARK    5  A    between atoms: C_25  and  C_27
REMARK    6  A    between atoms: C_28  and  C_29
REMARK    7  A    between atoms: C_28  and  C_35
REMARK    8  A    between atoms: C_35  and  O_37
REMARK    9  A    between atoms: O_37  and  C_38
REMARK                            x       y       z     vdW  Elec       q    Type
REMARK                         _______ _______ _______ _____ _____    ______ ____
ROOT
ATOM      1  C   UNL     1       2.519  -5.435  -0.384  0.00  0.00    -0.026 C 
ATOM      2  C   UNL     1       1.952  -4.229   0.366  0.00  0.00    +0.078 C 
ATOM      3  C   UNL     1       0.540  -4.189  -0.342  0.00  0.00    +0.090 C 
ATOM      4  C   UNL     1       0.086  -2.861  -0.015  0.00  0.00    +0.229 C 
ATOM      5  O   UNL     1      -1.049  -2.502   0.214  0.00  0.00    -0.275 OA
ATOM      6  N   UNL     1       1.223  -2.091  -0.021  0.00  0.00    -0.210 N 
ATOM      7  C   UNL     1       2.367  -2.838  -0.042  0.00  0.00    +0.229 C 
ATOM      8  O   UNL     1       3.482  -2.459  -0.327  0.00  0.00    -0.275 OA
ATOM      9  C   UNL     1       0.123  -5.597  -0.239  0.00  0.00    +0.070 C 
ATOM     10  N   UNL     1       1.353  -6.324  -0.625  0.00  0.00    +0.398 N 
ATOM     11  H   UNL     1       1.444  -7.176  -0.058  0.00  0.00    -0.083 HD
ATOM     12  H   UNL     1       1.309  -6.577  -1.619  0.00  0.00    -0.083 HD
ENDROOT
BRANCH   1  19
ATOM     13  C   UNL     1       5.240  -4.466  -0.467  0.00  0.00    +0.044 C 
ATOM     14  C   UNL     1       4.426  -4.534  -1.733  0.00  0.00    -0.049 A 
ATOM     15  C   UNL     1       4.982  -4.136  -2.935  0.00  0.00    +0.003 A 
ATOM     16  C   UNL     1       4.233  -4.194  -4.095  0.00  0.00    +0.000 A 
ATOM     17  C   UNL     1       2.930  -4.653  -4.055  0.00  0.00    +0.000 A 
ATOM     18  C   UNL     1       2.375  -5.055  -2.854  0.00  0.00    +0.002 A 
ATOM     19  C   UNL     1       3.124  -4.998  -1.694  0.00  0.00    -0.058 A 
ENDBRANCH   1  19
BRANCH   6  20
ATOM     20  C   UNL     1       1.212  -0.689  -0.013  0.00  0.00    +0.045 A 
ATOM     21  C   UNL     1       0.002  -0.004   0.002  0.00  0.00    +0.024 A 
ATOM     22  C   UNL     1      -0.017   1.378   0.010  0.00  0.00    +0.003 A 
ATOM     23  C   UNL     1       1.165   2.089   0.002  0.00  0.00    +0.011 A 
ATOM     24  C   UNL     1       2.388   1.411  -0.013  0.00  0.00    +0.019 A 
ATOM     25  C   UNL     1       2.405   0.013  -0.021  0.00  0.00    +0.035 A 
BRANCH  24  26
ATOM     26  C   UNL     1       3.652   2.166  -0.021  0.00  0.00    +0.160 C 
ATOM     27  O   UNL     1       4.711   1.575  -0.034  0.00  0.00    -0.292 OA
ATOM     28  C   UNL     1       3.630   3.672  -0.012  0.00  0.00    +0.091 C 
ENDBRANCH  24  26
ENDBRANCH   6  20
BRANCH   9  29
ATOM     29  C   UNL     1      -1.013  -5.891  -1.184  0.00  0.00    -0.047 A 
ATOM     30  C   UNL     1      -1.915  -4.896  -1.512  0.00  0.00    +0.003 A 
ATOM     31  C   UNL     1      -2.955  -5.165  -2.382  0.00  0.00    +0.000 A 
ATOM     32  C   UNL     1      -3.098  -6.432  -2.918  0.00  0.00    +0.000 A 
ATOM     33  C   UNL     1      -2.199  -7.428  -2.586  0.00  0.00    +0.000 A 
ATOM     34  C   UNL     1      -1.157  -7.158  -1.719  0.00  0.00    +0.003 A 
ENDBRANCH   9  29
BRANCH   9  35
ATOM     35  C   UNL     1      -0.254  -5.944   1.178  0.00  0.00    +0.301 C 
ATOM     36  O   UNL     1      -0.627  -5.078   1.933  0.00  0.00    -0.252 OA
BRANCH  35  37
ATOM     37  O   UNL     1      -0.176  -7.216   1.600  0.00  0.00    -0.469 OA
ATOM     38  C   UNL     1      -0.556  -7.477   2.977  0.00  0.00    +0.280 C 
ENDBRANCH  35  37
ENDBRANCH   9  35
TORSDOF 6
