REMARK  Name = ZINC00965312
REMARK  10 active torsions:
REMARK  status: ('A' for Active; 'I' for Inactive)
REMARK    1  A    between atoms: C_1  and  C_2
REMARK    2  A    between atoms: C_7  and  N_8
REMARK    3  A    between atoms: C_9  and  C_30
REMARK    4  A    between atoms: C_12  and  S_13
REMARK    5  A    between atoms: S_13  and  C_14
REMARK    6  A    between atoms: C_14  and  C_15
REMARK    7  A    between atoms: C_17  and  C_20
REMARK    8  A    between atoms: N_22  and  C_23
REMARK    9  A    between atoms: C_23  and  C_24
REMARK   10  A    between atoms: C_30  and  C_31
REMARK                            x       y       z     vdW  Elec       q    Type
REMARK                         _______ _______ _______ _____ _____    ______ ____
ROOT
ATOM      1  N   UNL     1       0.025  -0.013   2.419  0.00  0.00    -0.274 N 
ATOM      2  C   UNL     1      -1.065   0.377   3.152  0.00  0.00    +0.143 A 
ATOM      3  N   UNL     1      -0.620   0.990   4.212  0.00  0.00    -0.133 NA
ATOM      4  N   UNL     1       0.665   1.016   4.202  0.00  0.00    -0.122 NA
ATOM      5  C   UNL     1       1.116   0.410   3.128  0.00  0.00    +0.197 A 
ENDROOT
BRANCH   1  12
ATOM      6  C   UNL     1      -0.018   1.503   0.010  0.00  0.00    +0.046 C 
ATOM      7  C   UNL     1       0.002  -0.004   0.002  0.00  0.00    -0.027 A 
ATOM      8  C   UNL     1       0.006  -0.689  -1.198  0.00  0.00    +0.005 A 
ATOM      9  C   UNL     1       0.024  -2.071  -1.206  0.00  0.00    +0.000 A 
ATOM     10  C   UNL     1       0.039  -2.773  -0.014  0.00  0.00    +0.002 A 
ATOM     11  C   UNL     1       0.035  -2.093   1.188  0.00  0.00    +0.026 A 
ATOM     12  C   UNL     1       0.023  -0.705   1.200  0.00  0.00    +0.053 A 
ENDBRANCH   1  12
BRANCH   5  13
ATOM     13  S   UNL     1       2.806   0.187   2.682  0.00  0.00    -0.079 S 
BRANCH  13  14
ATOM     14  C   UNL     1       3.724   0.973   4.035  0.00  0.00    +0.140 C 
BRANCH  14  15
ATOM     15  C   UNL     1       5.204   0.852   3.775  0.00  0.00    +0.089 A 
ATOM     16  N   UNL     1       5.979   1.682   3.133  0.00  0.00    -0.239 NA
ATOM     17  C   UNL     1       7.276   1.380   3.017  0.00  0.00    +0.133 A 
ATOM     18  C   UNL     1       7.674   0.204   3.594  0.00  0.00    +0.080 A 
ATOM     19  S   UNL     1       6.241  -0.380   4.250  0.00  0.00    -0.079 S 
BRANCH  17  20
ATOM     20  C   UNL     1       8.221   2.259   2.309  0.00  0.00    +0.263 C 
ATOM     21  O   UNL     1       9.394   1.949   2.224  0.00  0.00    -0.269 OA
ATOM     22  N   UNL     1       7.787   3.409   1.755  0.00  0.00    -0.306 N 
ATOM     23  H   UNL     1       6.851   3.656   1.822  0.00  0.00    +0.149 HD
BRANCH  22  24
ATOM     24  C   UNL     1       8.727   4.284   1.050  0.00  0.00    +0.140 C 
BRANCH  24  25
ATOM     25  C   UNL     1       7.994   5.493   0.529  0.00  0.00    -0.027 A 
ATOM     26  C   UNL     1       7.418   5.484  -0.732  0.00  0.00    +0.025 A 
ATOM     27  C   UNL     1       6.754   6.612  -1.177  0.00  0.00    +0.111 A 
ATOM     28  N   UNL     1       6.665   7.686  -0.417  0.00  0.00    -0.263 NA
ATOM     29  C   UNL     1       7.201   7.730   0.787  0.00  0.00    +0.111 A 
ATOM     30  C   UNL     1       7.875   6.638   1.301  0.00  0.00    +0.025 A 
ENDBRANCH  24  25
ENDBRANCH  22  24
ENDBRANCH  17  20
ENDBRANCH  14  15
ENDBRANCH  13  14
ENDBRANCH   5  13
BRANCH   2  31
ATOM     31  C   UNL     1      -2.510   0.140   2.798  0.00  0.00    +0.111 C 
BRANCH  31  32
ATOM     32  C   UNL     1      -2.962  -1.174   3.381  0.00  0.00    -0.040 A 
ATOM     33  C   UNL     1      -2.826  -2.338   2.648  0.00  0.00    +0.004 A 
ATOM     34  C   UNL     1      -3.240  -3.544   3.183  0.00  0.00    +0.000 A 
ATOM     35  C   UNL     1      -3.790  -3.585   4.450  0.00  0.00    +0.000 A 
ATOM     36  C   UNL     1      -3.924  -2.421   5.184  0.00  0.00    +0.000 A 
ATOM     37  C   UNL     1      -3.506  -1.216   4.651  0.00  0.00    +0.004 A 
ENDBRANCH  31  32
ENDBRANCH   2  31
TORSDOF 9
