REMARK  Name = ZINC08879265
REMARK  15 active torsions:
REMARK  status: ('A' for Active; 'I' for Inactive)
REMARK    1  A    between atoms: C_1  and  C_2
REMARK    2  A    between atoms: C_12  and  C_13
REMARK    3  A    between atoms: C_13  and  C_14
REMARK    4  A    between atoms: N_16  and  C_17
REMARK    5  A    between atoms: C_17  and  C_18
REMARK    6  A    between atoms: C_18  and  C_19
REMARK    7  A    between atoms: C_19  and  C_20
REMARK    8  A    between atoms: N_22  and  C_23
REMARK    9  A    between atoms: C_23  and  C_24
REMARK   10  A    between atoms: C_23  and  C_25
REMARK   11  A    between atoms: N_28  and  C_29
REMARK   12  A    between atoms: C_29  and  C_30
REMARK   13  A    between atoms: C_29  and  C_31
REMARK   14  A    between atoms: C_33  and  C_36
REMARK   15  A    between atoms: C_33  and  C_37
REMARK                            x       y       z     vdW  Elec       q    Type
REMARK                         _______ _______ _______ _____ _____    ______ ____
ROOT
ATOM      1  C   UNL     1      -5.665   4.155  -1.080  0.00  0.00    +0.218 C 
ATOM      2  O   UNL     1      -4.942   3.774  -1.976  0.00  0.00    -0.275 OA
ATOM      3  N   UNL     1      -6.841   4.747  -1.369  0.00  0.00    -0.315 N 
ATOM      4  H   UNL     1      -7.420   5.051  -0.652  0.00  0.00    +0.149 HD
ENDROOT
BRANCH   1   5
ATOM      5  C   UNL     1      -5.249   3.967   0.356  0.00  0.00    +0.138 C 
BRANCH   5  17
ATOM      6  C   UNL     1      -2.811   5.531   0.368  0.00  0.00    +0.045 C 
ATOM      7  C   UNL     1      -2.764   4.026   0.410  0.00  0.00    -0.029 A 
ATOM      8  C   UNL     1      -1.488   3.308   0.457  0.00  0.00    +0.021 A 
ATOM      9  C   UNL     1      -0.274   4.001   0.465  0.00  0.00    +0.019 A 
ATOM     10  C   UNL     1       0.909   3.315   0.512  0.00  0.00    -0.005 A 
ATOM     11  C   UNL     1       0.910   1.924   0.556  0.00  0.00    +0.128 A 
ATOM     12  C   UNL     1      -0.289   1.222   0.545  0.00  0.00    +0.093 A 
ATOM     13  C   UNL     1      -1.496   1.902   0.491  0.00  0.00    +0.143 A 
ATOM     14  O   UNL     1      -2.661   1.223   0.487  0.00  0.00    -0.422 OA
ATOM     15  C   UNL     1      -3.824   1.881   0.444  0.00  0.00    +0.341 A 
ATOM     16  O   UNL     1      -4.858   1.237   0.438  0.00  0.00    -0.245 OA
ATOM     17  C   UNL     1      -3.905   3.286   0.404  0.00  0.00    +0.049 A 
ATOM     18  O   UNL     1       2.067   1.215   0.616  0.00  0.00    -0.486 OA
ATOM     19  C   UNL     1       3.278   1.879   0.254  0.00  0.00    +0.105 C 
ATOM     20  C   UNL     1       3.342   3.214   1.007  0.00  0.00    +0.052 C 
ATOM     21  C   UNL     1       2.197   4.101   0.512  0.00  0.00    +0.043 C 
ATOM     22  C   UNL     1       3.293   2.138  -1.254  0.00  0.00    +0.055 C 
ATOM     23  C   UNL     1       4.478   1.012   0.640  0.00  0.00    +0.055 C 
ENDBRANCH   5  17
ENDBRANCH   1   5
BRANCH   3  24
ATOM     24  C   UNL     1      -7.246   4.930  -2.765  0.00  0.00    +0.104 C 
BRANCH  24  25
ATOM     25  C   UNL     1      -8.610   5.621  -2.814  0.00  0.00    +0.028 C 
BRANCH  25  26
ATOM     26  C   UNL     1      -9.033   5.812  -4.272  0.00  0.00    +0.098 C 
BRANCH  26  27
ATOM     27  C   UNL     1     -10.377   6.492  -4.320  0.00  0.00    +0.223 C 
ATOM     28  O   UNL     1     -10.982   6.713  -3.293  0.00  0.00    -0.275 OA
ATOM     29  N   UNL     1     -10.906   6.856  -5.505  0.00  0.00    -0.223 N 
ATOM     30  C   UNL     1     -12.058   7.554  -5.543  0.00  0.00    +0.309 C 
ATOM     31  O   UNL     1     -12.575   7.930  -4.509  0.00  0.00    -0.252 OA
ATOM     32  N   UNL     1     -12.637   7.836  -6.727  0.00  0.00    -0.297 N 
ATOM     33  H   UNL     1     -12.264   7.476  -7.547  0.00  0.00    +0.151 HD
BRANCH  29  34
ATOM     34  C   UNL     1     -10.229   6.492  -6.752  0.00  0.00    +0.080 C 
ATOM     35  C   UNL     1     -11.103   5.514  -7.540  0.00  0.00    +0.028 C 
ATOM     36  C   UNL     1      -9.989   7.750  -7.588  0.00  0.00    +0.028 C 
ENDBRANCH  29  34
BRANCH  32  37
ATOM     37  C   UNL     1     -13.830   8.685  -6.776  0.00  0.00    +0.068 C 
ATOM     38  C   UNL     1     -13.408  10.155  -6.798  0.00  0.00    +0.027 C 
ATOM     39  C   UNL     1     -14.632   8.365  -8.038  0.00  0.00    +0.027 C 
ENDBRANCH  32  37
ENDBRANCH  26  27
ENDBRANCH  25  26
ENDBRANCH  24  25
ENDBRANCH   3  24
TORSDOF 8
