REMARK  Name = ZINC35809277
REMARK  11 active torsions:
REMARK  status: ('A' for Active; 'I' for Inactive)
REMARK    1  A    between atoms: C_1  and  O_2
REMARK    2  A    between atoms: O_2  and  C_3
REMARK    3  A    between atoms: C_3  and  C_4
REMARK    4  A    between atoms: C_4  and  N_5
REMARK    5  A    between atoms: N_5  and  C_6
REMARK    6  A    between atoms: C_6  and  C_7
REMARK    7  A    between atoms: C_12  and  C_15
REMARK    8  A    between atoms: C_15  and  C_16
REMARK    9  A    between atoms: N_18  and  C_19
REMARK   10  A    between atoms: C_19  and  C_20
REMARK   11  A    between atoms: C_29  and  C_31
REMARK                            x       y       z     vdW  Elec       q    Type
REMARK                         _______ _______ _______ _____ _____    ______ ____
ROOT
ATOM      1  C   UNL     1      -1.070  -4.852  -2.359  0.00  0.00    +0.236 C 
ATOM      2  O   UNL     1      -0.610  -5.441  -1.404  0.00  0.00    -0.274 OA
ATOM      3  N   UNL     1      -1.482  -5.541  -3.442  0.00  0.00    -0.263 N 
ATOM      4  C   UNL     1      -1.378  -6.926  -3.464  0.00  0.00    +0.165 A 
ATOM      5  N   UNL     1      -1.719  -7.756  -4.426  0.00  0.00    -0.229 NA
ATOM      6  C   UNL     1      -1.556  -9.059  -4.293  0.00  0.00    +0.059 A 
ATOM      7  C   UNL     1      -1.023  -9.498  -3.126  0.00  0.00    +0.072 A 
ATOM      8  S   UNL     1      -0.777  -7.950  -2.271  0.00  0.00    -0.060 S 
ATOM      9  H   UNL     1      -1.850  -5.069  -4.205  0.00  0.00    +0.157 HD
ENDROOT
BRANCH   1  10
ATOM     10  C   UNL     1      -1.183  -3.349  -2.334  0.00  0.00    +0.203 C 
BRANCH  10  11
ATOM     11  N   UNL     1      -0.673  -2.842  -1.058  0.00  0.00    -0.290 N 
ATOM     12  C   UNL     1      -1.510  -2.682  -0.013  0.00  0.00    +0.219 C 
ATOM     13  O   UNL     1      -1.111  -2.170   1.011  0.00  0.00    -0.275 OA
BRANCH  12  14
ATOM     14  C   UNL     1      -2.942  -3.141  -0.118  0.00  0.00    +0.075 C 
ATOM     15  C   UNL     1      -3.759  -2.091  -0.875  0.00  0.00    +0.013 C 
ATOM     16  C   UNL     1      -5.213  -2.557  -0.981  0.00  0.00    +0.001 C 
ATOM     17  C   UNL     1      -5.793  -2.741   0.422  0.00  0.00    +0.000 C 
ATOM     18  C   UNL     1      -4.976  -3.790   1.179  0.00  0.00    +0.001 C 
ATOM     19  C   UNL     1      -3.523  -3.325   1.285  0.00  0.00    +0.013 C 
ENDBRANCH  12  14
BRANCH  11  20
ATOM     20  C   UNL     1       0.746  -2.508  -0.916  0.00  0.00    +0.136 C 
BRANCH  20  21
ATOM     21  C   UNL     1       0.969  -1.048  -1.317  0.00  0.00    +0.178 C 
BRANCH  21  23
ATOM     22  C   UNL     1       0.431   1.200  -0.683  0.00  0.00    +0.194 C 
ATOM     23  O   UNL     1       0.286  -0.193  -0.398  0.00  0.00    -0.381 OA
ENDBRANCH  21  23
ENDBRANCH  20  21
ENDBRANCH  11  20
ENDBRANCH  10  11
ENDBRANCH   1  10
BRANCH   6  24
ATOM     24  C   UNL     1      -1.945 -10.017  -5.389  0.00  0.00    +0.151 C 
BRANCH  24  25
ATOM     25  C   UNL     1      -3.389  -9.798  -5.760  0.00  0.00    +0.219 C 
ATOM     26  O   UNL     1      -4.038  -8.947  -5.189  0.00  0.00    -0.275 OA
ATOM     27  N   UNL     1      -3.959 -10.546  -6.724  0.00  0.00    -0.311 N 
ATOM     28  H   UNL     1      -3.439 -11.227  -7.181  0.00  0.00    +0.149 HD
BRANCH  27  29
ATOM     29  C   UNL     1      -5.363 -10.333  -7.084  0.00  0.00    +0.139 C 
BRANCH  29  30
ATOM     30  C   UNL     1      -5.752 -11.291  -8.181  0.00  0.00    -0.027 A 
ATOM     31  C   UNL     1      -5.591 -10.926  -9.505  0.00  0.00    +0.009 A 
ATOM     32  C   UNL     1      -5.946 -11.801 -10.514  0.00  0.00    +0.050 A 
ATOM     33  C   UNL     1      -6.464 -13.047 -10.200  0.00  0.00    +0.166 A 
ATOM     34  C   UNL     1      -6.626 -13.415  -8.867  0.00  0.00    +0.167 A 
ATOM     35  C   UNL     1      -6.263 -12.535  -7.861  0.00  0.00    +0.054 A 
ATOM     36  O   UNL     1      -7.148 -14.675  -8.822  0.00  0.00    -0.453 OA
ATOM     37  C   UNL     1      -7.685 -14.916 -10.136  0.00  0.00    +0.466 C 
ATOM     38  O   UNL     1      -6.885 -14.078 -10.991  0.00  0.00    -0.453 OA
ENDBRANCH  29  30
ENDBRANCH  27  29
ENDBRANCH  24  25
ENDBRANCH   6  24
TORSDOF 10
