REMARK  Name = ZINC18255111
REMARK  5 active torsions:
REMARK  status: ('A' for Active; 'I' for Inactive)
REMARK    1  A    between atoms: C_1  and  C_2
REMARK    2  A    between atoms: C_2  and  O_3
REMARK    3  A    between atoms: O_3  and  C_4
REMARK    4  A    between atoms: C_7  and  N_10
REMARK    5  A    between atoms: C_16  and  C_17
REMARK                            x       y       z     vdW  Elec       q    Type
REMARK                         _______ _______ _______ _____ _____    ______ ____
ROOT
ATOM      1  N   UNL     1      -1.985  -5.961  -0.011  0.00  0.00    -0.226 NA
ATOM      2  C   UNL     1      -2.858  -6.524   0.795  0.00  0.00    +0.166 C 
ATOM      3  N   UNL     1      -3.703  -5.926   1.709  0.00  0.00    -0.260 N 
ATOM      4  C   UNL     1      -4.520  -6.666   2.439  0.00  0.00    +0.256 C 
ATOM      5  O   UNL     1      -5.271  -6.152   3.248  0.00  0.00    -0.269 OA
ATOM      6  C   UNL     1      -4.500  -8.080   2.255  0.00  0.00    +0.078 C 
ATOM      7  C   UNL     1      -5.237  -9.042   2.879  0.00  0.00    +0.035 C 
ATOM      8  S   UNL     1      -3.258  -8.254   0.982  0.00  0.00    -0.049 S 
ATOM      9  H   UNL     1      -3.697  -4.962   1.816  0.00  0.00    +0.157 HD
ENDROOT
BRANCH   1  13
ATOM     10  C   UNL     1      -1.498  -1.849   0.006  0.00  0.00    +0.121 A 
ATOM     11  C   UNL     1      -0.385  -2.678  -0.003  0.00  0.00    +0.048 A 
ATOM     12  C   UNL     1      -0.542  -4.048  -0.009  0.00  0.00    +0.031 A 
ATOM     13  C   UNL     1      -1.824  -4.601  -0.005  0.00  0.00    +0.067 A 
ATOM     14  C   UNL     1      -2.942  -3.764   0.004  0.00  0.00    +0.031 A 
ATOM     15  C   UNL     1      -2.775  -2.395   0.016  0.00  0.00    +0.048 A 
BRANCH  10  16
ATOM     16  O   UNL     1      -1.339  -0.499   0.012  0.00  0.00    -0.492 OA
BRANCH  16  18
ATOM     17  C   UNL     1      -0.019   1.526   0.010  0.00  0.00    +0.048 C 
ATOM     18  C   UNL     1       0.002  -0.004   0.002  0.00  0.00    +0.225 C 
ENDBRANCH  16  18
ENDBRANCH  10  16
ENDBRANCH   1  13
BRANCH   7  19
ATOM     19  C   UNL     1      -5.056 -10.402   2.540  0.00  0.00    +0.015 A 
ATOM     20  C   UNL     1      -5.702 -11.525   3.046  0.00  0.00    +0.017 A 
ATOM     21  C   UNL     1      -5.350 -12.755   2.553  0.00  0.00    +0.028 A 
ATOM     22  C   UNL     1      -4.387 -12.838   1.591  0.00  0.00    +0.079 A 
ATOM     23  S   UNL     1      -3.945 -11.126   1.345  0.00  0.00    -0.077 S 
ATOM     24 CL   UNL     1      -3.756 -14.250   0.802  0.00  0.00    -0.076 Cl
ENDBRANCH   7  19
TORSDOF 4
