REMARK  Name = ZINC12305592
REMARK  5 active torsions:
REMARK  status: ('A' for Active; 'I' for Inactive)
REMARK    1  A    between atoms: C_6  and  N_7
REMARK    2  A    between atoms: C_12  and  N_62
REMARK    3  A    between atoms: C_19  and  C_21
REMARK    4  A    between atoms: C_21  and  C_22
REMARK    5  A    between atoms: C_22  and  C_23
REMARK                            x       y       z     vdW  Elec       q    Type
REMARK                         _______ _______ _______ _____ _____    ______ ____
ROOT
ATOM      1  C   UNL     1       7.442  -2.135   0.983  0.00  0.00    -0.051 C 
ATOM      2  C   UNL     1       7.564  -2.937  -0.314  0.00  0.00    -0.012 C 
ATOM      3  C   UNL     1       8.914  -3.658  -0.346  0.00  0.00    +0.017 C 
ATOM      4  C   UNL     1       8.997  -4.631   0.834  0.00  0.00    +0.107 C 
ATOM      5  N   UNL     1       8.736  -3.891   2.077  0.00  0.00    -0.303 N 
ATOM      6  C   UNL     1       7.508  -3.091   2.178  0.00  0.00    +0.092 C 
ATOM      7  C   UNL     1       9.608  -3.946   3.103  0.00  0.00    +0.216 C 
ATOM      8  O   UNL     1       9.382  -3.330   4.124  0.00  0.00    -0.276 OA
ENDROOT
BRANCH   1  14
ATOM      9  N   UNL     1       3.621  -0.650  -0.035  0.00  0.00    -0.333 N 
ATOM     10  C   UNL     1       3.719  -1.579   1.100  0.00  0.00    +0.086 C 
ATOM     11  C   UNL     1       5.031  -2.360   1.004  0.00  0.00    -0.059 C 
ATOM     12  C   UNL     1       6.062  -0.491  -0.136  0.00  0.00    -0.059 C 
ATOM     13  C   UNL     1       4.749   0.291  -0.040  0.00  0.00    +0.086 C 
ATOM     14  N   UNL     1       6.158  -1.404   1.022  0.00  0.00    +0.385 N 
ATOM     15  H   UNL     1       6.114  -0.852   1.887  0.00  0.00    -0.081 HD
BRANCH   9  21
ATOM     16  C   UNL     1       1.207  -0.679  -0.013  0.00  0.00    +0.026 A 
ATOM     17  C   UNL     1       0.002  -0.004   0.002  0.00  0.00    +0.040 A 
ATOM     18  C   UNL     1      -0.017   1.380   0.010  0.00  0.00    +0.124 A 
ATOM     19  C   UNL     1       1.172   2.091   0.002  0.00  0.00    +0.040 A 
ATOM     20  C   UNL     1       2.379   1.420  -0.013  0.00  0.00    +0.026 A 
ATOM     21  C   UNL     1       2.400   0.031  -0.020  0.00  0.00    +0.030 A 
ATOM     22  F   UNL     1      -1.196   2.039   0.019  0.00  0.00    -0.205 F 
ENDBRANCH   9  21
ENDBRANCH   1  14
BRANCH   7  23
ATOM     23  C   UNL     1      10.863  -4.771   2.984  0.00  0.00    +0.096 C 
BRANCH  23  24
ATOM     24  C   UNL     1      11.671  -4.661   4.279  0.00  0.00    +0.013 C 
BRANCH  24  25
ATOM     25  C   UNL     1      12.945  -5.498   4.157  0.00  0.00    -0.011 C 
ATOM     26  C   UNL     1      12.588  -6.997   4.087  0.00  0.00    +0.003 C 
ATOM     27  C   UNL     1      13.714  -7.694   4.893  0.00  0.00    +0.000 C 
ATOM     28  C   UNL     1      13.964  -6.704   6.058  0.00  0.00    +0.000 C 
ATOM     29  C   UNL     1      13.820  -5.312   5.409  0.00  0.00    +0.003 C 
ENDBRANCH  24  25
ENDBRANCH  23  24
ENDBRANCH   7  23
TORSDOF 5
