REMARK  Name = ZINC14472560
REMARK  7 active torsions:
REMARK  status: ('A' for Active; 'I' for Inactive)
REMARK    1  A    between atoms: C_4  and  C_7
REMARK    2  A    between atoms: C_7  and  C_8
REMARK    3  A    between atoms: C_8  and  N_9
REMARK    4  A    between atoms: N_9  and  S_10
REMARK    5  A    between atoms: S_10  and  C_13
REMARK    6  A    between atoms: C_26  and  C_29
REMARK    7  A    between atoms: C_31  and  N_36
REMARK                            x       y       z     vdW  Elec       q    Type
REMARK                         _______ _______ _______ _____ _____    ______ ____
ROOT
ATOM      1  C   UNL     1      -2.977   9.537  -0.394  0.00  0.00    +0.106 A 
ATOM      2  C   UNL     1      -3.587   8.738   0.555  0.00  0.00    +0.030 A 
ATOM      3  C   UNL     1      -3.036   7.519   0.893  0.00  0.00    +0.025 A 
ATOM      4  C   UNL     1      -1.865   7.086   0.284  0.00  0.00    +0.031 A 
ATOM      5  C   UNL     1      -1.245   7.906  -0.666  0.00  0.00    -0.018 A 
ATOM      6  C   UNL     1      -1.809   9.118  -1.002  0.00  0.00    +0.034 A 
ATOM      7  C   UNL     1       0.023   7.429  -1.256  0.00  0.00    +0.049 C 
ATOM      8  C   UNL     1       0.477   7.864  -2.602  0.00  0.00    -0.023 C 
ATOM      9  C   UNL     1       1.180   6.880  -3.151  0.00  0.00    -0.030 C 
ATOM     10  C   UNL     1       1.220   5.677  -2.207  0.00  0.00    +0.033 C 
ATOM     11  C   UNL     1      -0.064   5.879  -1.393  0.00  0.00    +0.029 C 
ATOM     12  C   UNL     1      -0.073   5.348   0.030  0.00  0.00    +0.106 C 
ATOM     13  N   UNL     1      -1.333   5.838   0.631  0.00  0.00    -0.336 N 
ATOM     14  H   UNL     1      -1.799   5.285   1.277  0.00  0.00    +0.147 HD
ENDROOT
BRANCH  12  15
ATOM     15  C   UNL     1      -0.052   3.841   0.022  0.00  0.00    -0.007 A 
ATOM     16  C   UNL     1      -1.239   3.133   0.030  0.00  0.00    +0.039 A 
ATOM     17  C   UNL     1      -1.219   1.751   0.017  0.00  0.00    +0.127 A 
ATOM     18  C   UNL     1      -0.013   1.076   0.008  0.00  0.00    +0.034 A 
ATOM     19  C   UNL     1       1.175   1.783   0.000  0.00  0.00    +0.022 A 
ATOM     20  C   UNL     1       1.156   3.167   0.008  0.00  0.00    +0.046 A 
ATOM     21 CL   UNL     1       2.647   4.055  -0.003  0.00  0.00    -0.083 Cl
BRANCH  17  22
ATOM     22  N   UNL     1      -2.491   0.993   0.019  0.00  0.00    +0.056 N 
ATOM     23  O   UNL     1      -2.474  -0.225   0.013  0.00  0.00    -0.126 OA
ATOM     24  O   UNL     1      -3.554   1.587   0.028  0.00  0.00    -0.126 OA
ENDBRANCH  17  22
ENDBRANCH  12  15
BRANCH   1  25
ATOM     25  S   UNL     1      -3.690  11.089  -0.830  0.00  0.00    +0.058 S 
ATOM     26  O   UNL     1      -3.223  11.398  -2.135  0.00  0.00    -0.153 OA
ATOM     27  O   UNL     1      -5.073  11.003  -0.516  0.00  0.00    -0.153 OA
BRANCH  25  28
ATOM     28  N   UNL     1      -3.044  12.226   0.186  0.00  0.00    -0.190 NA
ATOM     29  H   UNL     1      -3.613  12.691   0.819  0.00  0.00    +0.148 HD
BRANCH  28  30
ATOM     30  C   UNL     1      -1.612  12.532   0.128  0.00  0.00    +0.110 C 
BRANCH  30  31
ATOM     31  C   UNL     1      -1.339  13.841   0.872  0.00  0.00    +0.052 C 
BRANCH  31  35
ATOM     32  C   UNL     1       2.835  14.732   0.703  0.00  0.00    +0.000 A 
ATOM     33  C   UNL     1       1.988  15.199  -0.285  0.00  0.00    +0.000 A 
ATOM     34  C   UNL     1       0.637  14.911  -0.230  0.00  0.00    +0.003 A 
ATOM     35  C   UNL     1       0.133  14.155   0.812  0.00  0.00    -0.046 A 
ATOM     36  C   UNL     1       0.980  13.691   1.802  0.00  0.00    +0.003 A 
ATOM     37  C   UNL     1       2.331  13.976   1.744  0.00  0.00    +0.000 A 
ENDBRANCH  31  35
ENDBRANCH  30  31
ENDBRANCH  28  30
ENDBRANCH  25  28
ENDBRANCH   1  25
TORSDOF 7
