REMARK  Name = ZINC04192214
REMARK  8 active torsions:
REMARK  status: ('A' for Active; 'I' for Inactive)
REMARK    1  A    between atoms: C_1  and  C_2
REMARK    2  A    between atoms: C_2  and  C_4
REMARK    3  A    between atoms: C_2  and  N_13
REMARK    4  A    between atoms: N_6  and  C_7
REMARK    5  A    between atoms: N_13  and  C_14
REMARK    6  A    between atoms: C_19  and  C_21
REMARK    7  A    between atoms: C_22  and  N_29
REMARK    8  A    between atoms: C_23  and  C_26
REMARK                            x       y       z     vdW  Elec       q    Type
REMARK                         _______ _______ _______ _____ _____    ______ ____
ROOT
ATOM      1  N   UNL     1      -1.288   2.821   1.920  0.00  0.00    -0.283 N 
ATOM      2  C   UNL     1      -0.300   3.553   2.472  0.00  0.00    +0.257 C 
ATOM      3  O   UNL     1       0.756   3.025   2.767  0.00  0.00    -0.269 OA
ENDROOT
BRANCH   1   4
ATOM      4  C   UNL     1      -2.598   3.429   1.669  0.00  0.00    +0.077 C 
ATOM      5  C   UNL     1      -3.119   4.108   2.952  0.00  0.00    +0.022 C 
ATOM      6  C   UNL     1      -4.645   3.837   2.930  0.00  0.00    +0.002 C 
ATOM      7  C   UNL     1      -4.730   2.396   2.369  0.00  0.00    +0.002 C 
ATOM      8  C   UNL     1      -3.621   2.341   1.298  0.00  0.00    +0.022 C 
ENDBRANCH   1   4
BRANCH   2   9
ATOM      9  C   UNL     1      -0.498   4.983   2.716  0.00  0.00    +0.115 A 
ATOM     10  C   UNL     1      -0.040   5.771   3.773  0.00  0.00    +0.076 A 
ATOM     11  C   UNL     1      -0.435   7.104   3.656  0.00  0.00    +0.155 A 
ATOM     12  N   UNL     1      -1.158   7.472   2.621  0.00  0.00    -0.203 NA
ATOM     13  S   UNL     1      -1.378   6.184   1.740  0.00  0.00    +0.019 S 
BRANCH  11  14
ATOM     14  C   UNL     1      -0.045   8.090   4.680  0.00  0.00    +0.262 C 
ATOM     15  O   UNL     1       0.624   7.743   5.635  0.00  0.00    -0.269 OA
ATOM     16  N   UNL     1      -0.430   9.376   4.559  0.00  0.00    -0.324 N 
ATOM     17  H   UNL     1      -0.964   9.653   3.798  0.00  0.00    +0.145 HD
ATOM     18  H   UNL     1      -0.173  10.025   5.234  0.00  0.00    +0.145 HD
ENDBRANCH  11  14
BRANCH  10  19
ATOM     19  N   UNL     1       0.723   5.283   4.826  0.00  0.00    -0.355 N 
ATOM     20  H   UNL     1       0.967   4.345   4.853  0.00  0.00    +0.142 HD
ATOM     21  H   UNL     1       1.012   5.880   5.533  0.00  0.00    +0.142 HD
ENDBRANCH  10  19
ENDBRANCH   2   9
BRANCH   1  23
ATOM     22  C   UNL     1      -1.422   1.189   0.103  0.00  0.00    +0.038 C 
ATOM     23  C   UNL     1      -1.053   1.418   1.570  0.00  0.00    +0.159 C 
BRANCH  23  24
ATOM     24  C   UNL     1      -1.902   0.533   2.446  0.00  0.00    +0.234 C 
ATOM     25  O   UNL     1      -2.632   1.026   3.280  0.00  0.00    -0.274 OA
ATOM     26  N   UNL     1      -1.850  -0.806   2.302  0.00  0.00    -0.311 N 
ATOM     27  H   UNL     1      -1.266  -1.200   1.635  0.00  0.00    +0.149 HD
BRANCH  26  28
ATOM     28  C   UNL     1      -2.676  -1.667   3.153  0.00  0.00    +0.073 C 
ATOM     29  C   UNL     1      -1.948  -1.927   4.474  0.00  0.00    +0.022 C 
ATOM     30  C   UNL     1      -2.810  -2.826   5.363  0.00  0.00    +0.002 C 
ATOM     31  C   UNL     1      -3.064  -4.155   4.650  0.00  0.00    +0.000 C 
ATOM     32  C   UNL     1      -3.792  -3.895   3.329  0.00  0.00    +0.002 C 
ATOM     33  C   UNL     1      -2.930  -2.996   2.440  0.00  0.00    +0.022 C 
ENDBRANCH  26  28
ENDBRANCH  23  24
ENDBRANCH   1  23
TORSDOF 7
