REMARK  Name = ZINC13501123
REMARK  9 active torsions:
REMARK  status: ('A' for Active; 'I' for Inactive)
REMARK    1  A    between atoms: C_1  and  C_2
REMARK    2  A    between atoms: C_2  and  C_3
REMARK    3  A    between atoms: C_3  and  C_5
REMARK    4  A    between atoms: C_3  and  N_72
REMARK    5  A    between atoms: N_9  and  C_10
REMARK    6  A    between atoms: C_16  and  C_17
REMARK    7  A    between atoms: C_16  and  N_72
REMARK    8  A    between atoms: C_23  and  C_29
REMARK    9  A    between atoms: C_30  and  N_72
REMARK                            x       y       z     vdW  Elec       q    Type
REMARK                         _______ _______ _______ _____ _____    ______ ____
ROOT
ATOM      1  N   UNL     1       1.575  -3.190   5.649  0.00  0.00    +0.391 N 
ATOM      2  H   UNL     1       2.068  -3.831   5.017  0.00  0.00    -0.080 HD
ENDROOT
BRANCH   1   3
ATOM      3  C   UNL     1       2.453  -2.040   5.949  0.00  0.00    -0.067 C 
ATOM      4  C   UNL     1       1.881  -1.214   7.103  0.00  0.00    -0.015 C 
ATOM      5  C   UNL     1       2.810  -0.035   7.396  0.00  0.00    -0.002 C 
ATOM      6  C   UNL     1       2.928   0.844   6.149  0.00  0.00    -0.000 C 
ATOM      7  C   UNL     1       3.501   0.018   4.995  0.00  0.00    -0.002 C 
ATOM      8  C   UNL     1       2.571  -1.161   4.702  0.00  0.00    -0.015 C 
ENDBRANCH   1   3
BRANCH   1   9
ATOM      9  C   UNL     1       1.242  -3.910   6.897  0.00  0.00    +0.003 C 
BRANCH   9  10
ATOM     10  C   UNL     1       1.544  -5.372   6.699  0.00  0.00    +0.138 A 
ATOM     11  N   UNL     1       1.233  -6.101   5.655  0.00  0.00    -0.115 NA
ATOM     12  N   UNL     1       1.662  -7.298   5.863  0.00  0.00    -0.023 NA
ATOM     13  N   UNL     1       2.239  -7.352   7.013  0.00  0.00    -0.044 NA
ATOM     14  N   UNL     1       2.192  -6.183   7.557  0.00  0.00    -0.228 N 
BRANCH  14  15
ATOM     15  C   UNL     1       2.737  -5.809   8.864  0.00  0.00    +0.111 C 
ATOM     16  C   UNL     1       4.247  -6.056   8.877  0.00  0.00    +0.027 C 
ATOM     17  C   UNL     1       4.816  -5.665  10.242  0.00  0.00    +0.002 C 
ATOM     18  C   UNL     1       4.152  -6.508  11.332  0.00  0.00    +0.000 C 
ATOM     19  C   UNL     1       2.642  -6.261  11.319  0.00  0.00    +0.002 C 
ATOM     20  C   UNL     1       2.073  -6.652   9.954  0.00  0.00    +0.027 C 
ENDBRANCH  14  15
ENDBRANCH   9  10
BRANCH   9  22
ATOM     21  C   UNL     1      -0.501  -2.296   7.674  0.00  0.00    +0.002 C 
ATOM     22  C   UNL     1      -0.243  -3.736   7.225  0.00  0.00    -0.011 C 
ENDBRANCH   9  22
ENDBRANCH   1   9
BRANCH   1  23
ATOM     23  C   UNL     1       0.337  -2.722   4.990  0.00  0.00    -0.036 C 
BRANCH  23  24
ATOM     24  C   UNL     1      -0.193  -3.833   4.120  0.00  0.00    +0.001 A 
ATOM     25  C   UNL     1      -1.296  -4.523   4.502  0.00  0.00    +0.017 A 
ATOM     26  C   UNL     1      -1.785  -5.595   3.634  0.00  0.00    -0.001 A 
ATOM     27  C   UNL     1      -2.918  -6.342   3.975  0.00  0.00    +0.010 A 
ATOM     28  C   UNL     1      -3.349  -7.337   3.144  0.00  0.00    +0.001 A 
ATOM     29  C   UNL     1      -2.676  -7.609   1.960  0.00  0.00    +0.005 A 
ATOM     30  C   UNL     1      -1.555  -6.890   1.607  0.00  0.00    -0.026 A 
ATOM     31  C   UNL     1      -1.097  -5.873   2.438  0.00  0.00    +0.052 A 
ATOM     32  N   UNL     1       0.019  -5.134   2.107  0.00  0.00    -0.322 N 
ATOM     33  H   UNL     1       0.492  -5.327   1.282  0.00  0.00    +0.169 HD
ATOM     34  C   UNL     1       0.461  -4.151   2.910  0.00  0.00    +0.251 A 
ATOM     35  O   UNL     1       1.451  -3.518   2.586  0.00  0.00    -0.268 OA
ATOM     36  C   UNL     1      -0.830  -7.201   0.323  0.00  0.00    +0.046 C 
ENDBRANCH  23  24
ENDBRANCH   1  23
TORSDOF 7
