REMARK  Name = ZINC67369339
REMARK  2 active torsions:
REMARK  status: ('A' for Active; 'I' for Inactive)
REMARK    1  A    between atoms: N_7  and  C_8
REMARK    2  A    between atoms: N_17  and  C_19
REMARK                            x       y       z     vdW  Elec       q    Type
REMARK                         _______ _______ _______ _____ _____    ______ ____
ROOT
ATOM      1  C   UNL     1      -0.144  -2.764  -0.011  0.00  0.00    +0.076 C 
ATOM      2  C   UNL     1      -0.642  -2.954   1.423  0.00  0.00    -0.007 C 
ATOM      3  C   UNL     1       0.398  -3.705   2.243  0.00  0.00    +0.003 C 
ATOM      4  C   UNL     1       0.796  -5.035   1.623  0.00  0.00    +0.001 C 
ATOM      5  C   UNL     1       1.077  -4.944   0.132  0.00  0.00    +0.003 C 
ATOM      6  C   UNL     1       0.018  -4.156  -0.626  0.00  0.00    -0.007 C 
ATOM      7  C   UNL     1      -1.326  -4.873  -0.624  0.00  0.00    -0.073 C 
ATOM      8  N   UNL     1      -1.923  -4.963   0.705  0.00  0.00    +0.382 N 
ATOM      9  C   UNL     1      -1.978  -3.685   1.406  0.00  0.00    -0.073 C 
ATOM     10  H   UNL     1      -1.436  -5.647   1.262  0.00  0.00    -0.081 HD
ENDROOT
BRANCH   1  17
ATOM     11  C   UNL     1      -0.016   1.319   0.009  0.00  0.00    +0.131 A 
ATOM     12  C   UNL     1       1.185   2.011   0.002  0.00  0.00    +0.054 A 
ATOM     13  C   UNL     1       2.368   1.287  -0.014  0.00  0.00    +0.131 A 
ATOM     14  N   UNL     1       2.315  -0.035  -0.020  0.00  0.00    -0.222 NA
ATOM     15  C   UNL     1       1.150  -0.666  -0.013  0.00  0.00    +0.215 A 
ATOM     16  N   UNL     1       0.002  -0.004   0.002  0.00  0.00    -0.222 NA
ATOM     17  N   UNL     1       1.131  -2.050  -0.020  0.00  0.00    -0.310 N 
ATOM     18 BR   UNL     1       1.211   3.902   0.011  0.00  0.00    -0.047 Br
ATOM     19  H   UNL     1       1.964  -2.546  -0.030  0.00  0.00    +0.149 HD
ENDBRANCH   1  17
BRANCH   8  20
ATOM     20  C   UNL     1      -3.298  -5.458   0.553  0.00  0.00    -0.069 C 
ATOM     21  C   UNL     1      -3.717  -6.655   1.408  0.00  0.00    -0.017 C 
ATOM     22  C   UNL     1      -3.487  -6.831  -0.094  0.00  0.00    -0.017 C 
ENDBRANCH   8  20
TORSDOF 2
