REMARK  Name = ZINC12394460
REMARK  6 active torsions:
REMARK  status: ('A' for Active; 'I' for Inactive)
REMARK    1  A    between atoms: C_1  and  C_2
REMARK    2  A    between atoms: C_4  and  C_8
REMARK    3  A    between atoms: C_5  and  C_7
REMARK    4  A    between atoms: N_10  and  N_11
REMARK    5  A    between atoms: C_12  and  C_14
REMARK    6  A    between atoms: N_18  and  C_19
REMARK                            x       y       z     vdW  Elec       q    Type
REMARK                         _______ _______ _______ _____ _____    ______ ____
ROOT
ATOM      1  C   UNL     1       3.662   0.558   1.056  0.00  0.00    +0.263 C 
ATOM      2  O   UNL     1       4.242  -0.508   0.981  0.00  0.00    -0.269 OA
ATOM      3  N   UNL     1       4.340   1.708   0.876  0.00  0.00    -0.230 N 
ATOM      4  H   UNL     1       3.877   2.559   0.936  0.00  0.00    +0.173 HD
ENDROOT
BRANCH   1   8
ATOM      5  C   UNL     1      -1.094   2.180   1.937  0.00  0.00    +0.086 C 
ATOM      6  C   UNL     1       0.129   1.325   1.731  0.00  0.00    +0.103 A 
ATOM      7  C   UNL     1       1.363   1.782   1.467  0.00  0.00    +0.057 A 
ATOM      8  C   UNL     1       2.216   0.591   1.343  0.00  0.00    +0.079 A 
ATOM      9  C   UNL     1       1.391  -0.475   1.548  0.00  0.00    +0.114 A 
ATOM     10  O   UNL     1       0.157  -0.016   1.777  0.00  0.00    -0.464 OA
ATOM     11  C   UNL     1       1.802  -1.925   1.522  0.00  0.00    +0.087 C 
ENDBRANCH   1   8
BRANCH   3  12
ATOM     12  N   UNL     1       5.714   1.676   0.604  0.00  0.00    -0.229 N 
ATOM     13  C   UNL     1       6.392   2.827   0.424  0.00  0.00    +0.277 C 
ATOM     14  O   UNL     1       5.796   3.887   0.396  0.00  0.00    -0.267 OA
ATOM     15  H   UNL     1       6.177   0.826   0.544  0.00  0.00    +0.173 HD
BRANCH  13  16
ATOM     16  C   UNL     1       7.850   2.801   0.262  0.00  0.00    +0.107 A 
ATOM     17  C   UNL     1       8.641   1.675   0.182  0.00  0.00    +0.052 A 
ATOM     18  C   UNL     1       9.962   2.110   0.028  0.00  0.00    +0.059 A 
ATOM     19  C   UNL     1       9.955   3.465   0.026  0.00  0.00    +0.106 A 
ATOM     20  N   UNL     1       8.677   3.897   0.168  0.00  0.00    -0.345 N 
ATOM     21  C   UNL     1       8.249   5.297   0.212  0.00  0.00    +0.149 C 
ATOM     22 CL   UNL     1      11.361   1.095  -0.126  0.00  0.00    -0.082 Cl
ENDBRANCH  13  16
ENDBRANCH   3  12
TORSDOF 3
