REMARK  Name = ZINC35381972
REMARK  3 active torsions:
REMARK  status: ('A' for Active; 'I' for Inactive)
REMARK    1  A    between atoms: C_5  and  C_6
REMARK    2  A    between atoms: C_6  and  C_8
REMARK    3  A    between atoms: C_6  and  N_19
REMARK                            x       y       z     vdW  Elec       q    Type
REMARK                         _______ _______ _______ _____ _____    ______ ____
ROOT
ATOM      1  C   UNL     1      -1.155  -0.970   0.009  0.00  0.00    -0.005 C 
ENDROOT
BRANCH   1   2
ATOM      2  C   UNL     1      -1.368  -1.488   1.407  0.00  0.00    -0.039 A 
ATOM      3  C   UNL     1      -0.790  -2.683   1.796  0.00  0.00    +0.052 A 
ATOM      4  C   UNL     1      -0.984  -3.162   3.083  0.00  0.00    +0.162 A 
ATOM      5  C   UNL     1      -1.759  -2.438   3.981  0.00  0.00    +0.163 A 
ATOM      6  C   UNL     1      -2.338  -1.242   3.585  0.00  0.00    +0.065 A 
ATOM      7  C   UNL     1      -2.137  -0.767   2.301  0.00  0.00    +0.023 A 
ATOM      8 BR   UNL     1      -2.921   0.869   1.767  0.00  0.00    -0.050 Br
ATOM      9  O   UNL     1      -1.956  -2.886   5.251  0.00  0.00    -0.485 OA
ATOM     10  C   UNL     1      -1.670  -4.268   5.497  0.00  0.00    +0.270 C 
ATOM     11  C   UNL     1      -0.316  -4.600   4.854  0.00  0.00    +0.270 C 
ATOM     12  O   UNL     1      -0.411  -4.341   3.450  0.00  0.00    -0.485 OA
ENDBRANCH   1   2
BRANCH   1  17
ATOM     13  C   UNL     1      -0.016   1.345   0.009  0.00  0.00    +0.013 A 
ATOM     14  C   UNL     1       1.189   2.066   0.002  0.00  0.00    -0.037 A 
ATOM     15  C   UNL     1       2.330   1.335  -0.017  0.00  0.00    -0.007 A 
ATOM     16  S   UNL     1       1.753  -0.347  -0.017  0.00  0.00    -0.099 S 
ATOM     17  C   UNL     1       0.002  -0.004   0.002  0.00  0.00    -0.020 A 
ATOM     18  C   UNL     1       3.557   2.200  -0.032  0.00  0.00    +0.043 C 
ATOM     19  C   UNL     1       3.045   3.595  -0.452  0.00  0.00    +0.010 C 
ATOM     20  C   UNL     1       1.576   3.547   0.013  0.00  0.00    +0.036 C 
ENDBRANCH   1  17
BRANCH   1  21
ATOM     21  N   UNL     1      -0.860  -2.093  -0.891  0.00  0.00    +0.386 N 
ATOM     22  H   UNL     1      -0.717  -1.746  -1.827  0.00  0.00    -0.089 HD
ATOM     23  H   UNL     1      -0.026  -2.566  -0.576  0.00  0.00    -0.089 HD
ATOM     24  H   UNL     1      -1.635  -2.740  -0.886  0.00  0.00    -0.089 HD
ENDBRANCH   1  21
TORSDOF 3
