REMARK  Name = ZINC38942728
REMARK  9 active torsions:
REMARK  status: ('A' for Active; 'I' for Inactive)
REMARK    1  A    between atoms: C_1  and  C_2
REMARK    2  A    between atoms: C_2  and  C_3
REMARK    3  A    between atoms: C_2  and  C_4
REMARK    4  A    between atoms: C_4  and  N_5
REMARK    5  A    between atoms: C_9  and  N_19
REMARK    6  A    between atoms: C_14  and  C_17
REMARK    7  A    between atoms: C_14  and  C_18
REMARK    8  A    between atoms: C_20  and  C_22
REMARK    9  A    between atoms: C_22  and  C_27
REMARK                            x       y       z     vdW  Elec       q    Type
REMARK                         _______ _______ _______ _____ _____    ______ ____
ROOT
ATOM      1  N   UNL     1      -2.515   0.166  -1.042  0.00  0.00    -0.267 N 
ATOM      2  C   UNL     1      -2.946   1.480  -1.277  0.00  0.00    +0.078 A 
ATOM      3  C   UNL     1      -2.299   2.551  -0.681  0.00  0.00    +0.029 A 
ATOM      4  C   UNL     1      -2.737   3.840  -0.918  0.00  0.00    +0.025 A 
ATOM      5  C   UNL     1      -3.824   4.064  -1.753  0.00  0.00    +0.037 A 
ATOM      6  C   UNL     1      -4.473   2.993  -2.353  0.00  0.00    +0.070 A 
ATOM      7  C   UNL     1      -4.035   1.702  -2.119  0.00  0.00    +0.144 A 
ATOM      8  O   UNL     1      -4.655   0.647  -2.711  0.00  0.00    -0.489 OA
ATOM      9  C   UNL     1      -3.985   0.030  -3.807  0.00  0.00    +0.244 C 
ATOM     10  C   UNL     1      -2.501  -0.148  -3.495  0.00  0.00    +0.076 C 
ATOM     11  C   UNL     1      -2.321  -0.664  -2.091  0.00  0.00    +0.229 C 
ATOM     12  O   UNL     1      -2.007  -1.821  -1.903  0.00  0.00    -0.275 OA
ATOM     13  C   UNL     1      -1.789   1.200  -3.630  0.00  0.00    +0.024 C 
ATOM     14  C   UNL     1      -1.889  -1.143  -4.483  0.00  0.00    +0.024 C 
ENDROOT
BRANCH   5  15
ATOM     15  N   UNL     1      -4.267   5.372  -1.989  0.00  0.00    -0.285 N 
ATOM     16  C   UNL     1      -5.579   5.615  -2.176  0.00  0.00    +0.228 C 
ATOM     17  O   UNL     1      -6.386   4.718  -2.053  0.00  0.00    -0.274 OA
ATOM     18  H   UNL     1      -3.629   6.102  -2.018  0.00  0.00    +0.155 HD
BRANCH  16  19
ATOM     19  C   UNL     1      -6.043   7.003  -2.538  0.00  0.00    +0.078 C 
ATOM     20  C   UNL     1      -5.455   7.418  -3.902  0.00  0.00    +0.021 C 
ATOM     21  C   UNL     1      -6.571   7.071  -4.919  0.00  0.00    +0.001 C 
ATOM     22  C   UNL     1      -7.862   7.447  -4.151  0.00  0.00    +0.001 C 
ATOM     23  C   UNL     1      -7.574   7.021  -2.696  0.00  0.00    +0.021 C 
BRANCH  19  24
ATOM     24  C   UNL     1      -5.622   7.982  -1.473  0.00  0.00    +0.005 A 
ATOM     25  C   UNL     1      -4.375   8.287  -1.039  0.00  0.00    +0.012 A 
ATOM     26  C   UNL     1      -4.225   9.229  -0.039  0.00  0.00    +0.008 A 
ATOM     27  C   UNL     1      -5.329   9.821   0.477  0.00  0.00    +0.045 A 
ATOM     28  S   UNL     1      -6.636   9.048  -0.462  0.00  0.00    -0.101 S 
ENDBRANCH  19  24
ENDBRANCH  16  19
ENDBRANCH   5  15
BRANCH   1  29
ATOM     29  C   UNL     1      -2.272  -0.300   0.325  0.00  0.00    +0.116 C 
BRANCH  29  31
ATOM     30  C   UNL     1      -4.114  -1.983   0.187  0.00  0.00    +0.009 C 
ATOM     31  C   UNL     1      -3.591  -0.763   0.948  0.00  0.00    +0.001 C 
ATOM     32  C   UNL     1      -3.359  -1.137   2.414  0.00  0.00    +0.009 C 
ENDBRANCH  29  31
ENDBRANCH   1  29
TORSDOF 5
