REMARK  Name = ZINC36290193
REMARK  5 active torsions:
REMARK  status: ('A' for Active; 'I' for Inactive)
REMARK    1  A    between atoms: C_1  and  C_2
REMARK    2  A    between atoms: C_2  and  C_3
REMARK    3  A    between atoms: C_4  and  C_13
REMARK    4  A    between atoms: C_6  and  N_12
REMARK    5  A    between atoms: C_7  and  C_11
REMARK                            x       y       z     vdW  Elec       q    Type
REMARK                         _______ _______ _______ _____ _____    ______ ____
ROOT
ATOM      1  C   UNL     1       0.731  -0.503   1.223  0.00  0.00    +0.017 A 
ATOM      2  C   UNL     1       0.228  -0.890   2.410  0.00  0.00    +0.067 A 
ATOM      3  N   UNL     1       1.074  -1.322   3.420  0.00  0.00    -0.274 N 
ATOM      4  C   UNL     1       0.977  -1.785   4.729  0.00  0.00    +0.124 A 
ATOM      5  C   UNL     1       2.226  -2.044   5.164  0.00  0.00    +0.079 A 
ATOM      6  N   UNL     1       3.088  -1.756   4.171  0.00  0.00    -0.225 NA
ATOM      7  C   UNL     1       2.419  -1.331   3.141  0.00  0.00    +0.180 A 
ATOM      8  S   UNL     1       2.484  -0.742   1.465  0.00  0.00    -0.054 S 
ATOM      9  C   UNL     1       2.595  -2.564   6.529  0.00  0.00    +0.069 C 
ENDROOT
BRANCH   2  10
ATOM     10  C   UNL     1      -1.232  -0.854   2.639  0.00  0.00    -0.000 A 
ATOM     11  C   UNL     1      -1.775   0.017   3.586  0.00  0.00    +0.010 A 
ATOM     12  C   UNL     1      -3.136   0.038   3.790  0.00  0.00    +0.004 A 
ATOM     13  C   UNL     1      -3.977  -0.797   3.062  0.00  0.00    -0.044 A 
ATOM     14  C   UNL     1      -3.448  -1.656   2.123  0.00  0.00    -0.044 A 
ATOM     15  C   UNL     1      -2.078  -1.684   1.907  0.00  0.00    +0.014 A 
ATOM     16  C   UNL     1      -4.304  -2.574   1.290  0.00  0.00    +0.035 C 
ATOM     17  C   UNL     1      -5.686  -2.738   1.920  0.00  0.00    +0.005 C 
ATOM     18  C   UNL     1      -6.255  -1.343   2.207  0.00  0.00    +0.005 C 
ATOM     19  C   UNL     1      -5.454  -0.722   3.349  0.00  0.00    +0.035 C 
ENDBRANCH   2  10
BRANCH   4  20
ATOM     20  N   UNL     1      -0.206  -1.952   5.462  0.00  0.00    -0.343 N 
ATOM     21  H   UNL     1      -1.062  -1.737   5.058  0.00  0.00    +0.144 HD
ATOM     22  H   UNL     1      -0.170  -2.283   6.373  0.00  0.00    +0.144 HD
ENDBRANCH   4  20
BRANCH   1  24
ATOM     23  C   UNL     1      -0.019   1.526   0.010  0.00  0.00    +0.009 C 
ATOM     24  C   UNL     1       0.002  -0.004   0.002  0.00  0.00    +0.041 C 
ENDBRANCH   1  24
TORSDOF 3
