REMARK  Name = ZINC38965501
REMARK  10 active torsions:
REMARK  status: ('A' for Active; 'I' for Inactive)
REMARK    1  A    between atoms: C_1  and  C_2
REMARK    2  A    between atoms: C_6  and  C_33
REMARK    3  A    between atoms: C_7  and  N_8
REMARK    4  A    between atoms: C_9  and  C_11
REMARK    5  A    between atoms: C_11  and  S_12
REMARK    6  A    between atoms: S_12  and  C_13
REMARK    7  A    between atoms: C_17  and  C_20
REMARK    8  A    between atoms: C_20  and  C_22
REMARK    9  A    between atoms: C_20  and  N_32
REMARK   10  A    between atoms: C_22  and  C_23
REMARK                            x       y       z     vdW  Elec       q    Type
REMARK                         _______ _______ _______ _____ _____    ______ ____
ROOT
ATOM      1  C   UNL     1      -0.333   0.115   7.700  0.00  0.00    +0.263 C 
ATOM      2  N   UNL     1       0.878   0.974   7.763  0.00  0.00    -0.218 NA
ATOM      3  N   UNL     1       0.409   2.120   8.561  0.00  0.00    -0.228 NA
ATOM      4  C   UNL     1      -0.995   2.298   8.126  0.00  0.00    +0.188 C 
ATOM      5  O   UNL     1      -1.431   1.038   7.588  0.00  0.00    -0.334 OA
ATOM      6  H   UNL     1       1.162   1.268   6.840  0.00  0.00    +0.144 HD
ATOM      7  H   UNL     1       0.956   2.945   8.364  0.00  0.00    +0.143 HD
ENDROOT
BRANCH   1   8
ATOM      8  S   UNL     1      -0.266  -0.967   6.246  0.00  0.00    -0.104 S 
BRANCH   8   9
ATOM      9  C   UNL     1      -0.092   0.181   4.852  0.00  0.00    +0.169 C 
BRANCH   9  11
ATOM     10  N   UNL     1       0.107   0.050   2.390  0.00  0.00    -0.284 N 
ATOM     11  C   UNL     1      -0.024  -0.598   3.564  0.00  0.00    +0.227 C 
ATOM     12  O   UNL     1      -0.086  -1.810   3.585  0.00  0.00    -0.275 OA
ATOM     13  H   UNL     1       0.223   1.013   2.378  0.00  0.00    +0.155 HD
BRANCH  10  20
ATOM     14  C   UNL     1       2.558  -0.356   1.002  0.00  0.00    +0.045 C 
ATOM     15  C   UNL     1       1.248  -0.887   0.479  0.00  0.00    -0.029 A 
ATOM     16  C   UNL     1       1.214  -1.599  -0.704  0.00  0.00    +0.005 A 
ATOM     17  C   UNL     1       0.013  -2.087  -1.185  0.00  0.00    +0.001 A 
ATOM     18  C   UNL     1      -1.158  -1.863  -0.484  0.00  0.00    +0.005 A 
ATOM     19  C   UNL     1      -1.131  -1.152   0.700  0.00  0.00    -0.029 A 
ATOM     20  C   UNL     1       0.075  -0.666   1.188  0.00  0.00    +0.039 A 
ATOM     21  C   UNL     1      -2.407  -0.908   1.463  0.00  0.00    +0.045 C 
ENDBRANCH  10  20
ENDBRANCH   9  11
ENDBRANCH   8   9
ENDBRANCH   1   8
BRANCH   4  22
ATOM     22  C   UNL     1      -1.866   2.686   9.322  0.00  0.00    -0.025 C 
BRANCH  22  23
ATOM     23  N   UNL     1      -1.375   3.945   9.898  0.00  0.00    +0.383 N 
ATOM     24  H   UNL     1      -1.949   4.202  10.687  0.00  0.00    -0.089 HD
ATOM     25  H   UNL     1      -0.420   3.826  10.201  0.00  0.00    -0.089 HD
ATOM     26  H   UNL     1      -1.417   4.673   9.200  0.00  0.00    -0.089 HD
ENDBRANCH  22  23
BRANCH  22  27
ATOM     27  C   UNL     1      -3.314   2.867   8.862  0.00  0.00    +0.025 C 
BRANCH  27  28
ATOM     28  C   UNL     1      -4.192   3.129  10.058  0.00  0.00    -0.024 A 
ATOM     29  C   UNL     1      -4.437   4.426  10.692  0.00  0.00    +0.003 A 
ATOM     30  C   UNL     1      -3.995   5.727  10.443  0.00  0.00    +0.010 A 
ATOM     31  C   UNL     1      -4.420   6.752  11.241  0.00  0.00    +0.001 A 
ATOM     32  C   UNL     1      -5.286   6.511  12.298  0.00  0.00    +0.002 A 
ATOM     33  C   UNL     1      -5.734   5.235  12.562  0.00  0.00    +0.026 A 
ATOM     34  C   UNL     1      -5.316   4.176  11.762  0.00  0.00    +0.047 A 
ATOM     35  N   UNL     1      -5.577   2.824  11.766  0.00  0.00    -0.360 N 
ATOM     36  C   UNL     1      -4.904   2.218  10.740  0.00  0.00    +0.087 A 
ATOM     37  H   UNL     1      -6.155   2.370  12.399  0.00  0.00    +0.165 HD
ENDBRANCH  27  28
ENDBRANCH  22  27
ENDBRANCH   4  22
TORSDOF 8
