REMARK  Name = ZINC08800198
REMARK  7 active torsions:
REMARK  status: ('A' for Active; 'I' for Inactive)
REMARK    1  A    between atoms: C_1  and  N_2
REMARK    2  A    between atoms: C_10  and  C_12
REMARK    3  A    between atoms: C_12  and  C_14
REMARK    4  A    between atoms: C_12  and  N_60
REMARK    5  A    between atoms: C_14  and  N_15
REMARK    6  A    between atoms: N_15  and  S_16
REMARK    7  A    between atoms: S_16  and  C_19
REMARK                            x       y       z     vdW  Elec       q    Type
REMARK                         _______ _______ _______ _____ _____    ______ ____
ROOT
ATOM      1  C   UNL     1       2.592  -2.501   4.143  0.00  0.00    -0.022 C 
ENDROOT
BRANCH   1  11
ATOM      2  C   UNL     1      -0.635  -1.474  -1.189  0.00  0.00    +0.129 C 
ATOM      3  N   UNL     1       0.206  -0.438  -0.575  0.00  0.00    -0.333 N 
ATOM      4  C   UNL     1      -0.541   0.810  -0.401  0.00  0.00    +0.105 C 
ATOM      5  C   UNL     1       0.375   1.842   0.268  0.00  0.00    +0.024 C 
ATOM      6  C   UNL     1       0.639   1.378   1.702  0.00  0.00    +0.038 C 
ATOM      7  C   UNL     1       1.013  -0.083   1.702  0.00  0.00    -0.026 A 
ATOM      8  C   UNL     1       0.784  -0.899   0.607  0.00  0.00    +0.033 A 
ATOM      9  C   UNL     1       1.143  -2.246   0.670  0.00  0.00    +0.023 A 
ATOM     10  C   UNL     1       1.724  -2.761   1.809  0.00  0.00    +0.004 A 
ATOM     11  C   UNL     1       1.954  -1.941   2.898  0.00  0.00    -0.059 A 
ATOM     12  C   UNL     1       1.600  -0.608   2.842  0.00  0.00    +0.007 A 
ENDBRANCH   1  11
BRANCH   1  18
ATOM     13  C   UNL     1       1.216  -4.478   3.900  0.00  0.00    -0.078 C 
ATOM     14  C   UNL     1       0.354  -5.484   4.667  0.00  0.00    -0.019 C 
ATOM     15  C   UNL     1      -0.862  -4.763   5.254  0.00  0.00    -0.004 C 
ATOM     16  C   UNL     1      -0.383  -3.624   6.159  0.00  0.00    -0.019 C 
ATOM     17  C   UNL     1       0.500  -2.672   5.349  0.00  0.00    -0.078 C 
ATOM     18  N   UNL     1       1.665  -3.422   4.832  0.00  0.00    +0.385 N 
ATOM     19  H   UNL     1       2.156  -3.860   5.621  0.00  0.00    -0.081 HD
ENDBRANCH   1  18
BRANCH   1  20
ATOM     20  C   UNL     1       3.861  -3.269   3.765  0.00  0.00    +0.095 C 
BRANCH  20  21
ATOM     21  N   UNL     1       4.415  -3.913   4.958  0.00  0.00    -0.191 NA
ATOM     22  H   UNL     1       4.113  -3.643   5.840  0.00  0.00    +0.148 HD
BRANCH  21  23
ATOM     23  S   UNL     1       5.558  -5.102   4.802  0.00  0.00    +0.058 S 
ATOM     24  O   UNL     1       5.910  -5.502   6.120  0.00  0.00    -0.153 OA
ATOM     25  O   UNL     1       5.061  -6.017   3.836  0.00  0.00    -0.153 OA
BRANCH  23  26
ATOM     26  C   UNL     1       6.992  -4.357   4.101  0.00  0.00    +0.105 A 
ATOM     27  C   UNL     1       7.149  -4.318   2.728  0.00  0.00    +0.030 A 
ATOM     28  C   UNL     1       8.272  -3.729   2.178  0.00  0.00    +0.022 A 
ATOM     29  C   UNL     1       9.243  -3.188   3.001  0.00  0.00    +0.041 A 
ATOM     30  C   UNL     1       9.088  -3.232   4.375  0.00  0.00    +0.022 A 
ATOM     31  C   UNL     1       7.963  -3.817   4.924  0.00  0.00    +0.030 A 
ATOM     32 CL   UNL     1      10.657  -2.454   2.310  0.00  0.00    -0.084 Cl
ENDBRANCH  23  26
ENDBRANCH  21  23
ENDBRANCH  20  21
ENDBRANCH   1  20
TORSDOF 6
