REMARK  Name = ZINC03875233
REMARK  11 active torsions:
REMARK  status: ('A' for Active; 'I' for Inactive)
REMARK    1  A    between atoms: C_1  and  C_2
REMARK    2  A    between atoms: C_10  and  O_36
REMARK    3  A    between atoms: C_21  and  N_75
REMARK    4  A    between atoms: C_23  and  C_24
REMARK    5  A    between atoms: C_23  and  N_75
REMARK    6  A    between atoms: C_24  and  C_25
REMARK    7  A    between atoms: C_25  and  C_26
REMARK    8  A    between atoms: C_26  and  C_27
REMARK    9  A    between atoms: C_27  and  C_28
REMARK   10  A    between atoms: C_28  and  N_29
REMARK   11  A    between atoms: O_36  and  C_37
REMARK                            x       y       z     vdW  Elec       q    Type
REMARK                         _______ _______ _______ _____ _____    ______ ____
ROOT
ATOM      1  C   UNL     1      -5.026   4.954   2.712  0.00  0.00    +0.010 C 
ATOM      2  C   UNL     1      -4.939   5.134   1.196  0.00  0.00    -0.041 C 
ATOM      3  C   UNL     1      -3.711   5.944   0.777  0.00  0.00    +0.006 C 
ATOM      4  C   UNL     1      -2.426   5.131   0.930  0.00  0.00    +0.009 C 
ATOM      5  C   UNL     1      -2.526   3.908   0.017  0.00  0.00    +0.023 C 
ATOM      6  C   UNL     1      -1.242   3.127   0.021  0.00  0.00    -0.041 A 
ATOM      7  C   UNL     1      -0.046   3.831   0.015  0.00  0.00    +0.008 A 
ATOM      8  C   UNL     1       1.161   3.166   0.006  0.00  0.00    +0.046 A 
ATOM      9  C   UNL     1       1.180   1.778   0.000  0.00  0.00    +0.120 A 
ATOM     10  C   UNL     1      -0.013   1.076   0.008  0.00  0.00    +0.049 A 
ATOM     11  C   UNL     1      -1.228   1.748   0.017  0.00  0.00    -0.040 A 
ATOM     12  C   UNL     1      -2.484   0.917   0.055  0.00  0.00    +0.036 C 
ATOM     13  C   UNL     1      -3.708   1.754  -0.315  0.00  0.00    +0.009 C 
ATOM     14  C   UNL     1      -3.678   3.038   0.513  0.00  0.00    +0.000 C 
ATOM     15  C   UNL     1      -4.988   3.780   0.460  0.00  0.00    -0.003 C 
ATOM     16  C   UNL     1      -5.396   4.168  -0.974  0.00  0.00    +0.003 C 
ATOM     17  C   UNL     1      -6.448   5.281  -0.760  0.00  0.00    -0.015 C 
ATOM     18  C   UNL     1      -6.178   5.880   0.633  0.00  0.00    -0.066 C 
ENDROOT
BRANCH  18  19
ATOM     19  N   UNL     1      -5.883   7.320   0.517  0.00  0.00    +0.381 N 
ATOM     20  H   UNL     1      -5.386   7.495  -0.364  0.00  0.00    -0.086 HD
ATOM     21  H   UNL     1      -5.293   7.610   1.306  0.00  0.00    -0.086 HD
BRANCH  19  22
ATOM     22  C   UNL     1      -7.134   8.102   0.532  0.00  0.00    -0.082 C 
BRANCH  22  23
ATOM     23  C   UNL     1      -6.798   9.589   0.411  0.00  0.00    -0.019 C 
BRANCH  23  24
ATOM     24  C   UNL     1      -8.091  10.408   0.426  0.00  0.00    -0.002 C 
BRANCH  24  25
ATOM     25  C   UNL     1      -7.754  11.895   0.305  0.00  0.00    +0.001 C 
BRANCH  25  26
ATOM     26  C   UNL     1      -9.047  12.713   0.320  0.00  0.00    +0.019 C 
BRANCH  26  27
ATOM     27  C   UNL     1      -8.710  14.201   0.199  0.00  0.00    +0.116 C 
BRANCH  27  28
ATOM     28  N   UNL     1      -9.948  14.985   0.213  0.00  0.00    -0.242 N 
ATOM     29  C   UNL     1     -10.619  15.299  -0.901  0.00  0.00    +0.222 C 
ATOM     30  O   UNL     1     -10.297  14.986  -2.027  0.00  0.00    -0.275 OA
ATOM     31  C   UNL     1     -11.845  16.106  -0.533  0.00  0.00    +0.105 C 
ATOM     32  C   UNL     1     -11.761  16.212   1.003  0.00  0.00    +0.105 C 
ATOM     33  C   UNL     1     -10.498  15.449   1.342  0.00  0.00    +0.222 C 
ATOM     34  O   UNL     1     -10.055  15.285   2.458  0.00  0.00    -0.275 OA
ENDBRANCH  27  28
ENDBRANCH  26  27
ENDBRANCH  25  26
ENDBRANCH  24  25
ENDBRANCH  23  24
ENDBRANCH  22  23
ENDBRANCH  19  22
ENDBRANCH  18  19
BRANCH   9  35
ATOM     35  O   UNL     1       2.364   1.112  -0.013  0.00  0.00    -0.495 OA
ATOM     36  C   UNL     1       3.554   1.903  -0.021  0.00  0.00    +0.277 C 
ENDBRANCH   9  35
TORSDOF 9
