REMARK  Name = ZINC35954656
REMARK  13 active torsions:
REMARK  status: ('A' for Active; 'I' for Inactive)
REMARK    1  A    between atoms: C_1  and  C_2
REMARK    2  A    between atoms: C_2  and  C_3
REMARK    3  A    between atoms: C_4  and  C_22
REMARK    4  A    between atoms: C_5  and  N_15
REMARK    5  A    between atoms: N_6  and  C_8
REMARK    6  A    between atoms: C_12  and  C_14
REMARK    7  A    between atoms: N_18  and  C_21
REMARK    8  A    between atoms: C_22  and  N_23
REMARK    9  A    between atoms: N_23  and  C_24
REMARK   10  A    between atoms: N_23  and  C_33
REMARK   11  A    between atoms: C_24  and  C_25
REMARK   12  A    between atoms: C_28  and  C_32
REMARK   13  A    between atoms: C_30  and  O_31
REMARK                            x       y       z     vdW  Elec       q    Type
REMARK                         _______ _______ _______ _____ _____    ______ ____
ROOT
ATOM      1  C   UNL     1       0.054   0.791  -0.332  0.00  0.00    +0.066 A 
ATOM      2  C   UNL     1      -0.330   0.599  -1.662  0.00  0.00    -0.001 A 
ATOM      3  C   UNL     1       0.581  -0.229  -2.244  0.00  0.00    +0.126 A 
ATOM      4  N   UNL     1       1.509  -0.543  -1.299  0.00  0.00    -0.218 N 
ATOM      5  N   UNL     1       1.153   0.115  -0.115  0.00  0.00    -0.169 NA
ENDROOT
BRANCH   3   6
ATOM      6  N   UNL     1       0.567  -0.672  -3.563  0.00  0.00    -0.318 N 
ATOM      7  C   UNL     1       1.724  -0.458  -4.446  0.00  0.00    +0.088 C 
ATOM      8  C   UNL     1       2.088  -1.794  -5.103  0.00  0.00    -0.060 C 
ATOM      9  N   UNL     1       0.906  -2.345  -5.776  0.00  0.00    +0.380 N 
ATOM     10  C   UNL     1      -0.132  -2.661  -4.787  0.00  0.00    -0.060 C 
ATOM     11  C   UNL     1      -0.604  -1.373  -4.113  0.00  0.00    +0.088 C 
ATOM     12  C   UNL     1       1.281  -3.569  -6.497  0.00  0.00    -0.096 C 
ATOM     13  H   UNL     1       0.547  -1.667  -6.433  0.00  0.00    -0.082 HD
ENDBRANCH   3   6
BRANCH   4  14
ATOM     14  C   UNL     1       2.623  -1.374  -1.480  0.00  0.00    +0.068 A 
ATOM     15  C   UNL     1       2.494  -2.571  -2.173  0.00  0.00    +0.028 A 
ATOM     16  C   UNL     1       3.594  -3.386  -2.350  0.00  0.00    +0.002 A 
ATOM     17  C   UNL     1       4.823  -3.013  -1.837  0.00  0.00    +0.003 A 
ATOM     18  C   UNL     1       4.955  -1.823  -1.146  0.00  0.00    -0.048 A 
ATOM     19  C   UNL     1       3.860  -1.000  -0.971  0.00  0.00    +0.031 A 
ATOM     20  C   UNL     1       6.296  -1.421  -0.588  0.00  0.00    +0.044 C 
ENDBRANCH   4  14
BRANCH   1  22
ATOM     21  C   UNL     1      -0.134   3.071   0.625  0.00  0.00    +0.010 C 
ATOM     22  C   UNL     1      -0.671   1.640   0.680  0.00  0.00    +0.054 C 
ENDBRANCH   1  22
BRANCH   2  23
ATOM     23  C   UNL     1      -1.538   1.201  -2.333  0.00  0.00    -0.037 C 
BRANCH  23  24
ATOM     24  N   UNL     1      -1.213   2.555  -2.801  0.00  0.00    +0.387 N 
ATOM     25  H   UNL     1      -0.832   3.093  -2.038  0.00  0.00    -0.080 HD
BRANCH  24  26
ATOM     26  C   UNL     1      -0.225   2.474  -3.885  0.00  0.00    -0.068 C 
ATOM     27  C   UNL     1       1.224   2.831  -3.547  0.00  0.00    -0.017 C 
ATOM     28  C   UNL     1       0.378   3.787  -4.390  0.00  0.00    -0.017 C 
ENDBRANCH  24  26
BRANCH  24  29
ATOM     29  C   UNL     1      -2.433   3.206  -3.299  0.00  0.00    -0.038 C 
BRANCH  29  30
ATOM     30  C   UNL     1      -2.142   4.654  -3.599  0.00  0.00    -0.022 A 
ATOM     31  C   UNL     1      -2.169   5.590  -2.583  0.00  0.00    +0.005 A 
ATOM     32  C   UNL     1      -1.903   6.918  -2.858  0.00  0.00    +0.004 A 
ATOM     33  C   UNL     1      -1.610   7.314  -4.150  0.00  0.00    -0.047 A 
ATOM     34  C   UNL     1      -1.581   6.382  -5.170  0.00  0.00    +0.049 A 
ATOM     35  C   UNL     1      -1.843   5.047  -4.895  0.00  0.00    +0.118 A 
ATOM     36  C   UNL     1      -1.321   8.763  -4.447  0.00  0.00    +0.044 C 
BRANCH  35  37
ATOM     37  O   UNL     1      -1.810   4.127  -5.895  0.00  0.00    -0.507 OA
ATOM     38  H   UNL     1      -2.658   4.000  -6.341  0.00  0.00    +0.292 HD
ENDBRANCH  35  37
ENDBRANCH  29  30
ENDBRANCH  24  29
ENDBRANCH  23  24
ENDBRANCH   2  23
TORSDOF 9
