REMARK  Name = ZINC36016887
REMARK  13 active torsions:
REMARK  status: ('A' for Active; 'I' for Inactive)
REMARK    1  A    between atoms: C_1  and  C_2
REMARK    2  A    between atoms: C_2  and  O_3
REMARK    3  A    between atoms: O_3  and  C_4
REMARK    4  A    between atoms: C_4  and  C_6
REMARK    5  A    between atoms: C_7  and  C_22
REMARK    6  A    between atoms: N_8  and  C_19
REMARK    7  A    between atoms: C_12  and  C_14
REMARK    8  A    between atoms: C_19  and  C_20
REMARK    9  A    between atoms: C_22  and  N_23
REMARK   10  A    between atoms: N_31  and  C_32
REMARK   11  A    between atoms: C_32  and  C_33
REMARK   12  A    between atoms: C_32  and  C_34
REMARK   13  A    between atoms: C_32  and  C_35
REMARK                            x       y       z     vdW  Elec       q    Type
REMARK                         _______ _______ _______ _____ _____    ______ ____
ROOT
ATOM      1  C   UNL     1      -2.527  -2.529   0.267  0.00  0.00    +0.080 C 
ATOM      2  C   UNL     1      -2.802  -3.801  -0.094  0.00  0.00    +0.041 C 
ATOM      3  N   UNL     1      -4.090  -4.239  -0.207  0.00  0.00    -0.254 N 
ATOM      4  C   UNL     1      -5.160  -3.467   0.022  0.00  0.00    +0.307 C 
ATOM      5  O   UNL     1      -6.270  -3.946  -0.105  0.00  0.00    -0.252 OA
ATOM      6  N   UNL     1      -5.046  -2.175   0.390  0.00  0.00    -0.288 N 
ATOM      7  C   UNL     1      -3.697  -1.607   0.546  0.00  0.00    +0.144 C 
ATOM      8  H   UNL     1      -5.835  -1.633   0.550  0.00  0.00    +0.151 HD
ENDROOT
BRANCH   7   9
ATOM      9  C   UNL     1      -3.562  -1.101   1.959  0.00  0.00    -0.015 A 
ATOM     10  C   UNL     1      -3.050   0.160   2.207  0.00  0.00    +0.013 A 
ATOM     11  C   UNL     1      -2.942   0.585   3.489  0.00  0.00    +0.045 A 
ATOM     12  S   UNL     1      -3.574  -0.816   4.397  0.00  0.00    -0.105 S 
ATOM     13  C   UNL     1      -3.945  -1.872   3.006  0.00  0.00    +0.051 A 
ENDBRANCH   7   9
BRANCH   1  14
ATOM     14  C   UNL     1      -1.193  -2.074   0.385  0.00  0.00    +0.339 C 
ATOM     15  O   UNL     1      -0.269  -2.842   0.189  0.00  0.00    -0.245 OA
BRANCH  14  16
ATOM     16  O   UNL     1      -0.945  -0.790   0.715  0.00  0.00    -0.462 OA
BRANCH  16  18
ATOM     17  C   UNL     1       0.508   1.081   1.197  0.00  0.00    +0.048 C 
ATOM     18  C   UNL     1       0.426  -0.399   0.817  0.00  0.00    +0.229 C 
ENDBRANCH  16  18
ENDBRANCH  14  16
ENDBRANCH   1  14
BRANCH   3  19
ATOM     19  C   UNL     1      -4.315  -5.632  -0.602  0.00  0.00    +0.141 C 
BRANCH  19  20
ATOM     20  C   UNL     1      -4.477  -6.484   0.630  0.00  0.00    -0.015 C 
ATOM     21  C   UNL     1      -5.536  -7.242   0.768  0.00  0.00    +0.005 C 
ENDBRANCH  19  20
ENDBRANCH   3  19
BRANCH   2  22
ATOM     22  C   UNL     1      -1.668  -4.753  -0.376  0.00  0.00    +0.136 C 
BRANCH  22  23
ATOM     23  N   UNL     1      -1.378  -4.756  -1.816  0.00  0.00    -0.294 NA
ATOM     24  C   UNL     1      -0.759  -3.490  -2.231  0.00  0.00    +0.104 C 
ATOM     25  C   UNL     1      -0.639  -3.460  -3.758  0.00  0.00    +0.124 C 
ATOM     26  N   UNL     1       0.071  -4.671  -4.194  0.00  0.00    -0.283 N 
ATOM     27  C   UNL     1      -0.409  -5.973  -3.707  0.00  0.00    +0.124 C 
ATOM     28  C   UNL     1      -0.538  -5.904  -2.181  0.00  0.00    +0.104 C 
ATOM     29  C   UNL     1       1.134  -4.591  -5.020  0.00  0.00    +0.303 C 
ATOM     30  O   UNL     1       1.574  -3.503  -5.340  0.00  0.00    -0.253 OA
ATOM     31  N   UNL     1       1.708  -5.715  -5.490  0.00  0.00    -0.294 N 
ATOM     32  H   UNL     1       1.314  -6.580  -5.295  0.00  0.00    +0.151 HD
BRANCH  31  33
ATOM     33  C   UNL     1       2.929  -5.632  -6.297  0.00  0.00    +0.028 C 
ATOM     34  C   UNL     1       4.037  -4.966  -5.478  0.00  0.00    +0.031 C 
ATOM     35  C   UNL     1       3.370  -7.041  -6.701  0.00  0.00    +0.031 C 
ATOM     36  C   UNL     1       2.655  -4.804  -7.553  0.00  0.00    +0.031 C 
ENDBRANCH  31  33
ENDBRANCH  22  23
ENDBRANCH   2  22
TORSDOF 9
