REMARK  Name = ZINC49121196
REMARK  7 active torsions:
REMARK  status: ('A' for Active; 'I' for Inactive)
REMARK    1  A    between atoms: C_1  and  C_2
REMARK    2  A    between atoms: C_2  and  C_3
REMARK    3  A    between atoms: C_9  and  N_11
REMARK    4  A    between atoms: N_11  and  C_12
REMARK    5  A    between atoms: C_17  and  S_18
REMARK    6  A    between atoms: S_18  and  N_21
REMARK    7  A    between atoms: N_21  and  C_22
REMARK                            x       y       z     vdW  Elec       q    Type
REMARK                         _______ _______ _______ _____ _____    ______ ____
ROOT
ATOM      1  C   UNL     1       1.245  -3.451  -0.192  0.00  0.00    +0.054 A 
ATOM      2  C   UNL     1      -0.103  -3.719   0.011  0.00  0.00    +0.025 A 
ATOM      3  C   UNL     1      -0.663  -4.869  -0.508  0.00  0.00    +0.002 A 
ATOM      4  C   UNL     1       0.116  -5.755  -1.229  0.00  0.00    +0.002 A 
ATOM      5  C   UNL     1       1.458  -5.493  -1.433  0.00  0.00    +0.030 A 
ATOM      6  C   UNL     1       2.024  -4.341  -0.922  0.00  0.00    +0.126 A 
ENDROOT
BRANCH   6   7
ATOM      7  S   UNL     1       3.732  -4.003  -1.189  0.00  0.00    +0.060 S 
ATOM      8  O   UNL     1       4.256  -3.553   0.053  0.00  0.00    -0.153 OA
ATOM      9  O   UNL     1       4.265  -5.126  -1.878  0.00  0.00    -0.153 OA
BRANCH   7  10
ATOM     10  N   UNL     1       3.821  -2.721  -2.233  0.00  0.00    -0.193 NA
ATOM     11  C   UNL     1       3.217  -1.437  -1.869  0.00  0.00    +0.127 C 
ATOM     12  H   UNL     1       4.273  -2.820  -3.085  0.00  0.00    +0.148 HD
ENDBRANCH   7  10
ENDBRANCH   6   7
BRANCH   1  13
ATOM     13  N   UNL     1       1.815  -2.288   0.331  0.00  0.00    -0.339 N 
ATOM     14  H   UNL     1       2.715  -2.032   0.075  0.00  0.00    +0.146 HD
BRANCH  13  20
ATOM     15  C   UNL     1       1.580  -0.020   1.215  0.00  0.00    +0.009 C 
ATOM     16  C   UNL     1       0.784   0.849   2.191  0.00  0.00    +0.005 C 
ATOM     17  C   UNL     1       0.942   0.298   3.610  0.00  0.00    +0.000 C 
ATOM     18  C   UNL     1       0.415  -1.138   3.660  0.00  0.00    +0.002 C 
ATOM     19  C   UNL     1       1.210  -2.007   2.684  0.00  0.00    +0.022 C 
ATOM     20  C   UNL     1       1.053  -1.456   1.265  0.00  0.00    +0.074 C 
BRANCH  15  22
ATOM     21  C   UNL     1       2.119   1.889  -0.303  0.00  0.00    +0.004 C 
ATOM     22  C   UNL     1       1.423   0.531  -0.204  0.00  0.00    +0.002 C 
ENDBRANCH  15  22
ENDBRANCH  13  20
ENDBRANCH   1  13
TORSDOF 5
