REMARK  Name = ZINC14471770
REMARK  7 active torsions:
REMARK  status: ('A' for Active; 'I' for Inactive)
REMARK    1  A    between atoms: C_1  and  C_2
REMARK    2  A    between atoms: C_5  and  N_9
REMARK    3  A    between atoms: C_6  and  C_8
REMARK    4  A    between atoms: N_9  and  S_10
REMARK    5  A    between atoms: S_10  and  C_13
REMARK    6  A    between atoms: C_26  and  C_29
REMARK    7  A    between atoms: C_33  and  N_35
REMARK                            x       y       z     vdW  Elec       q    Type
REMARK                         _______ _______ _______ _____ _____    ______ ____
ROOT
ATOM      1  C   UNL     1      -1.450   3.455   0.163  0.00  0.00    +0.109 A 
ATOM      2  C   UNL     1      -0.263   4.163   0.226  0.00  0.00    +0.030 A 
ATOM      3  C   UNL     1       0.936   3.481   0.289  0.00  0.00    +0.025 A 
ATOM      4  C   UNL     1       0.947   2.092   0.290  0.00  0.00    +0.031 A 
ATOM      5  C   UNL     1      -0.240   1.379   0.229  0.00  0.00    -0.018 A 
ATOM      6  C   UNL     1      -1.439   2.076   0.158  0.00  0.00    +0.034 A 
ATOM      7  C   UNL     1      -0.277  -0.116   0.230  0.00  0.00    +0.049 C 
ATOM      8  C   UNL     1      -0.582  -0.662  -1.145  0.00  0.00    -0.023 C 
ATOM      9  C   UNL     1       0.089  -1.768  -1.353  0.00  0.00    -0.030 C 
ATOM     10  C   UNL     1       0.932  -2.114  -0.140  0.00  0.00    +0.033 C 
ATOM     11  C   UNL     1       1.078  -0.751   0.597  0.00  0.00    +0.029 C 
ATOM     12  C   UNL     1       2.216   0.016  -0.083  0.00  0.00    +0.105 C 
ATOM     13  N   UNL     1       2.171   1.416   0.351  0.00  0.00    -0.336 N 
ATOM     14  H   UNL     1       2.970   1.863   0.672  0.00  0.00    +0.147 HD
ENDROOT
BRANCH  12  15
ATOM     15  C   UNL     1       3.538  -0.591   0.307  0.00  0.00    -0.025 A 
ATOM     16  C   UNL     1       4.111  -0.277   1.525  0.00  0.00    +0.005 A 
ATOM     17  C   UNL     1       5.322  -0.838   1.885  0.00  0.00    +0.003 A 
ATOM     18  C   UNL     1       5.965  -1.705   1.022  0.00  0.00    +0.033 A 
ATOM     19  C   UNL     1       5.395  -2.016  -0.198  0.00  0.00    +0.127 A 
ATOM     20  C   UNL     1       4.182  -1.458  -0.556  0.00  0.00    +0.038 A 
BRANCH  19  21
ATOM     21  N   UNL     1       6.084  -2.945  -1.122  0.00  0.00    +0.056 N 
ATOM     22  O   UNL     1       5.582  -3.218  -2.197  0.00  0.00    -0.126 OA
ATOM     23  O   UNL     1       7.154  -3.436  -0.806  0.00  0.00    -0.126 OA
ENDBRANCH  19  21
ENDBRANCH  12  15
BRANCH   1  24
ATOM     24  S   UNL     1      -2.983   4.320   0.079  0.00  0.00    +0.072 S 
ATOM     25  O   UNL     1      -3.977   3.435   0.578  0.00  0.00    -0.150 OA
ATOM     26  O   UNL     1      -2.756   5.605   0.642  0.00  0.00    -0.150 OA
BRANCH  24  27
ATOM     27  N   UNL     1      -3.324   4.559  -1.524  0.00  0.00    -0.216 N 
ATOM     28  H   UNL     1      -3.415   5.460  -1.871  0.00  0.00    +0.174 HD
BRANCH  27  33
ATOM     29  C   UNL     1      -3.954   0.109  -4.981  0.00  0.00    +0.044 C 
ATOM     30  C   UNL     1      -3.787   1.292  -4.062  0.00  0.00    -0.050 A 
ATOM     31  C   UNL     1      -4.229   1.217  -2.754  0.00  0.00    +0.005 A 
ATOM     32  C   UNL     1      -4.072   2.297  -1.908  0.00  0.00    +0.025 A 
ATOM     33  C   UNL     1      -3.480   3.463  -2.376  0.00  0.00    +0.051 A 
ATOM     34  C   UNL     1      -3.037   3.535  -3.690  0.00  0.00    -0.028 A 
ATOM     35  C   UNL     1      -3.192   2.449  -4.530  0.00  0.00    +0.008 A 
ATOM     36  C   UNL     1      -2.388   4.796  -4.200  0.00  0.00    +0.046 C 
ENDBRANCH  27  33
ENDBRANCH  24  27
ENDBRANCH   1  24
TORSDOF 5
