REMARK  Name = ZINC06465934
REMARK  6 active torsions:
REMARK  status: ('A' for Active; 'I' for Inactive)
REMARK    1  A    between atoms: C_4  and  C_7
REMARK    2  A    between atoms: C_7  and  C_8
REMARK    3  A    between atoms: C_8  and  C_25
REMARK    4  A    between atoms: N_11  and  C_15
REMARK    5  A    between atoms: C_15  and  C_16
REMARK    6  A    between atoms: N_18  and  C_19
REMARK                            x       y       z     vdW  Elec       q    Type
REMARK                         _______ _______ _______ _____ _____    ______ ____
ROOT
ATOM      1  C   UNL     1       2.922   0.806  -1.464  0.00  0.00    +0.142 C 
ATOM      2  C   UNL     1       1.831   0.086  -2.232  0.00  0.00    +0.252 C 
ATOM      3  O   UNL     1       1.376  -1.014  -2.001  0.00  0.00    -0.272 OA
ATOM      4  N   UNL     1       1.474   0.922  -3.227  0.00  0.00    -0.215 N 
ATOM      5  C   UNL     1       2.179   2.058  -3.194  0.00  0.00    +0.310 C 
ATOM      6  O   UNL     1       2.035   2.966  -3.989  0.00  0.00    -0.252 OA
ATOM      7  N   UNL     1       3.065   2.084  -2.182  0.00  0.00    -0.281 N 
ATOM      8  H   UNL     1       3.801   2.827  -1.841  0.00  0.00    +0.152 HD
ENDROOT
BRANCH   1   9
ATOM      9  C   UNL     1       4.210   0.025  -1.508  0.00  0.00    -0.015 A 
ATOM     10  C   UNL     1       4.513  -0.867  -0.496  0.00  0.00    +0.006 A 
ATOM     11  C   UNL     1       5.692  -1.586  -0.539  0.00  0.00    +0.000 A 
ATOM     12  C   UNL     1       6.574  -1.406  -1.589  0.00  0.00    +0.000 A 
ATOM     13  C   UNL     1       6.273  -0.511  -2.598  0.00  0.00    +0.000 A 
ATOM     14  C   UNL     1       5.091   0.205  -2.557  0.00  0.00    +0.006 A 
ENDBRANCH   1   9
BRANCH   1  15
ATOM     15  C   UNL     1       2.490   1.048  -0.016  0.00  0.00    +0.075 C 
BRANCH  15  19
ATOM     16  C   UNL     1      -1.238   3.133   0.029  0.00  0.00    +0.000 A 
ATOM     17  C   UNL     1      -1.219   1.751   0.017  0.00  0.00    +0.000 A 
ATOM     18  C   UNL     1      -0.013   1.076   0.008  0.00  0.00    +0.004 A 
ATOM     19  C   UNL     1       1.175   1.783   0.000  0.00  0.00    -0.045 A 
ATOM     20  C   UNL     1       1.156   3.165   0.008  0.00  0.00    +0.004 A 
ATOM     21  C   UNL     1      -0.050   3.840   0.022  0.00  0.00    +0.000 A 
ENDBRANCH  15  19
ENDBRANCH   1  15
BRANCH   4  22
ATOM     22  C   UNL     1       0.440   0.624  -4.220  0.00  0.00    +0.213 C 
BRANCH  22  23
ATOM     23  C   UNL     1       1.066  -0.063  -5.406  0.00  0.00    +0.231 C 
ATOM     24  O   UNL     1       2.259  -0.283  -5.420  0.00  0.00    -0.274 OA
ATOM     25  N   UNL     1       0.300  -0.434  -6.452  0.00  0.00    -0.311 N 
ATOM     26  H   UNL     1      -0.781  -0.236  -6.439  0.00  0.00    +0.149 HD
BRANCH  25  27
ATOM     27  C   UNL     1       0.909  -1.103  -7.605  0.00  0.00    +0.073 C 
ATOM     28  C   UNL     1       1.461  -0.052  -8.570  0.00  0.00    +0.022 C 
ATOM     29  C   UNL     1       2.097  -0.750  -9.774  0.00  0.00    +0.002 C 
ATOM     30  C   UNL     1       1.042  -1.595 -10.490  0.00  0.00    +0.000 C 
ATOM     31  C   UNL     1       0.489  -2.646  -9.524  0.00  0.00    +0.002 C 
ATOM     32  C   UNL     1      -0.146  -1.948  -8.320  0.00  0.00    +0.022 C 
ENDBRANCH  25  27
ENDBRANCH  22  23
ENDBRANCH   4  22
TORSDOF 6
