REMARK  Name = ZINC12737042
REMARK  8 active torsions:
REMARK  status: ('A' for Active; 'I' for Inactive)
REMARK    1  A    between atoms: C_1  and  N_52
REMARK    2  A    between atoms: C_2  and  C_3
REMARK    3  A    between atoms: C_2  and  N_52
REMARK    4  A    between atoms: C_6  and  S_9
REMARK    5  A    between atoms: S_9  and  C_10
REMARK    6  A    between atoms: C_11  and  C_12
REMARK    7  A    between atoms: C_11  and  N_52
REMARK    8  A    between atoms: C_25  and  C_27
REMARK                            x       y       z     vdW  Elec       q    Type
REMARK                         _______ _______ _______ _____ _____    ______ ____
ROOT
ATOM      1  C   UNL     1      -0.016   1.344   0.009  0.00  0.00    +0.204 C 
ATOM      2  O   UNL     1       1.026   1.964   0.003  0.00  0.00    -0.277 OA
ATOM      3  N   UNL     1       0.002  -0.004   0.002  0.00  0.00    -0.259 N 
ATOM      4  C   UNL     1      -1.195  -0.734   0.009  0.00  0.00    +0.058 A 
ATOM      5  C   UNL     1      -1.978  -0.794   1.150  0.00  0.00    +0.025 A 
ATOM      6  C   UNL     1      -3.144  -1.538   1.145  0.00  0.00    +0.002 A 
ATOM      7  C   UNL     1      -3.529  -2.224   0.008  0.00  0.00    +0.002 A 
ATOM      8  C   UNL     1      -2.756  -2.162  -1.137  0.00  0.00    +0.025 A 
ATOM      9  C   UNL     1      -1.593  -1.410  -1.144  0.00  0.00    +0.055 A 
ATOM     10  N   UNL     1      -0.825  -1.287  -2.308  0.00  0.00    -0.284 N 
ATOM     11  C   UNL     1       0.513  -1.468  -2.267  0.00  0.00    +0.219 C 
ATOM     12  O   UNL     1       1.177  -1.277  -3.264  0.00  0.00    -0.275 OA
ATOM     13  C   UNL     1       1.185  -1.905  -0.992  0.00  0.00    +0.128 C 
ATOM     14  C   UNL     1       1.272  -0.732  -0.020  0.00  0.00    +0.194 C 
ATOM     15  H   UNL     1      -1.256  -1.070  -3.149  0.00  0.00    +0.155 HD
ENDROOT
BRANCH  14  16
ATOM     16  C   UNL     1       1.579  -1.262   1.382  0.00  0.00    +0.409 C 
ATOM     17  F   UNL     1       0.555  -2.122   1.790  0.00  0.00    -0.169 F 
ATOM     18  F   UNL     1       2.793  -1.958   1.362  0.00  0.00    -0.169 F 
ATOM     19  F   UNL     1       1.671  -0.189   2.276  0.00  0.00    -0.169 F 
ENDBRANCH  14  16
BRANCH   1  20
ATOM     20  C   UNL     1      -1.331   2.079   0.020  0.00  0.00    +0.019 C 
BRANCH  20  22
ATOM     21  C   UNL     1      -0.451   3.958  -1.228  0.00  0.00    -0.095 C 
ATOM     22  N   UNL     1      -1.064   3.533   0.048  0.00  0.00    +0.386 N 
ATOM     23  H   UNL     1      -0.414   3.738   0.816  0.00  0.00    -0.081 HD
BRANCH  22  24
ATOM     24  C   UNL     1      -2.323   4.273   0.274  0.00  0.00    -0.043 C 
BRANCH  24  25
ATOM     25  C   UNL     1      -1.997   5.724   0.518  0.00  0.00    -0.064 A 
ATOM     26  C   UNL     1      -1.750   6.169   1.804  0.00  0.00    +0.003 A 
ATOM     27  C   UNL     1      -1.445   7.497   2.031  0.00  0.00    +0.015 A 
ATOM     28  C   UNL     1      -1.397   8.388   0.966  0.00  0.00    +0.008 A 
ATOM     29  C   UNL     1      -1.651   7.939  -0.325  0.00  0.00    +0.015 A 
ATOM     30  C   UNL     1      -1.950   6.608  -0.544  0.00  0.00    +0.003 A 
BRANCH  28  31
ATOM     31  S   UNL     1      -1.015  10.085   1.250  0.00  0.00    -0.129 S 
ATOM     32  C   UNL     1      -0.769  10.184   3.045  0.00  0.00    +0.090 C 
ENDBRANCH  28  31
ENDBRANCH  24  25
ENDBRANCH  22  24
ENDBRANCH  20  22
ENDBRANCH   1  20
TORSDOF 6
