REMARK  Name = ZINC55173919
REMARK  3 active torsions:
REMARK  status: ('A' for Active; 'I' for Inactive)
REMARK    1  A    between atoms: C_1  and  C_2
REMARK    2  A    between atoms: C_3  and  C_8
REMARK    3  A    between atoms: C_14  and  C_16
REMARK                            x       y       z     vdW  Elec       q    Type
REMARK                         _______ _______ _______ _____ _____    ______ ____
ROOT
ATOM      1  C   UNL     1       0.313  -0.675  -2.541  0.00  0.00    +0.255 C 
ATOM      2  O   UNL     1       0.337   0.542  -2.580  0.00  0.00    -0.269 OA
ATOM      3  N   UNL     1       0.141  -1.382  -3.676  0.00  0.00    -0.294 N 
ATOM      4  C   UNL     1       0.176  -2.852  -3.786  0.00  0.00    +0.108 C 
ATOM      5  C   UNL     1      -0.656  -3.174  -5.053  0.00  0.00    +0.021 C 
ATOM      6  C   UNL     1      -0.268  -1.998  -5.987  0.00  0.00    +0.024 C 
ATOM      7  C   UNL     1      -0.117  -0.815  -5.008  0.00  0.00    +0.079 C 
ENDROOT
BRANCH   1  10
ATOM      8  C   UNL     1       0.729   0.634   0.260  0.00  0.00    +0.067 C 
ATOM      9  C   UNL     1       0.658  -0.851   0.009  0.00  0.00    +0.060 A 
ATOM     10  C   UNL     1       0.472  -1.369  -1.264  0.00  0.00    +0.098 A 
ATOM     11  S   UNL     1       0.478  -3.119  -0.911  0.00  0.00    -0.048 S 
ATOM     12  C   UNL     1       0.708  -3.021   0.754  0.00  0.00    +0.156 A 
ATOM     13  N   UNL     1       0.775  -1.721   0.981  0.00  0.00    -0.230 NA
ATOM     14  N   UNL     1       0.808  -4.052   1.663  0.00  0.00    -0.337 N 
ATOM     15  H   UNL     1       0.745  -4.972   1.363  0.00  0.00    +0.144 HD
ATOM     16  H   UNL     1       0.941  -3.857   2.604  0.00  0.00    +0.144 HD
ENDBRANCH   1  10
BRANCH   7  17
ATOM     17  C   UNL     1       1.058   0.066  -5.436  0.00  0.00    +0.010 C 
ATOM     18  C   UNL     1       2.344  -0.763  -5.433  0.00  0.00    +0.005 C 
ATOM     19  C   UNL     1       3.519   0.118  -5.862  0.00  0.00    +0.000 C 
ATOM     20  C   UNL     1       3.264   0.659  -7.270  0.00  0.00    +0.000 C 
ATOM     21  C   UNL     1       1.978   1.488  -7.272  0.00  0.00    +0.000 C 
ATOM     22  C   UNL     1       0.803   0.607  -6.844  0.00  0.00    +0.005 C 
ENDBRANCH   7  17
TORSDOF 2
