REMARK  Name = ZINC59089103
REMARK  14 active torsions:
REMARK  status: ('A' for Active; 'I' for Inactive)
REMARK    1  A    between atoms: C_1  and  C_2
REMARK    2  A    between atoms: C_5  and  C_7
REMARK    3  A    between atoms: C_7  and  N_8
REMARK    4  A    between atoms: N_8  and  C_9
REMARK    5  A    between atoms: N_8  and  C_19
REMARK    6  A    between atoms: C_11  and  C_17
REMARK    7  A    between atoms: C_11  and  C_18
REMARK    8  A    between atoms: C_13  and  C_15
REMARK    9  A    between atoms: C_13  and  C_16
REMARK   10  A    between atoms: C_19  and  N_21
REMARK   11  A    between atoms: N_21  and  C_22
REMARK   12  A    between atoms: C_27  and  C_28
REMARK   13  A    between atoms: C_28  and  O_30
REMARK   14  A    between atoms: O_30  and  C_31
REMARK                            x       y       z     vdW  Elec       q    Type
REMARK                         _______ _______ _______ _____ _____    ______ ____
ROOT
ATOM      1  N   UNL     1       2.652  -3.376  -1.448  0.00  0.00    -0.302 N 
ENDROOT
BRANCH   1   2
ATOM      2  C   UNL     1       3.997  -3.051  -1.939  0.00  0.00    +0.073 C 
ATOM      3  C   UNL     1       4.992  -3.148  -0.781  0.00  0.00    +0.009 C 
ATOM      4  C   UNL     1       6.396  -2.800  -1.274  0.00  0.00    -0.072 C 
ATOM      5  N   UNL     1       6.439  -1.507  -1.941  0.00  0.00    +0.386 N 
ATOM      6  C   UNL     1       5.408  -1.220  -2.925  0.00  0.00    -0.072 C 
ATOM      7  C   UNL     1       4.009  -1.616  -2.464  0.00  0.00    +0.009 C 
ATOM      8  C   UNL     1       5.399   0.310  -3.155  0.00  0.00    -0.010 C 
ATOM      9  C   UNL     1       5.716  -1.873  -4.275  0.00  0.00    -0.010 C 
ATOM     10  C   UNL     1       6.938  -3.922  -2.159  0.00  0.00    -0.010 C 
ATOM     11  C   UNL     1       7.311  -2.715  -0.030  0.00  0.00    -0.010 C 
ATOM     12  H   UNL     1       6.413  -0.777  -1.225  0.00  0.00    -0.084 HD
ATOM     13  H   UNL     1       7.352  -1.409  -2.392  0.00  0.00    -0.084 HD
ENDBRANCH   1   2
BRANCH   1  14
ATOM     14  C   UNL     1       1.982  -4.427  -1.961  0.00  0.00    +0.138 C 
ATOM     15  S   UNL     1       0.364  -4.725  -1.487  0.00  0.00    -0.018 S 
BRANCH  14  16
ATOM     16  N   UNL     1       2.586  -5.243  -2.848  0.00  0.00    -0.296 N 
ATOM     17  H   UNL     1       3.525  -5.120  -3.058  0.00  0.00    +0.154 HD
BRANCH  16  18
ATOM     18  C   UNL     1       1.863  -6.262  -3.460  0.00  0.00    +0.047 A 
ATOM     19  C   UNL     1       0.989  -7.043  -2.715  0.00  0.00    +0.024 A 
ATOM     20  C   UNL     1       0.273  -8.053  -3.325  0.00  0.00    +0.002 A 
ATOM     21  C   UNL     1       0.418  -8.296  -4.681  0.00  0.00    +0.001 A 
ATOM     22  C   UNL     1       1.280  -7.532  -5.437  0.00  0.00    +0.017 A 
ATOM     23  C   UNL     1       2.009  -6.502  -4.835  0.00  0.00    +0.080 A 
BRANCH  23  24
ATOM     24  C   UNL     1       2.929  -5.677  -5.638  0.00  0.00    +0.341 C 
ATOM     25  O   UNL     1       3.605  -4.822  -5.101  0.00  0.00    -0.245 OA
BRANCH  24  26
ATOM     26  O   UNL     1       3.020  -5.871  -6.969  0.00  0.00    -0.464 OA
ATOM     27  C   UNL     1       3.932  -5.036  -7.685  0.00  0.00    +0.280 C 
ENDBRANCH  24  26
ENDBRANCH  23  24
ENDBRANCH  16  18
ENDBRANCH  14  16
ENDBRANCH   1  14
BRANCH   1  28
ATOM     28  C   UNL     1       2.038  -2.557  -0.400  0.00  0.00    +0.181 C 
BRANCH  28  33
ATOM     29  C   UNL     1       0.914   1.954  -2.356  0.00  0.00    +0.086 C 
ATOM     30  C   UNL     1       0.772   0.530  -1.882  0.00  0.00    +0.102 A 
ATOM     31  C   UNL     1      -0.350  -0.209  -1.939  0.00  0.00    +0.045 A 
ATOM     32  C   UNL     1      -0.035  -1.474  -1.391  0.00  0.00    +0.046 A 
ATOM     33  C   UNL     1       1.261  -1.431  -1.032  0.00  0.00    +0.122 A 
ATOM     34  O   UNL     1       1.746  -0.217  -1.337  0.00  0.00    -0.463 OA
ENDBRANCH  28  33
ENDBRANCH   1  28
TORSDOF 8
