REMARK  Name = ZINC48659912
REMARK  5 active torsions:
REMARK  status: ('A' for Active; 'I' for Inactive)
REMARK    1  A    between atoms: C_1  and  C_2
REMARK    2  A    between atoms: C_3  and  S_9
REMARK    3  A    between atoms: N_5  and  C_7
REMARK    4  A    between atoms: S_9  and  O_12
REMARK    5  A    between atoms: O_12  and  C_13
REMARK                            x       y       z     vdW  Elec       q    Type
REMARK                         _______ _______ _______ _____ _____    ______ ____
ROOT
ATOM      1  S   UNL     1       0.004  -0.258  -2.799  0.00  0.00    +0.156 S 
ATOM      2  O   UNL     1      -1.277  -0.205  -3.411  0.00  0.00    -0.131 OA
ATOM      3  O   UNL     1       0.808   0.899  -2.614  0.00  0.00    -0.131 OA
ENDROOT
BRANCH   1   6
ATOM      4  C   UNL     1      -0.825   1.199   0.072  0.00  0.00    +0.070 C 
ATOM      5  C   UNL     1      -0.579  -0.283  -0.039  0.00  0.00    +0.090 A 
ATOM      6  C   UNL     1      -0.227  -0.971  -1.205  0.00  0.00    +0.187 A 
ATOM      7  C   UNL     1      -0.097  -2.282  -0.891  0.00  0.00    +0.155 A 
ATOM      8  N   UNL     1      -0.357  -2.418   0.426  0.00  0.00    -0.254 N 
ATOM      9  N   UNL     1      -0.652  -1.148   0.940  0.00  0.00    -0.173 NA
ATOM     10  C   UNL     1      -0.331  -3.670   1.186  0.00  0.00    +0.174 C 
ATOM     11 CL   UNL     1       0.328  -3.560  -1.988  0.00  0.00    -0.060 Cl
ENDBRANCH   1   6
BRANCH   1  12
ATOM     12  O   UNL     1       0.835  -1.239  -3.615  0.00  0.00    -0.341 OA
BRANCH  12  13
ATOM     13  C   UNL     1       1.363  -0.707  -4.748  0.00  0.00    +0.175 A 
ATOM     14  C   UNL     1       0.614  -0.674  -5.915  0.00  0.00    +0.050 A 
ATOM     15  C   UNL     1       1.153  -0.132  -7.066  0.00  0.00    +0.004 A 
ATOM     16  C   UNL     1       2.439   0.377  -7.056  0.00  0.00    +0.002 A 
ATOM     17  C   UNL     1       3.189   0.345  -5.896  0.00  0.00    +0.024 A 
ATOM     18  C   UNL     1       2.652  -0.190  -4.739  0.00  0.00    +0.085 A 
ATOM     19 CL   UNL     1       3.591  -0.223  -3.280  0.00  0.00    -0.080 Cl
ENDBRANCH  12  13
ENDBRANCH   1  12
TORSDOF 3
