REMARK  Name = ZINC39371487
REMARK  5 active torsions:
REMARK  status: ('A' for Active; 'I' for Inactive)
REMARK    1  A    between atoms: C_4  and  C_7
REMARK    2  A    between atoms: C_7  and  C_8
REMARK    3  A    between atoms: C_13  and  C_14
REMARK    4  A    between atoms: N_17  and  C_20
REMARK    5  A    between atoms: C_20  and  C_21
REMARK                            x       y       z     vdW  Elec       q    Type
REMARK                         _______ _______ _______ _____ _____    ______ ____
ROOT
ATOM      1  C   UNL     1       6.821  -1.100   0.866  0.00  0.00    +0.032 C 
ATOM      2  C   UNL     1       7.240   0.133   1.671  0.00  0.00    -0.009 C 
ATOM      3  C   UNL     1       8.594   0.632   1.161  0.00  0.00    -0.078 C 
ATOM      4  N   UNL     1       9.601  -0.425   1.321  0.00  0.00    +0.382 N 
ATOM      5  C   UNL     1       9.242  -1.584   0.495  0.00  0.00    -0.078 C 
ATOM      6  C   UNL     1       7.913  -2.168   0.979  0.00  0.00    -0.009 C 
ATOM      7  H   UNL     1       9.643  -0.704   2.290  0.00  0.00    -0.081 HD
ENDROOT
BRANCH   1  12
ATOM      8  C   UNL     1       4.171  -0.963   1.399  0.00  0.00    +0.083 C 
ATOM      9  C   UNL     1       3.264  -1.969   2.080  0.00  0.00    +0.117 C 
ATOM     10  N   UNL     1       4.016  -2.976   2.382  0.00  0.00    -0.161 NA
ATOM     11  N   UNL     1       5.338  -2.787   1.992  0.00  0.00    -0.158 NA
ATOM     12  C   UNL     1       5.526  -1.643   1.413  0.00  0.00    +0.053 C 
BRANCH   8  13
ATOM     13  C   UNL     1       3.711  -0.707  -0.038  0.00  0.00    +0.050 C 
BRANCH  13  17
ATOM     14  C   UNL     1      -0.017   1.378   0.010  0.00  0.00    +0.000 A 
ATOM     15  C   UNL     1       1.171   2.086   0.002  0.00  0.00    +0.000 A 
ATOM     16  C   UNL     1       2.377   1.411  -0.013  0.00  0.00    +0.003 A 
ATOM     17  C   UNL     1       2.396   0.029  -0.020  0.00  0.00    -0.046 A 
ATOM     18  C   UNL     1       1.208  -0.679  -0.012  0.00  0.00    +0.003 A 
ATOM     19  C   UNL     1       0.002  -0.004   0.002  0.00  0.00    +0.000 A 
ENDBRANCH  13  17
ENDBRANCH   8  13
ENDBRANCH   1  12
BRANCH   4  20
ATOM     20  C   UNL     1      10.914   0.085   0.904  0.00  0.00    -0.043 C 
BRANCH  20  21
ATOM     21  C   UNL     1      11.968  -0.956   1.182  0.00  0.00    -0.063 A 
ATOM     22  C   UNL     1      12.617  -0.976   2.403  0.00  0.00    +0.005 A 
ATOM     23  C   UNL     1      13.579  -1.929   2.664  0.00  0.00    +0.046 A 
ATOM     24  C   UNL     1      13.906  -2.879   1.700  0.00  0.00    +0.124 A 
ATOM     25  C   UNL     1      13.253  -2.843   0.474  0.00  0.00    -0.002 A 
ATOM     26  C   UNL     1      12.286  -1.897   0.219  0.00  0.00    +0.009 A 
ATOM     27  C   UNL     1      13.826  -3.966  -0.368  0.00  0.00    +0.080 C 
ATOM     28  C   UNL     1      15.113  -4.326   0.412  0.00  0.00    +0.234 C 
ATOM     29  O   UNL     1      14.804  -3.902   1.750  0.00  0.00    -0.491 OA
ENDBRANCH  20  21
ENDBRANCH   4  20
TORSDOF 5
