REMARK  Name = ZINC46865569
REMARK  6 active torsions:
REMARK  status: ('A' for Active; 'I' for Inactive)
REMARK    1  A    between atoms: C_1  and  C_2
REMARK    2  A    between atoms: C_8  and  C_12
REMARK    3  A    between atoms: C_12  and  S_13
REMARK    4  A    between atoms: S_13  and  C_14
REMARK    5  A    between atoms: C_17  and  C_20
REMARK    6  A    between atoms: N_18  and  N_19
REMARK                            x       y       z     vdW  Elec       q    Type
REMARK                         _______ _______ _______ _____ _____    ______ ____
ROOT
ATOM      1  C   UNL     1       1.328  -8.483  -1.557  0.00  0.00    +0.209 A 
ATOM      2  N   UNL     1       1.389  -9.174  -0.441  0.00  0.00    -0.121 NA
ATOM      3  N   UNL     1       1.849 -10.351  -0.675  0.00  0.00    -0.127 NA
ATOM      4  C   UNL     1       2.109 -10.485  -1.954  0.00  0.00    +0.183 A 
ATOM      5  N   UNL     1       1.778  -9.294  -2.560  0.00  0.00    -0.224 N 
ENDROOT
BRANCH   4   6
ATOM      6  C   UNL     1       2.650 -11.688  -2.620  0.00  0.00    +0.039 A 
ATOM      7  C   UNL     1       3.713 -11.575  -3.518  0.00  0.00    +0.014 A 
ATOM      8  C   UNL     1       4.214 -12.702  -4.135  0.00  0.00    +0.021 A 
ATOM      9  C   UNL     1       3.665 -13.945  -3.867  0.00  0.00    +0.042 A 
ATOM     10  C   UNL     1       2.610 -14.065  -2.978  0.00  0.00    +0.040 A 
ATOM     11  C   UNL     1       2.103 -12.945  -2.349  0.00  0.00    +0.053 A 
ATOM     12 CL   UNL     1       0.786 -13.098  -1.229  0.00  0.00    -0.083 Cl
ATOM     13 CL   UNL     1       4.301 -15.358  -4.650  0.00  0.00    -0.083 Cl
ENDBRANCH   4   6
BRANCH   5  14
ATOM     14  N   UNL     1       1.881  -8.987  -3.887  0.00  0.00    -0.295 N 
ATOM     15  H   UNL     1       2.813  -8.672  -4.113  0.00  0.00    +0.163 HD
ATOM     16  H   UNL     1       1.615  -9.772  -4.462  0.00  0.00    +0.163 HD
ENDBRANCH   5  14
BRANCH   1  17
ATOM     17  S   UNL     1       0.764  -6.823  -1.729  0.00  0.00    -0.078 S 
BRANCH  17  18
ATOM     18  C   UNL     1       0.318  -6.334  -0.040  0.00  0.00    +0.133 C 
BRANCH  18  26
ATOM     19  C   UNL     1      -0.533   1.444  -0.268  0.00  0.00    +0.075 C 
ATOM     20  C   UNL     1      -0.422  -0.058  -0.218  0.00  0.00    +0.099 A 
ATOM     21  N   UNL     1      -1.364  -0.942  -0.084  0.00  0.00    -0.159 NA
ATOM     22  N   UNL     1      -1.087  -2.305  -0.057  0.00  0.00    -0.171 N 
ATOM     23  C   UNL     1      -1.983  -3.328   0.078  0.00  0.00    +0.275 A 
ATOM     24  O   UNL     1      -3.174  -3.086   0.192  0.00  0.00    -0.266 OA
ATOM     25  C   UNL     1      -1.534  -4.649   0.085  0.00  0.00    +0.096 A 
ATOM     26  C   UNL     1      -0.188  -4.914  -0.045  0.00  0.00    +0.060 A 
ATOM     27  N   UNL     1       0.658  -3.895  -0.175  0.00  0.00    -0.225 NA
ATOM     28  C   UNL     1       0.229  -2.658  -0.180  0.00  0.00    +0.199 A 
ATOM     29  S   UNL     1       1.037  -1.081  -0.336  0.00  0.00    -0.033 S 
ENDBRANCH  18  26
ENDBRANCH  17  18
ENDBRANCH   1  17
TORSDOF 5
