REMARK  Name = ZINC63271060
REMARK  4 active torsions:
REMARK  status: ('A' for Active; 'I' for Inactive)
REMARK    1  A    between atoms: N_17  and  C_18
REMARK    2  A    between atoms: C_18  and  C_19
REMARK    3  A    between atoms: C_19  and  C_20
REMARK    4  A    between atoms: N_22  and  C_23
REMARK                            x       y       z     vdW  Elec       q    Type
REMARK                         _______ _______ _______ _____ _____    ______ ____
ROOT
ATOM      1  C   UNL     1      -0.017   1.342   0.101  0.00  0.00    +0.001 A 
ATOM      2  C   UNL     1       1.165   2.096   0.094  0.00  0.00    +0.002 A 
ATOM      3  C   UNL     1       2.389   1.529   0.073  0.00  0.00    +0.026 A 
ATOM      4  C   UNL     1       2.529   0.115   0.057  0.00  0.00    +0.043 A 
ATOM      5  N   UNL     1       3.591  -0.657   0.015  0.00  0.00    -0.376 N 
ATOM      6  C   UNL     1       3.156  -2.050   0.094  0.00  0.00    +0.124 C 
ATOM      7  C   UNL     1       3.646  -2.871  -1.104  0.00  0.00    +0.138 C 
ATOM      8  N   UNL     1       2.851  -4.107  -1.160  0.00  0.00    -0.283 N 
ATOM      9  C   UNL     1       1.393  -4.051  -1.313  0.00  0.00    +0.114 C 
ATOM     10  C   UNL     1       0.790  -3.240  -0.152  0.00  0.00    +0.052 C 
ATOM     11  C   UNL     1       1.639  -2.002   0.029  0.00  0.00    -0.036 C 
ATOM     12  C   UNL     1       1.294  -0.707   0.057  0.00  0.00    -0.001 A 
ATOM     13  C   UNL     1       0.002  -0.009   0.084  0.00  0.00    +0.010 A 
ATOM     14  C   UNL     1       3.468  -5.302  -1.069  0.00  0.00    +0.302 C 
ATOM     15  O   UNL     1       4.682  -5.359  -1.036  0.00  0.00    -0.253 OA
ATOM     16  N   UNL     1       2.739  -6.434  -1.016  0.00  0.00    -0.299 N 
ATOM     17  H   UNL     1       1.775  -6.396  -1.116  0.00  0.00    +0.150 HD
ATOM     18  H   UNL     1       4.510  -0.354  -0.057  0.00  0.00    +0.160 HD
ENDROOT
BRANCH  16  19
ATOM     19  C   UNL     1       3.402  -7.724  -0.807  0.00  0.00    +0.115 C 
BRANCH  19  20
ATOM     20  C   UNL     1       2.355  -8.839  -0.787  0.00  0.00    +0.115 C 
BRANCH  20  21
ATOM     21  C   UNL     1       3.038 -10.165  -0.572  0.00  0.00    +0.219 C 
ATOM     22  O   UNL     1       4.243 -10.214  -0.447  0.00  0.00    -0.275 OA
ATOM     23  N   UNL     1       2.309 -11.297  -0.518  0.00  0.00    -0.285 N 
ATOM     24  H   UNL     1       1.356 -11.270  -0.698  0.00  0.00    +0.155 HD
BRANCH  23  25
ATOM     25  C   UNL     1       2.924 -12.510  -0.205  0.00  0.00    +0.043 A 
ATOM     26  C   UNL     1       4.093 -12.528   0.528  0.00  0.00    +0.024 A 
ATOM     27  C   UNL     1       4.712 -13.733   0.844  0.00  0.00    +0.004 A 
ATOM     28  C   UNL     1       4.186 -14.923   0.441  0.00  0.00    +0.028 A 
ATOM     29  C   UNL     1       2.998 -14.949  -0.308  0.00  0.00    +0.073 A 
ATOM     30  C   UNL     1       2.356 -13.728  -0.630  0.00  0.00    +0.022 A 
ATOM     31  C   UNL     1       1.164 -13.758  -1.374  0.00  0.00    +0.013 A 
ATOM     32  C   UNL     1       0.670 -14.976  -1.752  0.00  0.00    +0.020 A 
ATOM     33  C   UNL     1       1.347 -16.140  -1.398  0.00  0.00    +0.111 A 
ATOM     34  N   UNL     1       2.466 -16.107  -0.715  0.00  0.00    -0.255 NA
ENDBRANCH  23  25
ENDBRANCH  20  21
ENDBRANCH  19  20
ENDBRANCH  16  19
TORSDOF 4
