REMARK  Name = ZINC39678768
REMARK  11 active torsions:
REMARK  status: ('A' for Active; 'I' for Inactive)
REMARK    1  A    between atoms: C_1  and  C_2
REMARK    2  A    between atoms: C_2  and  C_3
REMARK    3  A    between atoms: C_2  and  O_4
REMARK    4  A    between atoms: O_4  and  C_5
REMARK    5  A    between atoms: C_5  and  C_7
REMARK    6  A    between atoms: C_7  and  N_8
REMARK    7  A    between atoms: C_9  and  C_11
REMARK    8  A    between atoms: C_22  and  C_24
REMARK    9  A    between atoms: C_27  and  O_34
REMARK   10  A    between atoms: C_28  and  C_30
REMARK   11  A    between atoms: O_34  and  C_35
REMARK                            x       y       z     vdW  Elec       q    Type
REMARK                         _______ _______ _______ _____ _____    ______ ____
ROOT
ATOM      1  C   UNL     1      -5.616  -1.416  -4.023  0.00  0.00    +0.100 C 
ATOM      2  C   UNL     1      -5.601  -0.196  -4.970  0.00  0.00    +0.121 C 
ATOM      3  N   UNL     1      -6.753  -0.412  -5.877  0.00  0.00    -0.296 N 
ATOM      4  C   UNL     1      -7.814  -0.962  -5.001  0.00  0.00    +0.115 C 
ATOM      5  C   UNL     1      -7.070  -1.916  -4.045  0.00  0.00    -0.004 C 
ATOM      6  C   UNL     1      -7.676  -1.840  -2.647  0.00  0.00    -0.010 C 
ATOM      7  C   UNL     1      -9.102  -2.397  -2.683  0.00  0.00    -0.082 C 
ATOM      8  N   UNL     1      -9.075  -3.787  -3.152  0.00  0.00    +0.379 N 
ATOM      9  C   UNL     1      -8.578  -3.841  -4.532  0.00  0.00    -0.082 C 
ATOM     10  C   UNL     1      -7.129  -3.346  -4.574  0.00  0.00    -0.010 C 
ATOM     11  C   UNL     1      -6.820  -0.164  -7.200  0.00  0.00    +0.247 C 
ATOM     12  O   UNL     1      -5.821   0.169  -7.808  0.00  0.00    -0.270 OA
ATOM     13  H   UNL     1      -8.469  -4.330  -2.556  0.00  0.00    -0.086 HD
ATOM     14  H   UNL     1     -10.008  -4.171  -3.117  0.00  0.00    -0.086 HD
ENDROOT
BRANCH  11  15
ATOM     15  C   UNL     1      -8.106  -0.297  -7.912  0.00  0.00    +0.038 A 
ATOM     16  C   UNL     1      -9.308  -0.245  -7.201  0.00  0.00    +0.016 A 
ATOM     17  C   UNL     1     -10.506  -0.369  -7.869  0.00  0.00    +0.047 A 
ATOM     18  C   UNL     1     -10.521  -0.546  -9.247  0.00  0.00    +0.132 A 
ATOM     19  C   UNL     1      -9.328  -0.598  -9.958  0.00  0.00    +0.097 A 
ATOM     20  C   UNL     1      -8.125  -0.469  -9.298  0.00  0.00    +0.029 A 
BRANCH  19  21
ATOM     21  C   UNL     1      -9.349  -0.790 -11.452  0.00  0.00    +0.421 C 
ATOM     22  F   UNL     1      -8.038  -0.810 -11.939  0.00  0.00    -0.166 F 
ATOM     23  F   UNL     1      -9.978  -2.002 -11.757  0.00  0.00    -0.166 F 
ATOM     24  F   UNL     1     -10.052   0.263 -12.048  0.00  0.00    -0.166 F 
ENDBRANCH  19  21
BRANCH  18  25
ATOM     25  O   UNL     1     -11.704  -0.668  -9.901  0.00  0.00    -0.495 OA
ATOM     26  C   UNL     1     -12.892  -0.605  -9.110  0.00  0.00    +0.277 C 
ENDBRANCH  18  25
ENDBRANCH  11  15
BRANCH   1  28
ATOM     27  N   UNL     1      -4.597  -1.877  -1.817  0.00  0.00    -0.305 N 
ATOM     28  C   UNL     1      -5.224  -1.003  -2.628  0.00  0.00    +0.219 C 
ATOM     29  O   UNL     1      -5.474   0.117  -2.235  0.00  0.00    -0.275 OA
ATOM     30  H   UNL     1      -4.397  -2.773  -2.131  0.00  0.00    +0.149 HD
BRANCH  27  31
ATOM     31  C   UNL     1      -4.216  -1.475  -0.460  0.00  0.00    +0.224 C 
BRANCH  31  32
ATOM     32  C   UNL     1      -3.535  -2.627   0.233  0.00  0.00    +0.325 C 
ATOM     33  O   UNL     1      -3.384  -3.676  -0.347  0.00  0.00    -0.249 OA
BRANCH  32  34
ATOM     34  O   UNL     1      -3.098  -2.488   1.494  0.00  0.00    -0.461 OA
BRANCH  34  36
ATOM     35  C   UNL     1      -0.958  -3.568   1.808  0.00  0.00    +0.052 C 
ATOM     36  C   UNL     1      -2.461  -3.621   2.089  0.00  0.00    +0.170 C 
ATOM     37  C   UNL     1      -2.698  -3.603   3.600  0.00  0.00    +0.052 C 
ENDBRANCH  34  36
ENDBRANCH  32  34
ENDBRANCH  31  32
ENDBRANCH  27  31
ENDBRANCH   1  28
TORSDOF 8
