REMARK  Name = ZINC01185934
REMARK  8 active torsions:
REMARK  status: ('A' for Active; 'I' for Inactive)
REMARK    1  A    between atoms: C_1  and  C_2
REMARK    2  A    between atoms: C_6  and  N_8
REMARK    3  A    between atoms: C_9  and  C_11
REMARK    4  A    between atoms: C_12  and  C_34
REMARK    5  A    between atoms: C_16  and  C_18
REMARK    6  A    between atoms: C_21  and  N_24
REMARK    7  A    between atoms: C_30  and  C_32
REMARK    8  A    between atoms: C_30  and  C_33
REMARK                            x       y       z     vdW  Elec       q    Type
REMARK                         _______ _______ _______ _____ _____    ______ ____
ROOT
ATOM      1  C   UNL     1       2.509   0.189   0.410  0.00  0.00    +0.043 C 
ATOM      2  C   UNL     1       2.288   1.514   0.398  0.00  0.00    +0.014 C 
ATOM      3  N   UNL     1       1.070   2.010   0.020  0.00  0.00    -0.321 N 
ATOM      4  C   UNL     1      -0.042   1.211   0.032  0.00  0.00    +0.016 C 
ATOM      5  C   UNL     1       0.080  -0.133   0.025  0.00  0.00    +0.024 C 
ATOM      6  C   UNL     1       1.441  -0.783   0.003  0.00  0.00    +0.090 C 
ATOM      7  C   UNL     1      -1.053  -0.965   0.034  0.00  0.00    +0.162 C 
ATOM      8  O   UNL     1      -0.908  -2.171   0.043  0.00  0.00    -0.292 OA
ATOM      9  C   UNL     1      -2.443  -0.388   0.031  0.00  0.00    +0.086 C 
ATOM     10  C   UNL     1      -2.414   0.978  -0.663  0.00  0.00    -0.023 C 
ATOM     11  C   UNL     1      -1.400   1.868   0.060  0.00  0.00    +0.058 C 
ATOM     12  C   UNL     1      -1.998   0.802  -2.125  0.00  0.00    +0.011 C 
ATOM     13  C   UNL     1      -3.803   1.617  -0.598  0.00  0.00    +0.011 C 
ATOM     14  C   UNL     1       3.387   2.460   0.805  0.00  0.00    +0.061 C 
ATOM     15  H   UNL     1       0.978   3.059  -0.298  0.00  0.00    +0.152 HD
ENDROOT
BRANCH   6  16
ATOM     16  C   UNL     1       1.729  -1.280  -1.391  0.00  0.00    -0.035 A 
ATOM     17  C   UNL     1       1.756  -0.392  -2.450  0.00  0.00    +0.007 A 
ATOM     18  C   UNL     1       2.025  -0.847  -3.727  0.00  0.00    +0.033 A 
ATOM     19  C   UNL     1       2.257  -2.192  -3.947  0.00  0.00    +0.126 A 
ATOM     20  C   UNL     1       2.225  -3.081  -2.889  0.00  0.00    +0.033 A 
ATOM     21  C   UNL     1       1.961  -2.625  -1.611  0.00  0.00    +0.007 A 
BRANCH  19  22
ATOM     22  N   UNL     1       2.540  -2.680  -5.315  0.00  0.00    +0.056 N 
ATOM     23  O   UNL     1       2.744  -3.865  -5.509  0.00  0.00    -0.126 OA
ATOM     24  O   UNL     1       2.567  -1.897  -6.247  0.00  0.00    -0.126 OA
ENDBRANCH  19  22
ENDBRANCH   6  16
BRANCH   1  26
ATOM     25  N   UNL     1       3.975  -1.626   0.945  0.00  0.00    -0.267 N 
ATOM     26  C   UNL     1       3.775  -0.300   0.814  0.00  0.00    +0.248 C 
ATOM     27  O   UNL     1       4.683   0.478   1.044  0.00  0.00    -0.270 OA
ATOM     28  H   UNL     1       3.183  -2.333   0.657  0.00  0.00    +0.157 HD
BRANCH  25  34
ATOM     29  C   UNL     1       8.424  -0.658   2.431  0.00  0.00    +0.065 C 
ATOM     30  C   UNL     1       7.333  -1.664   2.165  0.00  0.00    +0.040 A 
ATOM     31  C   UNL     1       7.562  -3.001   2.420  0.00  0.00    +0.023 A 
ATOM     32  C   UNL     1       6.554  -3.923   2.173  0.00  0.00    +0.005 A 
ATOM     33  C   UNL     1       5.347  -3.463   1.677  0.00  0.00    +0.044 A 
ATOM     34  C   UNL     1       5.185  -2.102   1.444  0.00  0.00    +0.125 A 
ATOM     35  N   UNL     1       6.173  -1.255   1.687  0.00  0.00    -0.237 NA
ENDBRANCH  25  34
ENDBRANCH   1  26
TORSDOF 4
