REMARK  Name = ZINC64541604
REMARK  3 active torsions:
REMARK  status: ('A' for Active; 'I' for Inactive)
REMARK    1  A    between atoms: C_6  and  C_21
REMARK    2  A    between atoms: C_8  and  N_11
REMARK    3  A    between atoms: C_12  and  C_14
REMARK                            x       y       z     vdW  Elec       q    Type
REMARK                         _______ _______ _______ _____ _____    ______ ____
ROOT
ATOM      1  C   UNL     1       0.350   1.340   1.293  0.00  0.00    +0.001 A 
ATOM      2  C   UNL     1       1.552   2.041   1.163  0.00  0.00    +0.002 A 
ATOM      3  C   UNL     1       2.674   1.454   0.679  0.00  0.00    +0.026 A 
ATOM      4  C   UNL     1       2.645   0.090   0.289  0.00  0.00    +0.045 A 
ATOM      5  N   UNL     1       3.581  -0.697  -0.202  0.00  0.00    -0.369 N 
ATOM      6  C   UNL     1       3.015  -2.029  -0.434  0.00  0.00    +0.211 C 
ATOM      7  C   UNL     1       1.566  -1.947  -0.006  0.00  0.00    +0.051 C 
ATOM      8  C   UNL     1       1.376  -0.645   0.427  0.00  0.00    +0.018 A 
ATOM      9  C   UNL     1       0.246   0.035   0.941  0.00  0.00    +0.011 A 
ATOM     10  H   UNL     1       4.498  -0.436  -0.382  0.00  0.00    +0.161 HD
ENDROOT
BRANCH   6  11
ATOM     11  C   UNL     1       3.107  -2.385  -1.895  0.00  0.00    +0.244 C 
ATOM     12  O   UNL     1       3.114  -1.508  -2.734  0.00  0.00    -0.273 OA
ATOM     13  N   UNL     1       3.180  -3.677  -2.271  0.00  0.00    -0.299 N 
ATOM     14  C   UNL     1       3.269  -4.830  -1.363  0.00  0.00    +0.108 C 
ATOM     15  C   UNL     1       3.358  -6.098  -2.239  0.00  0.00    +0.020 C 
ATOM     16  C   UNL     1       3.883  -5.549  -3.591  0.00  0.00    +0.020 C 
ATOM     17  C   UNL     1       3.177  -4.170  -3.661  0.00  0.00    +0.108 C 
ENDBRANCH   6  11
BRANCH   7  18
ATOM     18  N   UNL     1       0.641  -2.944  -0.041  0.00  0.00    -0.282 N 
ATOM     19  C   UNL     1      -0.669  -2.645  -0.135  0.00  0.00    +0.248 C 
ATOM     20  O   UNL     1      -1.019  -1.493  -0.300  0.00  0.00    -0.270 OA
ATOM     21  H   UNL     1       0.926  -3.871   0.002  0.00  0.00    +0.155 HD
BRANCH  19  22
ATOM     22  C   UNL     1      -1.680  -3.717  -0.038  0.00  0.00    +0.037 A 
ATOM     23  C   UNL     1      -1.282  -5.041   0.158  0.00  0.00    +0.014 A 
ATOM     24  C   UNL     1      -2.230  -6.038   0.248  0.00  0.00    +0.021 A 
ATOM     25  C   UNL     1      -3.576  -5.728   0.145  0.00  0.00    +0.041 A 
ATOM     26  C   UNL     1      -3.978  -4.416  -0.050  0.00  0.00    +0.021 A 
ATOM     27  C   UNL     1      -3.039  -3.410  -0.135  0.00  0.00    +0.014 A 
ATOM     28 CL   UNL     1      -4.765  -6.988   0.259  0.00  0.00    -0.084 Cl
ENDBRANCH  19  22
ENDBRANCH   7  18
TORSDOF 3
