REMARK  Name = ZINC54425136
REMARK  10 active torsions:
REMARK  status: ('A' for Active; 'I' for Inactive)
REMARK    1  A    between atoms: C_1  and  C_2
REMARK    2  A    between atoms: C_2  and  C_20
REMARK    3  A    between atoms: N_5  and  C_9
REMARK    4  A    between atoms: C_9  and  C_10
REMARK    5  A    between atoms: C_10  and  C_11
REMARK    6  A    between atoms: N_13  and  C_14
REMARK    7  A    between atoms: C_23  and  C_26
REMARK    8  A    between atoms: C_26  and  C_27
REMARK    9  A    between atoms: C_26  and  C_28
REMARK   10  A    between atoms: C_26  and  C_29
REMARK                            x       y       z     vdW  Elec       q    Type
REMARK                         _______ _______ _______ _____ _____    ______ ____
ROOT
ATOM      1  C   UNL     1      -0.019   1.526   0.010  0.00  0.00    +0.047 C 
ATOM      2  C   UNL     1       0.002  -0.004   0.002  0.00  0.00    +0.135 C 
ATOM      3  C   UNL     1       0.815  -0.520  -1.169  0.00  0.00    +0.251 C 
ATOM      4  O   UNL     1       0.595  -0.342  -2.348  0.00  0.00    -0.272 OA
ATOM      5  N   UNL     1       1.833  -1.217  -0.627  0.00  0.00    -0.224 N 
ATOM      6  C   UNL     1       1.777  -1.214   0.710  0.00  0.00    +0.310 C 
ATOM      7  O   UNL     1       2.586  -1.776   1.421  0.00  0.00    -0.252 OA
ATOM      8  N   UNL     1       0.724  -0.519   1.178  0.00  0.00    -0.281 N 
ATOM      9  H   UNL     1       0.487  -0.383   2.109  0.00  0.00    +0.152 HD
ENDROOT
BRANCH   2  10
ATOM     10  C   UNL     1      -1.401  -0.551  -0.040  0.00  0.00    -0.015 A 
ATOM     11  C   UNL     1      -2.005  -0.815  -1.256  0.00  0.00    +0.006 A 
ATOM     12  C   UNL     1      -3.292  -1.317  -1.294  0.00  0.00    +0.004 A 
ATOM     13  C   UNL     1      -3.976  -1.556  -0.117  0.00  0.00    -0.042 A 
ATOM     14  C   UNL     1      -3.372  -1.294   1.099  0.00  0.00    +0.004 A 
ATOM     15  C   UNL     1      -2.083  -0.796   1.137  0.00  0.00    +0.006 A 
BRANCH  13  16
ATOM     16  C   UNL     1      -5.380  -2.103  -0.159  0.00  0.00    -0.013 C 
ATOM     17  C   UNL     1      -5.378  -3.459  -0.868  0.00  0.00    +0.015 C 
ATOM     18  C   UNL     1      -5.903  -2.275   1.268  0.00  0.00    +0.015 C 
ATOM     19  C   UNL     1      -6.283  -1.130  -0.920  0.00  0.00    +0.015 C 
ENDBRANCH  13  16
ENDBRANCH   2  10
BRANCH   5  20
ATOM     20  C   UNL     1       2.871  -1.896  -1.406  0.00  0.00    +0.127 C 
BRANCH  20  21
ATOM     21  C   UNL     1       4.037  -0.936  -1.647  0.00  0.00    +0.115 C 
BRANCH  21  22
ATOM     22  C   UNL     1       5.106  -1.634  -2.448  0.00  0.00    +0.215 C 
ATOM     23  O   UNL     1       4.950  -2.787  -2.792  0.00  0.00    -0.276 OA
ATOM     24  N   UNL     1       6.235  -0.978  -2.782  0.00  0.00    -0.312 N 
ATOM     25  H   UNL     1       6.359  -0.056  -2.507  0.00  0.00    +0.149 HD
BRANCH  24  26
ATOM     26  C   UNL     1       7.274  -1.657  -3.561  0.00  0.00    +0.073 C 
ATOM     27  C   UNL     1       8.185  -2.444  -2.618  0.00  0.00    +0.022 C 
ATOM     28  C   UNL     1       9.270  -3.153  -3.431  0.00  0.00    +0.002 C 
ATOM     29  C   UNL     1      10.098  -2.115  -4.191  0.00  0.00    +0.000 C 
ATOM     30  C   UNL     1       9.186  -1.327  -5.134  0.00  0.00    +0.002 C 
ATOM     31  C   UNL     1       8.101  -0.618  -4.321  0.00  0.00    +0.022 C 
ENDBRANCH  24  26
ENDBRANCH  21  22
ENDBRANCH  20  21
ENDBRANCH   5  20
TORSDOF 6
