REMARK  Name = ZINC67062359
REMARK  10 active torsions:
REMARK  status: ('A' for Active; 'I' for Inactive)
REMARK    1  A    between atoms: C_1  and  C_2
REMARK    2  A    between atoms: C_2  and  C_3
REMARK    3  A    between atoms: C_3  and  C_5
REMARK    4  A    between atoms: C_3  and  N_15
REMARK    5  A    between atoms: N_18  and  C_19
REMARK    6  A    between atoms: C_19  and  C_20
REMARK    7  A    between atoms: N_26  and  C_27
REMARK    8  A    between atoms: N_26  and  C_29
REMARK    9  A    between atoms: C_27  and  C_28
REMARK   10  A    between atoms: C_29  and  C_30
REMARK                            x       y       z     vdW  Elec       q    Type
REMARK                         _______ _______ _______ _____ _____    ______ ____
ROOT
ATOM      1  N   UNL     1      -2.105  -0.148  -1.230  0.00  0.00    -0.290 N 
ATOM      2  C   UNL     1      -2.690   1.062  -1.334  0.00  0.00    +0.300 C 
ATOM      3  O   UNL     1      -2.659   1.834  -0.395  0.00  0.00    -0.253 OA
ATOM      4  N   UNL     1      -3.308   1.416  -2.478  0.00  0.00    -0.295 N 
ATOM      5  H   UNL     1      -2.130  -0.764  -1.980  0.00  0.00    +0.151 HD
ATOM      6  H   UNL     1      -3.333   0.800  -3.227  0.00  0.00    +0.151 HD
ENDROOT
BRANCH   1   7
ATOM      7  C   UNL     1      -1.433  -0.534   0.013  0.00  0.00    +0.140 C 
BRANCH   7   8
ATOM      8  C   UNL     1      -1.414  -2.036   0.129  0.00  0.00    +0.129 A 
ATOM      9  N   UNL     1      -2.066  -2.753   1.083  0.00  0.00    -0.340 N 
ATOM     10  H   UNL     1      -2.616  -2.393   1.796  0.00  0.00    +0.167 HD
ATOM     11  C   UNL     1      -1.800  -4.087   0.848  0.00  0.00    +0.066 A 
ATOM     12  C   UNL     1      -2.174  -5.271   1.469  0.00  0.00    +0.028 A 
ATOM     13  C   UNL     1      -1.723  -6.475   0.970  0.00  0.00    +0.002 A 
ATOM     14  C   UNL     1      -0.899  -6.510  -0.146  0.00  0.00    +0.002 A 
ATOM     15  C   UNL     1      -0.521  -5.355  -0.769  0.00  0.00    +0.030 A 
ATOM     16  C   UNL     1      -0.966  -4.123  -0.282  0.00  0.00    +0.089 A 
ATOM     17  N   UNL     1      -0.775  -2.837  -0.673  0.00  0.00    -0.231 NA
ENDBRANCH   7   8
BRANCH   7  19
ATOM     18  C   UNL     1      -0.019   1.526   0.010  0.00  0.00    +0.006 C 
ATOM     19  C   UNL     1       0.002  -0.004   0.002  0.00  0.00    +0.027 C 
ENDBRANCH   7  19
ENDBRANCH   1   7
BRANCH   4  20
ATOM     20  C   UNL     1      -3.943   2.732  -2.590  0.00  0.00    +0.142 C 
BRANCH  20  21
ATOM     21  C   UNL     1      -4.558   2.878  -3.958  0.00  0.00    -0.014 A 
ATOM     22  C   UNL     1      -3.816   3.401  -5.008  0.00  0.00    +0.010 A 
ATOM     23  C   UNL     1      -4.418   3.518  -6.248  0.00  0.00    +0.042 A 
ATOM     24  C   UNL     1      -5.739   3.110  -6.400  0.00  0.00    +0.099 A 
ATOM     25  N   UNL     1      -6.414   2.616  -5.373  0.00  0.00    -0.349 N 
ATOM     26  C   UNL     1      -5.863   2.487  -4.181  0.00  0.00    +0.089 A 
ATOM     27  N   UNL     1      -6.356   3.223  -7.640  0.00  0.00    -0.317 N 
ATOM     28  H   UNL     1      -7.334   2.338  -5.502  0.00  0.00    +0.167 HD
BRANCH  27  29
ATOM     29  C   UNL     1      -7.747   2.795  -7.807  0.00  0.00    +0.103 C 
ATOM     30  C   UNL     1      -8.681   3.973  -7.521  0.00  0.00    +0.024 C 
ENDBRANCH  27  29
BRANCH  27  31
ATOM     31  C   UNL     1      -5.616   3.769  -8.780  0.00  0.00    +0.103 C 
ATOM     32  C   UNL     1      -4.909   2.633  -9.521  0.00  0.00    +0.024 C 
ENDBRANCH  27  31
ENDBRANCH  20  21
ENDBRANCH   4  20
TORSDOF 7
