REMARK  Name = ZINC14472699
REMARK  4 active torsions:
REMARK  status: ('A' for Active; 'I' for Inactive)
REMARK    1  A    between atoms: C_1  and  C_2
REMARK    2  A    between atoms: C_5  and  C_28
REMARK    3  A    between atoms: C_15  and  C_18
REMARK    4  A    between atoms: C_20  and  N_25
REMARK                            x       y       z     vdW  Elec       q    Type
REMARK                         _______ _______ _______ _____ _____    ______ ____
ROOT
ATOM      1  C   UNL     1       1.511   1.120  -4.906  0.00  0.00    +0.044 C 
ATOM      2  C   UNL     1       2.196   1.393  -3.592  0.00  0.00    -0.045 A 
ATOM      3  C   UNL     1       3.574   1.489  -3.544  0.00  0.00    +0.004 A 
ATOM      4  C   UNL     1       4.200   1.741  -2.337  0.00  0.00    +0.005 A 
ATOM      5  C   UNL     1       3.455   1.905  -1.190  0.00  0.00    -0.029 A 
ATOM      6  C   UNL     1       2.062   1.819  -1.224  0.00  0.00    +0.035 A 
ATOM      7  C   UNL     1       1.443   1.546  -2.447  0.00  0.00    -0.016 A 
ATOM      8  C   UNL     1      -0.029   1.406  -2.459  0.00  0.00    +0.049 C 
ATOM      9  C   UNL     1      -0.856   1.724  -3.649  0.00  0.00    -0.023 C 
ATOM     10  C   UNL     1      -2.038   2.168  -3.234  0.00  0.00    -0.030 C 
ATOM     11  C   UNL     1      -2.070   2.214  -1.705  0.00  0.00    +0.033 C 
ATOM     12  C   UNL     1      -0.583   2.379  -1.372  0.00  0.00    +0.029 C 
ATOM     13  C   UNL     1      -0.082   1.811  -0.060  0.00  0.00    +0.106 C 
ATOM     14  N   UNL     1       1.375   2.015  -0.028  0.00  0.00    -0.336 N 
ATOM     15  C   UNL     1       4.152   2.183   0.117  0.00  0.00    +0.045 C 
ATOM     16  H   UNL     1       1.606   2.909   0.380  0.00  0.00    +0.147 HD
ENDROOT
BRANCH  13  17
ATOM     17  C   UNL     1      -0.728   2.534   1.094  0.00  0.00    -0.007 A 
ATOM     18  C   UNL     1      -1.382   3.732   0.880  0.00  0.00    +0.039 A 
ATOM     19  C   UNL     1      -1.978   4.393   1.938  0.00  0.00    +0.127 A 
ATOM     20  C   UNL     1      -1.912   3.860   3.212  0.00  0.00    +0.034 A 
ATOM     21  C   UNL     1      -1.254   2.665   3.428  0.00  0.00    +0.022 A 
ATOM     22  C   UNL     1      -0.661   2.000   2.369  0.00  0.00    +0.046 A 
ATOM     23 CL   UNL     1       0.166   0.498   2.639  0.00  0.00    -0.083 Cl
BRANCH  19  24
ATOM     24  N   UNL     1      -2.683   5.674   1.707  0.00  0.00    +0.056 N 
ATOM     25  O   UNL     1      -3.204   6.258   2.640  0.00  0.00    -0.126 OA
ATOM     26  O   UNL     1      -2.741   6.143   0.585  0.00  0.00    -0.126 OA
ENDBRANCH  19  24
ENDBRANCH  13  17
TORSDOF 2
