REMARK  Name = ZINC24829761
REMARK  9 active torsions:
REMARK  status: ('A' for Active; 'I' for Inactive)
REMARK    1  A    between atoms: C_1  and  C_2
REMARK    2  A    between atoms: C_2  and  C_3
REMARK    3  A    between atoms: C_2  and  C_4
REMARK    4  A    between atoms: C_4  and  C_6
REMARK    5  A    between atoms: C_4  and  N_17
REMARK    6  A    between atoms: C_18  and  C_20
REMARK    7  A    between atoms: C_20  and  N_21
REMARK    8  A    between atoms: C_24  and  N_27
REMARK    9  A    between atoms: C_28  and  C_30
REMARK                            x       y       z     vdW  Elec       q    Type
REMARK                         _______ _______ _______ _____ _____    ______ ____
ROOT
ATOM      1  N   UNL     1       4.459   4.379   1.655  0.00  0.00    -0.310 N 
ATOM      2  C   UNL     1       3.351   3.622   1.530  0.00  0.00    +0.197 C 
ATOM      3  O   UNL     1       2.254   4.132   1.622  0.00  0.00    -0.278 OA
ATOM      4  H   UNL     1       5.453   3.917   1.572  0.00  0.00    +0.149 HD
ENDROOT
BRANCH   1   5
ATOM      5  C   UNL     1       4.338   5.818   1.903  0.00  0.00    +0.106 C 
BRANCH   5   6
ATOM      6  C   UNL     1       5.583   6.315   2.592  0.00  0.00    -0.023 A 
ATOM      7  C   UNL     1       6.821   5.833   2.210  0.00  0.00    +0.009 A 
ATOM      8  C   UNL     1       7.968   6.289   2.834  0.00  0.00    +0.050 A 
ATOM      9  C   UNL     1       7.871   7.222   3.853  0.00  0.00    +0.162 A 
ATOM     10  C   UNL     1       6.628   7.702   4.240  0.00  0.00    +0.162 A 
ATOM     11  C   UNL     1       5.482   7.247   3.609  0.00  0.00    +0.055 A 
ATOM     12  O   UNL     1       6.543   8.622   5.244  0.00  0.00    -0.488 OA
ATOM     13  C   UNL     1       6.886   8.155   6.550  0.00  0.00    +0.232 C 
ATOM     14  C   UNL     1       8.390   8.221   6.768  0.00  0.00    +0.082 C 
ATOM     15  C   UNL     1       9.150   7.281   5.845  0.00  0.00    +0.232 C 
ATOM     16  O   UNL     1       8.994   7.676   4.481  0.00  0.00    -0.488 OA
ENDBRANCH   5   6
BRANCH   5  18
ATOM     17  C   UNL     1       2.902   6.047  -0.128  0.00  0.00    +0.009 C 
ATOM     18  C   UNL     1       4.165   6.552   0.572  0.00  0.00    +0.008 C 
ATOM     19  C   UNL     1       4.040   8.055   0.830  0.00  0.00    +0.009 C 
ENDBRANCH   5  18
ENDBRANCH   1   5
BRANCH   2  20
ATOM     20  C   UNL     1       3.474   2.142   1.275  0.00  0.00    +0.019 C 
BRANCH  20  21
ATOM     21  N   UNL     1       2.134   1.548   1.179  0.00  0.00    +0.385 N 
ATOM     22  C   UNL     1       1.419   2.052  -0.001  0.00  0.00    -0.076 C 
ATOM     23  C   UNL     1      -0.019   1.527   0.010  0.00  0.00    +0.004 C 
ATOM     24  C   UNL     1       0.002  -0.004   0.002  0.00  0.00    +0.070 C 
ATOM     25  C   UNL     1       0.794  -0.503   1.214  0.00  0.00    +0.004 C 
ATOM     26  C   UNL     1       2.208   0.081   1.168  0.00  0.00    -0.076 C 
ATOM     27  H   UNL     1       1.565   1.848   2.070  0.00  0.00    -0.081 HD
BRANCH  24  28
ATOM     28  N   UNL     1      -1.370  -0.513   0.071  0.00  0.00    -0.309 N 
ATOM     29  C   UNL     1      -1.660  -1.736  -0.413  0.00  0.00    +0.244 C 
ATOM     30  O   UNL     1      -0.784  -2.418  -0.908  0.00  0.00    -0.270 OA
ATOM     31  H   UNL     1      -2.163   0.104   0.519  0.00  0.00    +0.149 HD
BRANCH  29  32
ATOM     32  C   UNL     1      -3.045  -2.250  -0.344  0.00  0.00    +0.037 A 
ATOM     33  C   UNL     1      -4.053  -1.472   0.229  0.00  0.00    +0.013 A 
ATOM     34  C   UNL     1      -5.344  -1.955   0.287  0.00  0.00    +0.001 A 
ATOM     35  C   UNL     1      -5.638  -3.212  -0.212  0.00  0.00    +0.000 A 
ATOM     36  C   UNL     1      -4.643  -3.990  -0.776  0.00  0.00    +0.001 A 
ATOM     37  C   UNL     1      -3.349  -3.516  -0.845  0.00  0.00    +0.013 A 
ENDBRANCH  29  32
ENDBRANCH  24  28
ENDBRANCH  20  21
ENDBRANCH   2  20
TORSDOF 7
