REMARK  Name = ZINC05740437
REMARK  5 active torsions:
REMARK  status: ('A' for Active; 'I' for Inactive)
REMARK    1  A    between atoms: C_1  and  C_2
REMARK    2  A    between atoms: C_5  and  C_8
REMARK    3  A    between atoms: C_19  and  N_26
REMARK    4  A    between atoms: C_21  and  O_24
REMARK    5  A    between atoms: O_24  and  C_25
REMARK                            x       y       z     vdW  Elec       q    Type
REMARK                         _______ _______ _______ _____ _____    ______ ____
ROOT
ATOM      1  C   UNL     1      -3.547   3.120  -0.545  0.00  0.00    +0.105 C 
ATOM      2  C   UNL     1      -3.739   1.803   0.210  0.00  0.00    +0.029 C 
ATOM      3  C   UNL     1      -4.784   0.956  -0.570  0.00  0.00    +0.033 C 
ATOM      4  C   UNL     1      -3.964   0.302  -1.665  0.00  0.00    -0.030 C 
ATOM      5  C   UNL     1      -2.696   0.282  -1.340  0.00  0.00    -0.023 C 
ATOM      6  C   UNL     1      -2.486   0.925   0.011  0.00  0.00    +0.049 C 
ATOM      7  C   UNL     1      -1.230   1.746   0.017  0.00  0.00    -0.014 A 
ATOM      8  C   UNL     1      -0.013   1.076   0.008  0.00  0.00    +0.039 A 
ATOM      9  C   UNL     1       1.177   1.774   0.000  0.00  0.00    +0.130 A 
ATOM     10  C   UNL     1       1.169   3.157   0.008  0.00  0.00    +0.080 A 
ATOM     11  C   UNL     1      -0.036   3.835   0.025  0.00  0.00    +0.143 A 
ATOM     12  C   UNL     1      -1.243   3.128   0.034  0.00  0.00    +0.074 A 
ATOM     13  N   UNL     1      -2.432   3.862   0.057  0.00  0.00    -0.334 N 
ATOM     14  H   UNL     1      -2.651   4.167   0.993  0.00  0.00    +0.147 HD
ENDROOT
BRANCH   1  19
ATOM     15  C   UNL     1      -8.373   6.277  -0.172  0.00  0.00    +0.044 C 
ATOM     16  C   UNL     1      -7.115   5.453  -0.269  0.00  0.00    -0.050 A 
ATOM     17  C   UNL     1      -6.855   4.721  -1.412  0.00  0.00    +0.004 A 
ATOM     18  C   UNL     1      -5.700   3.966  -1.502  0.00  0.00    +0.006 A 
ATOM     19  C   UNL     1      -4.806   3.944  -0.448  0.00  0.00    -0.027 A 
ATOM     20  C   UNL     1      -5.068   4.672   0.697  0.00  0.00    +0.006 A 
ATOM     21  C   UNL     1      -6.220   5.431   0.784  0.00  0.00    +0.004 A 
ENDBRANCH   1  19
BRANCH   9  22
ATOM     22  N   UNL     1       2.463   1.042  -0.017  0.00  0.00    +0.057 N 
ATOM     23  O   UNL     1       2.471  -0.176  -0.024  0.00  0.00    -0.126 OA
ATOM     24  O   UNL     1       3.514   1.658  -0.023  0.00  0.00    -0.126 OA
ENDBRANCH   9  22
BRANCH  11  25
ATOM     25  O   UNL     1      -0.048   5.195   0.032  0.00  0.00    -0.493 OA
ATOM     26  C   UNL     1       1.220   5.855   0.022  0.00  0.00    +0.277 C 
ENDBRANCH  11  25
TORSDOF 3
