REMARK  Name = ZINC39362901
REMARK  6 active torsions:
REMARK  status: ('A' for Active; 'I' for Inactive)
REMARK    1  A    between atoms: C_6  and  C_7
REMARK    2  A    between atoms: C_7  and  S_8
REMARK    3  A    between atoms: S_8  and  C_9
REMARK    4  A    between atoms: C_12  and  C_22
REMARK    5  A    between atoms: N_14  and  C_15
REMARK    6  A    between atoms: C_22  and  C_23
REMARK                            x       y       z     vdW  Elec       q    Type
REMARK                         _______ _______ _______ _____ _____    ______ ____
ROOT
ATOM      1  C   UNL     1      -3.468  -1.792  -1.522  0.00  0.00    +0.180 C 
ATOM      2  N   UNL     1      -3.952  -2.164  -0.385  0.00  0.00    -0.162 NA
ATOM      3  N   UNL     1      -4.979  -3.102  -0.547  0.00  0.00    -0.246 N 
ATOM      4  C   UNL     1      -5.118  -3.312  -1.998  0.00  0.00    +0.187 C 
ATOM      5  N   UNL     1      -4.103  -2.420  -2.584  0.00  0.00    -0.258 N 
ATOM      6  H   UNL     1      -5.494  -3.529   0.155  0.00  0.00    +0.170 HD
ENDROOT
BRANCH   5   7
ATOM      7  C   UNL     1      -3.831  -2.242  -3.944  0.00  0.00    +0.038 A 
ATOM      8  C   UNL     1      -4.774  -1.644  -4.770  0.00  0.00    +0.026 A 
ATOM      9  C   UNL     1      -4.503  -1.469  -6.113  0.00  0.00    +0.040 A 
ATOM     10  C   UNL     1      -3.292  -1.890  -6.636  0.00  0.00    +0.124 A 
ATOM     11  C   UNL     1      -2.350  -2.486  -5.815  0.00  0.00    +0.040 A 
ATOM     12  C   UNL     1      -2.615  -2.658  -4.470  0.00  0.00    +0.026 A 
ATOM     13  F   UNL     1      -3.029  -1.719  -7.950  0.00  0.00    -0.205 F 
ENDBRANCH   5   7
BRANCH   1  14
ATOM     14  S   UNL     1      -2.164  -0.621  -1.704  0.00  0.00    -0.084 S 
BRANCH  14  15
ATOM     15  C   UNL     1      -1.748  -0.159  -0.000  0.00  0.00    +0.112 C 
BRANCH  15  21
ATOM     16  C   UNL     1      -0.920   2.202  -0.064  0.00  0.00    +0.005 A 
ATOM     17  C   UNL     1       0.106   3.129  -0.075  0.00  0.00    +0.015 A 
ATOM     18  C   UNL     1       1.422   2.705  -0.035  0.00  0.00    +0.018 A 
ATOM     19  C   UNL     1       1.711   1.353   0.015  0.00  0.00    +0.015 A 
ATOM     20  C   UNL     1       0.685   0.427   0.027  0.00  0.00    +0.005 A 
ATOM     21  C   UNL     1      -0.630   0.852  -0.013  0.00  0.00    -0.037 A 
ATOM     22 BR   UNL     1       2.825   3.973  -0.051  0.00  0.00    -0.050 Br
ENDBRANCH  15  21
ENDBRANCH  14  15
ENDBRANCH   1  14
BRANCH   4  23
ATOM     23  C   UNL     1      -4.834  -4.771  -2.360  0.00  0.00    +0.097 C 
BRANCH  23  24
ATOM     24  C   UNL     1      -5.904  -5.653  -1.769  0.00  0.00    +0.029 A 
ATOM     25  N   UNL     1      -5.801  -6.085  -0.475  0.00  0.00    -0.311 N 
ATOM     26  C   UNL     1      -6.751  -6.872   0.062  0.00  0.00    +0.327 A 
ATOM     27  O   UNL     1      -6.640  -7.245   1.214  0.00  0.00    -0.247 OA
ATOM     28  N   UNL     1      -7.824  -7.252  -0.658  0.00  0.00    -0.275 N 
ATOM     29  C   UNL     1      -7.962  -6.846  -1.936  0.00  0.00    +0.254 A 
ATOM     30  O   UNL     1      -8.931  -7.189  -2.588  0.00  0.00    -0.268 OA
ATOM     31  C   UNL     1      -6.971  -6.014  -2.512  0.00  0.00    +0.091 A 
ATOM     32  H   UNL     1      -8.499  -7.819  -0.255  0.00  0.00    +0.173 HD
ATOM     33  H   UNL     1      -5.036  -5.823   0.060  0.00  0.00    +0.170 HD
ENDBRANCH  23  24
ENDBRANCH   4  23
TORSDOF 6
