REMARK  Name = ZINC54094471
REMARK  5 active torsions:
REMARK  status: ('A' for Active; 'I' for Inactive)
REMARK    1  A    between atoms: C_1  and  C_2
REMARK    2  A    between atoms: C_8  and  N_10
REMARK    3  A    between atoms: N_13  and  C_14
REMARK    4  A    between atoms: N_13  and  C_15
REMARK    5  A    between atoms: C_15  and  C_16
REMARK                            x       y       z     vdW  Elec       q    Type
REMARK                         _______ _______ _______ _____ _____    ______ ____
ROOT
ATOM      1  N   UNL     1       0.056  -0.038   2.447  0.00  0.00    -0.296 N 
ATOM      2  C   UNL     1       0.738   0.093   3.602  0.00  0.00    +0.302 C 
ATOM      3  O   UNL     1       1.922  -0.180   3.644  0.00  0.00    -0.253 OA
ATOM      4  N   UNL     1       0.107   0.528   4.711  0.00  0.00    -0.284 N 
ATOM      5  C   UNL     1      -1.319   0.857   4.661  0.00  0.00    +0.134 C 
ATOM      6  H   UNL     1      -0.888   0.180   2.413  0.00  0.00    +0.151 HD
ENDROOT
BRANCH   1  13
ATOM      7  C   UNL     1      -0.019   1.526   0.010  0.00  0.00    +0.009 C 
ATOM      8  C   UNL     1       0.002  -0.004   0.002  0.00  0.00    +0.006 C 
ATOM      9  C   UNL     1       0.718  -0.497  -1.257  0.00  0.00    +0.005 C 
ATOM     10  C   UNL     1       0.739  -2.027  -1.265  0.00  0.00    +0.000 C 
ATOM     11  C   UNL     1       1.479  -2.534  -0.026  0.00  0.00    +0.002 C 
ATOM     12  C   UNL     1       0.763  -2.041   1.233  0.00  0.00    +0.022 C 
ATOM     13  C   UNL     1       0.742  -0.511   1.242  0.00  0.00    +0.077 C 
ENDBRANCH   1  13
BRANCH   4  14
ATOM     14  C   UNL     1       0.848   0.671   5.967  0.00  0.00    +0.144 C 
BRANCH  14  15
ATOM     15  C   UNL     1       1.424   2.061   6.055  0.00  0.00    -0.026 A 
ATOM     16  C   UNL     1       2.682   2.320   5.545  0.00  0.00    +0.009 A 
ATOM     17  C   UNL     1       3.215   3.593   5.622  0.00  0.00    +0.050 A 
ATOM     18  C   UNL     1       2.487   4.614   6.213  0.00  0.00    +0.166 A 
ATOM     19  C   UNL     1       1.219   4.353   6.727  0.00  0.00    +0.167 A 
ATOM     20  C   UNL     1       0.690   3.075   6.640  0.00  0.00    +0.054 A 
ATOM     21  O   UNL     1       0.715   5.508   7.250  0.00  0.00    -0.453 OA
ATOM     22  C   UNL     1       1.847   6.381   7.418  0.00  0.00    +0.466 C 
ATOM     23  O   UNL     1       2.777   5.932   6.414  0.00  0.00    -0.453 OA
ENDBRANCH  14  15
ENDBRANCH   4  14
TORSDOF 3
