REMARK  Name = ZINC12446113
REMARK  9 active torsions:
REMARK  status: ('A' for Active; 'I' for Inactive)
REMARK    1  A    between atoms: C_1  and  C_2
REMARK    2  A    between atoms: C_2  and  C_3
REMARK    3  A    between atoms: C_3  and  C_4
REMARK    4  A    between atoms: C_4  and  N_5
REMARK    5  A    between atoms: C_6  and  C_18
REMARK    6  A    between atoms: C_9  and  S_10
REMARK    7  A    between atoms: S_10  and  C_13
REMARK    8  A    between atoms: C_13  and  C_14
REMARK    9  A    between atoms: C_18  and  N_58
REMARK                            x       y       z     vdW  Elec       q    Type
REMARK                         _______ _______ _______ _____ _____    ______ ____
ROOT
ATOM      1  N   UNL     1      -1.322   4.314   4.216  0.00  0.00    -0.315 N 
ATOM      2  C   UNL     1      -1.867   4.898   3.105  0.00  0.00    +0.023 A 
ATOM      3  C   UNL     1      -1.915   6.223   3.344  0.00  0.00    +0.133 A 
ATOM      4  N   UNL     1      -1.421   6.441   4.572  0.00  0.00    -0.220 NA
ATOM      5  C   UNL     1      -1.061   5.302   5.099  0.00  0.00    +0.251 A 
ENDROOT
BRANCH   5   6
ATOM      6  S   UNL     1      -0.352   5.090   6.698  0.00  0.00    +0.030 S 
ATOM      7  O   UNL     1      -0.820   6.200   7.453  0.00  0.00    -0.166 OA
ATOM      8  O   UNL     1      -0.696   3.763   7.074  0.00  0.00    -0.166 OA
BRANCH   6   9
ATOM      9  C   UNL     1       1.438   5.222   6.436  0.00  0.00    +0.179 C 
BRANCH   9  10
ATOM     10  C   UNL     1       2.163   5.051   7.773  0.00  0.00    +0.011 C 
ATOM     11  C   UNL     1       2.330   6.364   8.555  0.00  0.00    +0.005 C 
ATOM     12  C   UNL     1       3.739   5.873   8.926  0.00  0.00    +0.001 C 
ATOM     13  C   UNL     1       3.695   5.025   7.644  0.00  0.00    +0.005 C 
ENDBRANCH   9  10
ENDBRANCH   6   9
ENDBRANCH   5   6
BRANCH   1  14
ATOM     14  C   UNL     1      -1.070   2.885   4.412  0.00  0.00    +0.125 C 
BRANCH  14  15
ATOM     15  C   UNL     1       0.365   2.558   3.993  0.00  0.00    +0.021 C 
BRANCH  15  17
ATOM     16  C   UNL     1       2.133   0.792   3.991  0.00  0.00    +0.004 C 
ATOM     17  C   UNL     1       0.666   1.091   4.307  0.00  0.00    -0.002 C 
ENDBRANCH  15  17
ENDBRANCH  14  15
ENDBRANCH   1  14
BRANCH   2  18
ATOM     18  C   UNL     1      -2.320   4.195   1.851  0.00  0.00    -0.023 C 
BRANCH  18  25
ATOM     19  C   UNL     1      -4.647   4.835   2.134  0.00  0.00    -0.078 C 
ATOM     20  C   UNL     1      -5.101   5.337   0.789  0.00  0.00    -0.019 C 
ATOM     21  C   UNL     1      -6.418   4.622   0.420  0.00  0.00    -0.002 C 
ATOM     22  C   UNL     1      -6.189   3.269  -0.075  0.00  0.00    -0.002 C 
ATOM     23  C   UNL     1      -5.506   2.372   0.979  0.00  0.00    -0.019 C 
ATOM     24  C   UNL     1      -4.038   2.699   1.006  0.00  0.00    -0.078 C 
ATOM     25  N   UNL     1      -3.681   3.686   2.081  0.00  0.00    +0.383 N 
ATOM     26  H   UNL     1      -3.705   3.201   2.986  0.00  0.00    -0.081 HD
ENDBRANCH  18  25
ENDBRANCH   2  18
TORSDOF 8
