REMARK  Name = ZINC39687604
REMARK  7 active torsions:
REMARK  status: ('A' for Active; 'I' for Inactive)
REMARK    1  A    between atoms: C_1  and  C_2
REMARK    2  A    between atoms: C_2  and  C_3
REMARK    3  A    between atoms: C_3  and  C_5
REMARK    4  A    between atoms: C_3  and  C_6
REMARK    5  A    between atoms: C_10  and  C_19
REMARK    6  A    between atoms: N_21  and  C_22
REMARK    7  A    between atoms: C_29  and  C_34
REMARK                            x       y       z     vdW  Elec       q    Type
REMARK                         _______ _______ _______ _____ _____    ______ ____
ROOT
ATOM      1  C   UNL     1      -1.476  -1.984   0.252  0.00  0.00    +0.218 C 
ATOM      2  O   UNL     1      -0.472  -2.623   0.490  0.00  0.00    -0.275 OA
ATOM      3  N   UNL     1      -2.654  -2.618   0.087  0.00  0.00    -0.300 N 
ATOM      4  C   UNL     1      -3.952  -2.030  -0.320  0.00  0.00    +0.121 C 
ATOM      5  C   UNL     1      -4.575  -3.078  -1.269  0.00  0.00    +0.100 C 
ATOM      6  C   UNL     1      -3.911  -4.408  -0.876  0.00  0.00    -0.004 C 
ATOM      7  C   UNL     1      -2.942  -4.061   0.264  0.00  0.00    +0.115 C 
ATOM      8  C   UNL     1      -3.138  -4.983  -2.060  0.00  0.00    -0.010 C 
ATOM      9  C   UNL     1      -2.534  -6.332  -1.662  0.00  0.00    -0.082 C 
ATOM     10  N   UNL     1      -3.607  -7.250  -1.259  0.00  0.00    +0.379 N 
ATOM     11  C   UNL     1      -4.285  -6.735  -0.064  0.00  0.00    -0.082 C 
ATOM     12  C   UNL     1      -4.962  -5.402  -0.394  0.00  0.00    -0.010 C 
ATOM     13  H   UNL     1      -4.274  -7.337  -2.011  0.00  0.00    -0.086 HD
ATOM     14  H   UNL     1      -3.213  -8.157  -1.056  0.00  0.00    -0.086 HD
ENDROOT
BRANCH   5  15
ATOM     15  C   UNL     1      -4.263  -2.736  -2.704  0.00  0.00    +0.218 C 
ATOM     16  O   UNL     1      -3.277  -2.083  -2.971  0.00  0.00    -0.275 OA
ATOM     17  N   UNL     1      -5.080  -3.157  -3.689  0.00  0.00    -0.312 N 
ATOM     18  H   UNL     1      -5.869  -3.680  -3.476  0.00  0.00    +0.149 HD
BRANCH  17  19
ATOM     19  C   UNL     1      -4.777  -2.825  -5.084  0.00  0.00    +0.076 C 
ATOM     20  C   UNL     1      -5.336  -1.438  -5.411  0.00  0.00    +0.041 C 
ATOM     21  C   UNL     1      -4.987  -1.080  -6.859  0.00  0.00    +0.108 C 
ATOM     22  N   UNL     1      -5.474  -2.150  -7.741  0.00  0.00    -0.316 N 
ATOM     23  C   UNL     1      -5.070  -3.535  -7.461  0.00  0.00    +0.108 C 
ATOM     24  C   UNL     1      -5.418  -3.865  -6.006  0.00  0.00    +0.041 C 
ATOM     25  C   UNL     1      -6.301  -1.857  -8.819  0.00  0.00    +0.102 A 
ATOM     26  C   UNL     1      -5.748  -1.677 -10.083  0.00  0.00    -0.012 A 
ATOM     27  C   UNL     1      -6.582  -1.386 -11.147  0.00  0.00    +0.008 A 
ATOM     28  C   UNL     1      -7.947  -1.285 -10.911  0.00  0.00    +0.018 A 
ATOM     29  C   UNL     1      -8.427  -1.476  -9.631  0.00  0.00    +0.084 A 
ATOM     30  N   UNL     1      -7.608  -1.758  -8.635  0.00  0.00    -0.349 N 
ATOM     31  C   UNL     1      -4.260  -1.796 -10.290  0.00  0.00    +0.047 C 
ATOM     32  H   UNL     1      -7.972  -1.892  -7.746  0.00  0.00    +0.167 HD
ENDBRANCH  17  19
ENDBRANCH   5  15
BRANCH   1  33
ATOM     33  C   UNL     1      -1.405  -0.483   0.140  0.00  0.00    +0.072 C 
ATOM     34  C   UNL     1      -0.065  -0.080  -0.479  0.00  0.00    +0.017 C 
BRANCH  33  36
ATOM     35  C   UNL     1      -1.585   1.662   1.408  0.00  0.00    +0.004 C 
ATOM     36  C   UNL     1      -1.531   0.138   1.533  0.00  0.00    +0.009 C 
ENDBRANCH  33  36
ENDBRANCH   1  33
TORSDOF 4
