REMARK  Name = ZINC04764462
REMARK  14 active torsions:
REMARK  status: ('A' for Active; 'I' for Inactive)
REMARK    1  A    between atoms: C_1  and  C_2
REMARK    2  A    between atoms: C_2  and  O_3
REMARK    3  A    between atoms: O_3  and  C_4
REMARK    4  A    between atoms: C_9  and  C_10
REMARK    5  A    between atoms: C_15  and  C_25
REMARK    6  A    between atoms: C_17  and  C_21
REMARK    7  A    between atoms: C_21  and  O_23
REMARK    8  A    between atoms: O_23  and  C_24
REMARK    9  A    between atoms: C_27  and  C_35
REMARK   10  A    between atoms: C_28  and  C_29
REMARK   11  A    between atoms: C_29  and  O_31
REMARK   12  A    between atoms: O_31  and  C_32
REMARK   13  A    between atoms: C_32  and  C_33
REMARK   14  A    between atoms: C_32  and  C_34
REMARK                            x       y       z     vdW  Elec       q    Type
REMARK                         _______ _______ _______ _____ _____    ______ ____
ROOT
ATOM      1  C   UNL     1      -2.055   2.485  -3.451  0.00  0.00    +0.096 C 
ATOM      2  C   UNL     1      -1.793   3.801  -4.140  0.00  0.00    +0.025 C 
ATOM      3  C   UNL     1      -2.276   4.040  -5.378  0.00  0.00    +0.016 C 
ATOM      4  C   UNL     1      -2.020   5.354  -6.072  0.00  0.00    +0.055 C 
ATOM      5  C   UNL     1      -0.676   5.925  -5.614  0.00  0.00    +0.013 C 
ATOM      6  C   UNL     1      -0.714   6.095  -4.092  0.00  0.00    +0.171 C 
ATOM      7  C   UNL     1      -1.032   4.768  -3.459  0.00  0.00    +0.176 C 
ATOM      8  O   UNL     1      -0.625   4.527  -2.340  0.00  0.00    -0.291 OA
ATOM      9  C   UNL     1      -0.442   7.283  -6.278  0.00  0.00    +0.009 C 
ATOM     10  N   UNL     1      -3.014   3.089  -6.030  0.00  0.00    -0.321 N 
ATOM     11  C   UNL     1      -3.615   2.076  -5.335  0.00  0.00    +0.016 C 
ATOM     12  C   UNL     1      -3.194   1.755  -4.100  0.00  0.00    +0.065 C 
ATOM     13  C   UNL     1      -4.756   1.315  -5.959  0.00  0.00    +0.061 C 
ATOM     14  H   UNL     1      -3.129   3.136  -7.123  0.00  0.00    +0.152 HD
ENDROOT
BRANCH   1  20
ATOM     15  C   UNL     1      -0.194   1.208  -2.359  0.00  0.00    +0.125 A 
ATOM     16  C   UNL     1       0.951   0.428  -2.431  0.00  0.00    +0.046 A 
ATOM     17  C   UNL     1       1.464   0.066  -3.661  0.00  0.00    +0.004 A 
ATOM     18  C   UNL     1       0.844   0.492  -4.822  0.00  0.00    +0.001 A 
ATOM     19  C   UNL     1      -0.294   1.274  -4.753  0.00  0.00    +0.008 A 
ATOM     20  C   UNL     1      -0.815   1.633  -3.525  0.00  0.00    +0.006 A 
BRANCH  15  21
ATOM     21  O   UNL     1      -0.704   1.559  -1.150  0.00  0.00    -0.492 OA
BRANCH  21  23
ATOM     22  C   UNL     1      -0.729   1.579   1.267  0.00  0.00    +0.048 C 
ATOM     23  C   UNL     1      -0.013   1.086   0.008  0.00  0.00    +0.225 C 
ENDBRANCH  21  23
ENDBRANCH  15  21
ENDBRANCH   1  20
BRANCH   6  24
ATOM     24  C   UNL     1       0.628   6.578  -3.603  0.00  0.00    +0.318 C 
ATOM     25  O   UNL     1       1.522   6.776  -4.391  0.00  0.00    -0.250 OA
BRANCH  24  26
ATOM     26  O   UNL     1       0.829   6.788  -2.293  0.00  0.00    -0.467 OA
ATOM     27  C   UNL     1       2.145   7.253  -1.894  0.00  0.00    +0.280 C 
ENDBRANCH  24  26
ENDBRANCH   6  24
BRANCH  12  28
ATOM     28  C   UNL     1      -3.837   0.709  -3.398  0.00  0.00    +0.338 C 
ATOM     29  O   UNL     1      -4.762   0.109  -3.914  0.00  0.00    -0.245 OA
BRANCH  28  30
ATOM     30  O   UNL     1      -3.424   0.375  -2.158  0.00  0.00    -0.459 OA
BRANCH  30  31
ATOM     31  C   UNL     1      -4.119  -0.691  -1.508  0.00  0.00    +0.171 C 
ATOM     32  C   UNL     1      -3.164  -1.417  -0.558  0.00  0.00    +0.052 C 
ATOM     33  C   UNL     1      -5.296  -0.123  -0.712  0.00  0.00    +0.052 C 
ENDBRANCH  30  31
ENDBRANCH  28  30
ENDBRANCH  12  28
TORSDOF 8
