REMARK  Name = ZINC35895875
REMARK  9 active torsions:
REMARK  status: ('A' for Active; 'I' for Inactive)
REMARK    1  A    between atoms: C_1  and  C_2
REMARK    2  A    between atoms: C_6  and  C_8
REMARK    3  A    between atoms: C_12  and  O_26
REMARK    4  A    between atoms: C_19  and  C_21
REMARK    5  A    between atoms: O_26  and  C_27
REMARK    6  A    between atoms: C_27  and  C_29
REMARK    7  A    between atoms: C_27  and  C_30
REMARK    8  A    between atoms: N_32  and  C_33
REMARK    9  A    between atoms: C_33  and  C_34
REMARK                            x       y       z     vdW  Elec       q    Type
REMARK                         _______ _______ _______ _____ _____    ______ ____
ROOT
ATOM      1  C   UNL     1       0.821  -3.088   2.842  0.00  0.00    +0.137 C 
ATOM      2  C   UNL     1      -0.532  -3.436   3.411  0.00  0.00    -0.016 A 
ATOM      3  C   UNL     1      -1.358  -2.391   3.800  0.00  0.00    +0.051 A 
ATOM      4  C   UNL     1      -2.616  -2.647   4.319  0.00  0.00    +0.122 A 
ATOM      5  C   UNL     1      -3.051  -3.958   4.449  0.00  0.00    +0.046 A 
ATOM      6  C   UNL     1      -2.226  -4.993   4.065  0.00  0.00    +0.007 A 
ATOM      7  C   UNL     1      -0.961  -4.738   3.549  0.00  0.00    -0.040 A 
ATOM      8  C   UNL     1      -0.108  -5.922   3.177  0.00  0.00    +0.054 C 
ATOM      9  C   UNL     1       1.002  -5.511   2.211  0.00  0.00    +0.114 C 
ATOM     10  N   UNL     1       1.642  -4.300   2.748  0.00  0.00    -0.284 N 
ATOM     11  C   UNL     1       2.933  -4.303   3.135  0.00  0.00    +0.283 C 
ATOM     12  O   UNL     1       3.610  -5.303   2.986  0.00  0.00    -0.267 OA
ENDROOT
BRANCH   1  18
ATOM     13  C   UNL     1       1.639   0.641  -0.393  0.00  0.00    +0.044 C 
ATOM     14  C   UNL     1       1.040  -0.705  -0.077  0.00  0.00    -0.050 A 
ATOM     15  C   UNL     1       0.334  -1.392  -1.048  0.00  0.00    +0.003 A 
ATOM     16  C   UNL     1      -0.216  -2.627  -0.758  0.00  0.00    +0.001 A 
ATOM     17  C   UNL     1      -0.058  -3.176   0.500  0.00  0.00    +0.006 A 
ATOM     18  C   UNL     1       0.649  -2.490   1.470  0.00  0.00    -0.022 A 
ATOM     19  C   UNL     1       1.202  -1.257   1.179  0.00  0.00    +0.009 A 
ENDBRANCH   1  18
BRANCH  11  20
ATOM     20  C   UNL     1       3.521  -3.102   3.737  0.00  0.00    +0.189 A 
ATOM     21  C   UNL     1       4.763  -3.011   4.297  0.00  0.00    +0.054 A 
ATOM     22  C   UNL     1       4.909  -1.688   4.743  0.00  0.00    +0.042 A 
ATOM     23  C   UNL     1       3.764  -1.038   4.439  0.00  0.00    +0.196 A 
ATOM     24  O   UNL     1       2.932  -1.892   3.829  0.00  0.00    -0.458 OA
ENDBRANCH  11  20
BRANCH   4  25
ATOM     25  O   UNL     1      -3.419  -1.619   4.701  0.00  0.00    -0.480 OA
BRANCH  25  26
ATOM     26  C   UNL     1      -4.717  -1.959   5.193  0.00  0.00    +0.255 C 
ATOM     27  C   UNL     1      -4.621  -2.318   6.677  0.00  0.00    +0.062 C 
BRANCH  26  28
ATOM     28  C   UNL     1      -5.643  -0.783   5.021  0.00  0.00    +0.254 C 
ATOM     29  O   UNL     1      -5.233   0.245   4.524  0.00  0.00    -0.272 OA
ATOM     30  N   UNL     1      -6.928  -0.873   5.417  0.00  0.00    -0.305 N 
ATOM     31  H   UNL     1      -7.257  -1.695   5.814  0.00  0.00    +0.149 HD
BRANCH  30  32
ATOM     32  C   UNL     1      -7.829   0.270   5.249  0.00  0.00    +0.178 C 
BRANCH  32  33
ATOM     33  C   UNL     1      -9.197  -0.088   5.769  0.00  0.00    +0.122 A 
ATOM     34  C   UNL     1      -9.634   0.096   7.028  0.00  0.00    +0.046 A 
ATOM     35  C   UNL     1     -10.965  -0.378   7.073  0.00  0.00    +0.041 A 
ATOM     36  C   UNL     1     -11.263  -0.823   5.839  0.00  0.00    +0.195 A 
ATOM     37  O   UNL     1     -10.190  -0.639   5.051  0.00  0.00    -0.466 OA
ENDBRANCH  32  33
ENDBRANCH  30  32
ENDBRANCH  26  28
ENDBRANCH  25  26
ENDBRANCH   4  25
TORSDOF 7
