REMARK  Name = ZINC01372088
REMARK  9 active torsions:
REMARK  status: ('A' for Active; 'I' for Inactive)
REMARK    1  A    between atoms: C_1  and  C_2
REMARK    2  A    between atoms: C_11  and  N_18
REMARK    3  A    between atoms: C_13  and  C_15
REMARK    4  A    between atoms: C_15  and  C_16
REMARK    5  A    between atoms: C_15  and  C_17
REMARK    6  A    between atoms: C_24  and  C_26
REMARK    7  A    between atoms: C_26  and  C_27
REMARK    8  A    between atoms: C_27  and  C_28
REMARK    9  A    between atoms: C_28  and  C_29
REMARK                            x       y       z     vdW  Elec       q    Type
REMARK                         _______ _______ _______ _____ _____    ______ ____
ROOT
ATOM      1  N   UNL     1       0.921  -4.705  -2.361  0.00  0.00    -0.312 N 
ATOM      2  C   UNL     1       0.453  -3.347  -2.673  0.00  0.00    +0.125 C 
ATOM      3  C   UNL     1       1.341  -2.764  -3.779  0.00  0.00    +0.126 C 
ATOM      4  N   UNL     1       1.440  -3.747  -4.868  0.00  0.00    -0.298 N 
ATOM      5  C   UNL     1       1.907  -5.105  -4.557  0.00  0.00    +0.126 C 
ATOM      6  C   UNL     1       1.025  -5.686  -3.451  0.00  0.00    +0.125 C 
ATOM      7  C   UNL     1       1.107  -3.408  -6.129  0.00  0.00    +0.216 C 
ATOM      8  O   UNL     1       0.722  -2.284  -6.374  0.00  0.00    -0.276 OA
ENDROOT
BRANCH   1  18
ATOM      9  C   UNL     1      -5.103  -7.411  -1.048  0.00  0.00    +0.008 C 
ATOM     10  C   UNL     1      -3.586  -7.223  -0.990  0.00  0.00    -0.009 C 
ATOM     11  C   UNL     1      -3.205  -5.903  -1.666  0.00  0.00    +0.008 C 
ATOM     12  C   UNL     1      -1.688  -5.825  -1.833  0.00  0.00    +0.037 C 
ATOM     13  C   UNL     1      -1.027  -6.081  -0.481  0.00  0.00    -0.025 A 
ATOM     14  C   UNL     1      -1.713  -6.686   0.515  0.00  0.00    -0.004 A 
ATOM     15  S   UNL     1      -0.578  -6.777   1.877  0.00  0.00    -0.073 S 
ATOM     16  C   UNL     1       0.812  -6.005   1.113  0.00  0.00    +0.114 A 
ATOM     17  C   UNL     1       0.344  -5.699  -0.190  0.00  0.00    +0.051 A 
ATOM     18  C   UNL     1       1.262  -5.053  -1.067  0.00  0.00    +0.133 A 
ATOM     19  N   UNL     1       2.470  -4.805  -0.563  0.00  0.00    -0.216 NA
ATOM     20  C   UNL     1       2.835  -5.120   0.663  0.00  0.00    +0.135 A 
ATOM     21  N   UNL     1       2.030  -5.722   1.531  0.00  0.00    -0.224 NA
ATOM     22  C   UNL     1      -3.128  -7.179   0.475  0.00  0.00    +0.046 C 
BRANCH  20  23
ATOM     23  C   UNL     1       4.236  -4.781   1.103  0.00  0.00    +0.051 C 
ATOM     24  C   UNL     1       4.178  -3.836   2.305  0.00  0.00    +0.015 C 
ATOM     25  C   UNL     1       4.972  -6.063   1.497  0.00  0.00    +0.015 C 
ENDBRANCH  20  23
ENDBRANCH   1  18
BRANCH   7  26
ATOM     26  C   UNL     1       1.213  -4.425  -7.236  0.00  0.00    +0.096 C 
BRANCH  26  27
ATOM     27  C   UNL     1       0.779  -3.789  -8.558  0.00  0.00    +0.018 C 
BRANCH  27  28
ATOM     28  C   UNL     1       0.887  -4.822  -9.681  0.00  0.00    +0.097 C 
BRANCH  28  29
ATOM     29  C   UNL     1       0.460  -4.195 -10.983  0.00  0.00    +0.220 C 
ATOM     30  O   UNL     1       0.103  -3.036 -11.010  0.00  0.00    -0.275 OA
ATOM     31  N   UNL     1       0.473  -4.922 -12.117  0.00  0.00    -0.261 N 
ATOM     32  C   UNL     1       0.894  -6.331 -12.111  0.00  0.00    +0.209 C 
ATOM     33  C   UNL     1       1.764  -6.590 -13.315  0.00  0.00    +0.235 C 
ATOM     34  O   UNL     1       2.619  -7.448 -13.263  0.00  0.00    -0.274 OA
ATOM     35  N   UNL     1       1.602  -5.880 -14.447  0.00  0.00    -0.283 N 
ATOM     36  C   UNL     1       0.656  -4.851 -14.518  0.00  0.00    +0.055 A 
ATOM     37  C   UNL     1       0.079  -4.361 -13.342  0.00  0.00    +0.058 A 
ATOM     38  C   UNL     1      -0.856  -3.343 -13.394  0.00  0.00    +0.025 A 
ATOM     39  C   UNL     1      -1.226  -2.813 -14.618  0.00  0.00    +0.002 A 
ATOM     40  C   UNL     1      -0.665  -3.299 -15.784  0.00  0.00    +0.002 A 
ATOM     41  C   UNL     1       0.282  -4.315 -15.740  0.00  0.00    +0.025 A 
ATOM     42  H   UNL     1       2.147  -6.084 -15.223  0.00  0.00    +0.155 HD
ENDBRANCH  28  29
ENDBRANCH  27  28
ENDBRANCH  26  27
ENDBRANCH   7  26
TORSDOF 6
