REMARK  Name = ZINC39937022
REMARK  11 active torsions:
REMARK  status: ('A' for Active; 'I' for Inactive)
REMARK    1  A    between atoms: C_3  and  O_18
REMARK    2  A    between atoms: C_6  and  C_7
REMARK    3  A    between atoms: C_7  and  C_9
REMARK    4  A    between atoms: C_7  and  C_11
REMARK    5  A    between atoms: C_9  and  N_10
REMARK    6  A    between atoms: C_11  and  O_17
REMARK    7  A    between atoms: O_18  and  C_19
REMARK    8  A    between atoms: C_21  and  O_35
REMARK    9  A    between atoms: C_23  and  O_34
REMARK   10  A    between atoms: C_25  and  O_33
REMARK   11  A    between atoms: C_27  and  C_30
REMARK                            x       y       z     vdW  Elec       q    Type
REMARK                         _______ _______ _______ _____ _____    ______ ____
ROOT
ATOM      1  C   UNL     1      -0.277   1.549   0.488  0.00  0.00    +0.007 A 
ATOM      2  C   UNL     1       0.817   2.384   0.605  0.00  0.00    +0.046 A 
ATOM      3  C   UNL     1       2.091   1.897   0.351  0.00  0.00    +0.124 A 
ATOM      4  C   UNL     1       2.262   0.571  -0.020  0.00  0.00    +0.046 A 
ATOM      5  C   UNL     1       1.165  -0.260  -0.136  0.00  0.00    +0.007 A 
ATOM      6  C   UNL     1      -0.104   0.228   0.117  0.00  0.00    -0.043 A 
ENDROOT
BRANCH   6   7
ATOM      7  C   UNL     1      -1.299  -0.681  -0.009  0.00  0.00    +0.033 C 
BRANCH   7   8
ATOM      8  C   UNL     1      -1.384  -1.586   1.221  0.00  0.00    +0.071 C 
ATOM      9  C   UNL     1      -0.184  -2.535   1.240  0.00  0.00    +0.035 C 
ATOM     10  C   UNL     1      -0.269  -3.441   2.470  0.00  0.00    +0.003 C 
ATOM     11  C   UNL     1      -0.260  -2.582   3.737  0.00  0.00    +0.000 C 
ATOM     12  C   UNL     1      -1.460  -1.633   3.718  0.00  0.00    +0.003 C 
ATOM     13  C   UNL     1      -1.375  -0.728   2.488  0.00  0.00    +0.035 C 
BRANCH   8  14
ATOM     14  O   UNL     1      -2.592  -2.347   1.170  0.00  0.00    -0.388 OA
ATOM     15  H   UNL     1      -2.713  -2.945   1.921  0.00  0.00    +0.210 HD
ENDBRANCH   8  14
ENDBRANCH   7   8
BRANCH   7  16
ATOM     16  C   UNL     1      -1.154  -1.541  -1.266  0.00  0.00    -0.076 C 
BRANCH  16  17
ATOM     17  N   UNL     1      -2.381  -2.324  -1.468  0.00  0.00    +0.379 N 
ATOM     18  H   UNL     1      -2.343  -2.785  -2.364  0.00  0.00    -0.090 HD
ATOM     19  H   UNL     1      -2.462  -3.016  -0.737  0.00  0.00    -0.090 HD
ATOM     20  H   UNL     1      -3.181  -1.710  -1.439  0.00  0.00    -0.090 HD
ENDBRANCH  16  17
ENDBRANCH   7  16
ENDBRANCH   6   7
BRANCH   3  21
ATOM     21  O   UNL     1       3.168   2.716   0.465  0.00  0.00    -0.461 OA
BRANCH  21  22
ATOM     22  C   UNL     1       4.449   2.146   0.189  0.00  0.00    +0.340 C 
ATOM     23  C   UNL     1       5.519   3.241   0.247  0.00  0.00    +0.214 C 
ATOM     24  C   UNL     1       5.565   3.823   1.663  0.00  0.00    +0.180 C 
ATOM     25  C   UNL     1       5.836   2.692   2.660  0.00  0.00    +0.186 C 
ATOM     26  C   UNL     1       4.754   1.619   2.508  0.00  0.00    +0.266 C 
ATOM     27  O   UNL     1       4.744   1.142   1.161  0.00  0.00    -0.322 OA
BRANCH  26  28
ATOM     28  C   UNL     1       5.047   0.475   3.445  0.00  0.00    +0.387 C 
ATOM     29  O   UNL     1       5.012   0.651   4.651  0.00  0.00    -0.243 OA
ATOM     30  O   UNL     1       5.318  -0.625   2.997  0.00  0.00    -0.243 OA
ENDBRANCH  26  28
BRANCH  25  31
ATOM     31  O   UNL     1       7.118   2.120   2.396  0.00  0.00    -0.386 OA
ATOM     32  H   UNL     1       7.356   1.396   2.991  0.00  0.00    +0.210 HD
ENDBRANCH  25  31
BRANCH  24  33
ATOM     33  O   UNL     1       4.313   4.441   1.967  0.00  0.00    -0.386 OA
ATOM     34  H   UNL     1       4.272   4.832   2.850  0.00  0.00    +0.210 HD
ENDBRANCH  24  33
BRANCH  23  35
ATOM     35  O   UNL     1       5.195   4.274  -0.686  0.00  0.00    -0.383 OA
ATOM     36  H   UNL     1       5.145   3.974  -1.604  0.00  0.00    +0.210 HD
ENDBRANCH  23  35
ENDBRANCH  21  22
ENDBRANCH   3  21
TORSDOF 11
