REMARK  Name = ZINC36128933
REMARK  7 active torsions:
REMARK  status: ('A' for Active; 'I' for Inactive)
REMARK    1  A    between atoms: C_1  and  C_2
REMARK    2  A    between atoms: C_2  and  C_3
REMARK    3  A    between atoms: C_7  and  C_22
REMARK    4  A    between atoms: N_10  and  S_11
REMARK    5  A    between atoms: S_11  and  C_14
REMARK    6  A    between atoms: C_17  and  N_21
REMARK    7  A    between atoms: C_19  and  C_20
REMARK                            x       y       z     vdW  Elec       q    Type
REMARK                         _______ _______ _______ _____ _____    ______ ____
ROOT
ATOM      1  S   UNL     1      -1.457   0.589  -2.060  0.00  0.00    +0.061 S 
ATOM      2  O   UNL     1      -0.127   0.489  -1.571  0.00  0.00    -0.153 OA
ATOM      3  O   UNL     1      -1.803   0.260  -3.399  0.00  0.00    -0.153 OA
ENDROOT
BRANCH   1   9
ATOM      4  C   UNL     1      -2.141  -0.441   0.366  0.00  0.00    +0.105 C 
ATOM      5  C   UNL     1      -2.065  -1.919   0.765  0.00  0.00    +0.180 C 
ATOM      6  O   UNL     1      -3.230  -2.596   0.287  0.00  0.00    -0.374 OA
ATOM      7  C   UNL     1      -3.362  -2.599  -1.137  0.00  0.00    +0.131 C 
ATOM      8  C   UNL     1      -3.504  -1.155  -1.633  0.00  0.00    +0.141 C 
ATOM      9  N   UNL     1      -2.394  -0.363  -1.081  0.00  0.00    -0.169 NA
ATOM     10  C   UNL     1      -4.603  -3.401  -1.534  0.00  0.00    +0.039 C 
BRANCH   4  12
ATOM     11  C   UNL     1      -0.606   0.253   2.211  0.00  0.00    +0.005 C 
ATOM     12  C   UNL     1      -0.817   0.250   0.696  0.00  0.00    +0.019 C 
ENDBRANCH   4  12
ENDBRANCH   1   9
BRANCH   1  13
ATOM     13  C   UNL     1      -1.963   2.257  -1.805  0.00  0.00    +0.108 A 
ATOM     14  C   UNL     1      -1.077   3.172  -1.267  0.00  0.00    +0.030 A 
ATOM     15  C   UNL     1      -1.470   4.481  -1.065  0.00  0.00    +0.024 A 
ATOM     16  C   UNL     1      -2.758   4.877  -1.405  0.00  0.00    +0.025 A 
ATOM     17  C   UNL     1      -3.645   3.955  -1.945  0.00  0.00    +0.028 A 
ATOM     18  C   UNL     1      -3.243   2.650  -2.149  0.00  0.00    -0.022 A 
ATOM     19  C   UNL     1      -4.204   1.650  -2.741  0.00  0.00    +0.046 C 
BRANCH  16  20
ATOM     20  N   UNL     1      -3.160   6.199  -1.202  0.00  0.00    -0.358 N 
ATOM     21  H   UNL     1      -2.539   6.842  -0.824  0.00  0.00    +0.142 HD
ATOM     22  H   UNL     1      -4.059   6.475  -1.439  0.00  0.00    +0.142 HD
ENDBRANCH  16  20
ENDBRANCH   1  13
TORSDOF 4
