REMARK  Name = ZINC39436234
REMARK  11 active torsions:
REMARK  status: ('A' for Active; 'I' for Inactive)
REMARK    1  A    between atoms: C_1  and  C_2
REMARK    2  A    between atoms: C_2  and  O_3
REMARK    3  A    between atoms: O_3  and  C_4
REMARK    4  A    between atoms: C_4  and  C_6
REMARK    5  A    between atoms: C_8  and  N_15
REMARK    6  A    between atoms: C_11  and  C_14
REMARK    7  A    between atoms: C_12  and  C_13
REMARK    8  A    between atoms: C_16  and  C_18
REMARK    9  A    between atoms: C_18  and  S_19
REMARK   10  A    between atoms: S_19  and  C_20
REMARK   11  A    between atoms: C_23  and  C_26
REMARK                            x       y       z     vdW  Elec       q    Type
REMARK                         _______ _______ _______ _____ _____    ______ ____
ROOT
ATOM      1  N   UNL     1       1.203  -4.390   1.112  0.00  0.00    -0.301 N 
ATOM      2  C   UNL     1       1.816  -5.524   0.718  0.00  0.00    +0.224 C 
ATOM      3  O   UNL     1       2.503  -6.145   1.501  0.00  0.00    -0.275 OA
ATOM      4  H   UNL     1       0.654  -3.893   0.485  0.00  0.00    +0.150 HD
ENDROOT
BRANCH   1   6
ATOM      5  C   UNL     1       1.250  -2.362   2.564  0.00  0.00    +0.155 C 
ATOM      6  C   UNL     1       1.367  -3.908   2.485  0.00  0.00    +0.153 C 
ATOM      7  S   UNL     1       3.106  -4.091   3.065  0.00  0.00    -0.106 S 
ATOM      8  C   UNL     1       3.681  -2.441   2.704  0.00  0.00    -0.016 C 
ATOM      9  C   UNL     1       2.599  -1.726   2.472  0.00  0.00    -0.047 C 
ATOM     10  C   UNL     1       2.724  -0.267   2.115  0.00  0.00    +0.041 C 
ATOM     11  C   UNL     1       5.111  -1.965   2.671  0.00  0.00    +0.051 C 
BRANCH   5  12
ATOM     12  C   UNL     1       0.391  -1.871   1.427  0.00  0.00    +0.317 C 
ATOM     13  O   UNL     1       0.886  -1.651   0.347  0.00  0.00    -0.250 OA
BRANCH  12  14
ATOM     14  O   UNL     1      -0.924  -1.680   1.614  0.00  0.00    -0.464 OA
BRANCH  14  16
ATOM     15  C   UNL     1      -3.145  -1.055   0.895  0.00  0.00    +0.048 C 
ATOM     16  C   UNL     1      -1.678  -1.213   0.493  0.00  0.00    +0.229 C 
ENDBRANCH  14  16
ENDBRANCH  12  14
ENDBRANCH   5  12
ENDBRANCH   1   6
BRANCH   2  17
ATOM     17  C   UNL     1       1.648  -6.020  -0.695  0.00  0.00    +0.173 C 
BRANCH  17  18
ATOM     18  S   UNL     1       2.589  -7.556  -0.912  0.00  0.00    -0.077 S 
BRANCH  18  19
ATOM     19  C   UNL     1       2.294  -8.002  -2.591  0.00  0.00    +0.185 A 
ATOM     20  H   UNL     1       3.381  -9.760  -2.846  0.00  0.00    +0.191 HD
ATOM     21  N   UNL     1       1.552  -7.336  -3.449  0.00  0.00    -0.201 NA
ATOM     22  C   UNL     1       1.553  -7.967  -4.632  0.00  0.00    +0.182 A 
ATOM     23  N   UNL     1       2.299  -9.045  -4.538  0.00  0.00    -0.152 NA
ATOM     24  N   UNL     1       2.795  -9.085  -3.225  0.00  0.00    -0.253 N 
BRANCH  22  25
ATOM     25  C   UNL     1       0.830  -7.522  -5.849  0.00  0.00    +0.021 A 
ATOM     26  C   UNL     1       0.072  -6.353  -5.823  0.00  0.00    +0.013 A 
ATOM     27  C   UNL     1      -0.598  -5.943  -6.957  0.00  0.00    +0.021 A 
ATOM     28  C   UNL     1      -0.519  -6.691  -8.119  0.00  0.00    +0.041 A 
ATOM     29  C   UNL     1       0.232  -7.853  -8.150  0.00  0.00    +0.021 A 
ATOM     30  C   UNL     1       0.912  -8.268  -7.023  0.00  0.00    +0.013 A 
ATOM     31 CL   UNL     1      -1.365  -6.170  -9.543  0.00  0.00    -0.084 Cl
ENDBRANCH  22  25
ENDBRANCH  18  19
ENDBRANCH  17  18
ENDBRANCH   2  17
TORSDOF 8
