REMARK  Name = ZINC03642352
REMARK  7 active torsions:
REMARK  status: ('A' for Active; 'I' for Inactive)
REMARK    1  A    between atoms: C_1  and  C_2
REMARK    2  A    between atoms: C_2  and  C_3
REMARK    3  A    between atoms: C_6  and  C_9
REMARK    4  A    between atoms: C_12  and  C_20
REMARK    5  A    between atoms: C_23  and  C_26
REMARK    6  A    between atoms: C_26  and  C_27
REMARK    7  A    between atoms: C_26  and  C_28
REMARK                            x       y       z     vdW  Elec       q    Type
REMARK                         _______ _______ _______ _____ _____    ______ ____
ROOT
ATOM      1  C   UNL     1       2.797  -1.919   4.683  0.00  0.00    +0.106 C 
ATOM      2  C   UNL     1       2.604  -3.434   4.813  0.00  0.00    +0.058 C 
ATOM      3  C   UNL     1       3.390  -3.955   6.023  0.00  0.00    +0.143 C 
ATOM      4  N   UNL     1       3.083  -3.116   7.181  0.00  0.00    -0.226 N 
ATOM      5  C   UNL     1       2.551  -1.872   7.103  0.00  0.00    +0.215 A 
ATOM      6  N   UNL     1       2.406  -1.417   8.319  0.00  0.00    -0.202 NA
ATOM      7  C   UNL     1       2.834  -2.335   9.192  0.00  0.00    +0.247 A 
ATOM      8  N   UNL     1       3.256  -3.388   8.538  0.00  0.00    -0.156 NA
ATOM      9  N   UNL     1       2.250  -1.266   5.889  0.00  0.00    -0.307 N 
ATOM     10  H   UNL     1       1.710  -0.462   5.836  0.00  0.00    +0.149 HD
ENDROOT
BRANCH   1  14
ATOM     11  C   UNL     1       0.731  -0.503   1.223  0.00  0.00    -0.048 A 
ATOM     12  C   UNL     1       2.097  -0.710   1.176  0.00  0.00    +0.004 A 
ATOM     13  C   UNL     1       2.766  -1.167   2.296  0.00  0.00    +0.006 A 
ATOM     14  C   UNL     1       2.068  -1.419   3.463  0.00  0.00    -0.027 A 
ATOM     15  C   UNL     1       0.702  -1.212   3.510  0.00  0.00    +0.006 A 
ATOM     16  C   UNL     1       0.034  -0.750   2.391  0.00  0.00    +0.004 A 
BRANCH  11  18
ATOM     17  C   UNL     1      -0.019   1.526   0.010  0.00  0.00    +0.009 C 
ATOM     18  C   UNL     1       0.002  -0.004   0.002  0.00  0.00    +0.032 C 
ENDBRANCH  11  18
ENDBRANCH   1  14
BRANCH   3  19
ATOM     19  C   UNL     1       2.991  -5.380   6.309  0.00  0.00    -0.023 A 
ATOM     20  C   UNL     1       1.675  -5.683   6.605  0.00  0.00    +0.006 A 
ATOM     21  C   UNL     1       1.310  -6.990   6.867  0.00  0.00    +0.004 A 
ATOM     22  C   UNL     1       2.260  -7.994   6.833  0.00  0.00    -0.045 A 
ATOM     23  C   UNL     1       3.575  -7.690   6.535  0.00  0.00    +0.004 A 
ATOM     24  C   UNL     1       3.940  -6.384   6.269  0.00  0.00    +0.006 A 
BRANCH  22  25
ATOM     25  C   UNL     1       1.862  -9.419   7.119  0.00  0.00    +0.013 C 
ATOM     26  C   UNL     1       2.176 -10.291   5.902  0.00  0.00    +0.012 C 
ATOM     27  C   UNL     1       2.643  -9.933   8.330  0.00  0.00    +0.012 C 
ENDBRANCH  22  25
ENDBRANCH   3  19
TORSDOF 4
