REMARK  Name = ZINC26224840
REMARK  11 active torsions:
REMARK  status: ('A' for Active; 'I' for Inactive)
REMARK    1  A    between atoms: C_1  and  O_2
REMARK    2  A    between atoms: O_2  and  C_3
REMARK    3  A    between atoms: C_6  and  C_9
REMARK    4  A    between atoms: C_9  and  C_11
REMARK    5  A    between atoms: C_9  and  N_30
REMARK    6  A    between atoms: C_11  and  N_12
REMARK    7  A    between atoms: C_13  and  C_15
REMARK    8  A    between atoms: C_15  and  S_16
REMARK    9  A    between atoms: S_16  and  C_17
REMARK   10  A    between atoms: C_20  and  C_25
REMARK   11  A    between atoms: N_21  and  C_22
REMARK                            x       y       z     vdW  Elec       q    Type
REMARK                         _______ _______ _______ _____ _____    ______ ____
ROOT
ATOM      1  N   UNL     1       6.098   5.547  -1.249  0.00  0.00    -0.316 N 
ATOM      2  C   UNL     1       5.432   4.572  -0.599  0.00  0.00    +0.223 C 
ATOM      3  O   UNL     1       5.984   3.520  -0.354  0.00  0.00    -0.275 OA
ATOM      4  H   UNL     1       5.597   6.501  -1.471  0.00  0.00    +0.149 HD
ENDROOT
BRANCH   1   5
ATOM      5  C   UNL     1       7.488   5.336  -1.660  0.00  0.00    +0.093 C 
BRANCH   5   6
ATOM      6  C   UNL     1       8.005   6.588  -2.373  0.00  0.00    -0.020 C 
BRANCH   6   7
ATOM      7  N   UNL     1       7.109   6.921  -3.488  0.00  0.00    +0.385 N 
ATOM      8  C   UNL     1       7.183   5.904  -4.545  0.00  0.00    -0.078 C 
ATOM      9  C   UNL     1       6.135   6.205  -5.619  0.00  0.00    -0.019 C 
ATOM     10  C   UNL     1       6.396   7.595  -6.204  0.00  0.00    -0.004 C 
ATOM     11  C   UNL     1       6.361   8.630  -5.076  0.00  0.00    -0.019 C 
ATOM     12  C   UNL     1       7.402   8.258  -4.017  0.00  0.00    -0.078 C 
ATOM     13  H   UNL     1       6.078   6.931  -3.104  0.00  0.00    -0.081 HD
ENDBRANCH   6   7
BRANCH   6  17
ATOM     14  C   UNL     1      11.937   5.850  -3.875  0.00  0.00    +0.120 A 
ATOM     15  C   UNL     1      11.686   6.978  -3.108  0.00  0.00    +0.046 A 
ATOM     16  C   UNL     1      10.414   7.215  -2.624  0.00  0.00    +0.005 A 
ATOM     17  C   UNL     1       9.391   6.327  -2.903  0.00  0.00    -0.059 A 
ATOM     18  C   UNL     1       9.639   5.199  -3.662  0.00  0.00    +0.005 A 
ATOM     19  C   UNL     1      10.908   4.961  -4.154  0.00  0.00    +0.046 A 
BRANCH  14  21
ATOM     20  C   UNL     1      13.371   4.433  -5.135  0.00  0.00    +0.277 C 
ATOM     21  O   UNL     1      13.187   5.615  -4.352  0.00  0.00    -0.495 OA
ENDBRANCH  14  21
ENDBRANCH   6  17
ENDBRANCH   5   6
ENDBRANCH   1   5
BRANCH   2  22
ATOM     22  C   UNL     1       4.002   4.789  -0.177  0.00  0.00    +0.173 C 
BRANCH  22  23
ATOM     23  S   UNL     1       3.390   3.308   0.666  0.00  0.00    -0.077 S 
BRANCH  23  24
ATOM     24  C   UNL     1       1.747   3.825   1.039  0.00  0.00    +0.193 A 
ATOM     25  N   UNL     1       1.210   4.986   0.742  0.00  0.00    -0.122 NA
ATOM     26  N   UNL     1      -0.005   5.031   1.159  0.00  0.00    -0.128 NA
ATOM     27  C   UNL     1      -0.321   3.896   1.744  0.00  0.00    +0.172 A 
ATOM     28  N   UNL     1       0.795   3.091   1.690  0.00  0.00    -0.299 N 
BRANCH  27  29
ATOM     29  C   UNL     1      -1.620   3.554   2.346  0.00  0.00    +0.056 A 
ATOM     30  C   UNL     1      -2.663   4.380   2.679  0.00  0.00    +0.019 A 
ATOM     31  C   UNL     1      -3.793   3.825   3.237  0.00  0.00    +0.008 A 
ATOM     32  C   UNL     1      -3.841   2.483   3.439  0.00  0.00    +0.046 A 
ATOM     33  S   UNL     1      -2.251   1.953   2.824  0.00  0.00    -0.094 S 
ENDBRANCH  27  29
BRANCH  28  34
ATOM     34  C   UNL     1       0.931   1.730   2.216  0.00  0.00    +0.091 C 
ATOM     35  C   UNL     1       2.347   1.175   2.379  0.00  0.00    +0.027 C 
ATOM     36  C   UNL     1       1.444   0.652   1.259  0.00  0.00    +0.027 C 
ENDBRANCH  28  34
ENDBRANCH  23  24
ENDBRANCH  22  23
ENDBRANCH   2  22
TORSDOF 10
