REMARK  Name = ZINC11053081
REMARK  11 active torsions:
REMARK  status: ('A' for Active; 'I' for Inactive)
REMARK    1  A    between atoms: C_1  and  C_2
REMARK    2  A    between atoms: C_2  and  C_3
REMARK    3  A    between atoms: C_2  and  N_4
REMARK    4  A    between atoms: C_9  and  C_18
REMARK    5  A    between atoms: C_11  and  C_13
REMARK    6  A    between atoms: N_20  and  C_21
REMARK    7  A    between atoms: C_21  and  C_23
REMARK    8  A    between atoms: C_21  and  C_31
REMARK    9  A    between atoms: C_26  and  O_29
REMARK   10  A    between atoms: O_29  and  C_30
REMARK   11  A    between atoms: N_35  and  C_36
REMARK                            x       y       z     vdW  Elec       q    Type
REMARK                         _______ _______ _______ _____ _____    ______ ____
ROOT
ATOM      1  C   UNL     1      -3.023   1.983   5.322  0.00  0.00    +0.246 C 
ATOM      2  O   UNL     1      -2.964   3.190   5.196  0.00  0.00    -0.270 OA
ATOM      3  N   UNL     1      -3.627   1.446   6.400  0.00  0.00    -0.298 N 
ATOM      4  H   UNL     1      -3.675   0.483   6.501  0.00  0.00    +0.150 HD
ENDROOT
BRANCH   1  10
ATOM      5  N   UNL     1      -0.698   1.558   1.213  0.00  0.00    -0.244 N 
ATOM      6  C   UNL     1      -1.243   0.767   2.192  0.00  0.00    +0.160 A 
ATOM      7  C   UNL     1      -1.793   1.642   3.150  0.00  0.00    +0.051 A 
ATOM      8  C   UNL     1      -1.552   2.956   2.699  0.00  0.00    +0.145 A 
ATOM      9  N   UNL     1      -0.906   2.896   1.569  0.00  0.00    -0.177 NA
ATOM     10  C   UNL     1      -2.432   1.102   4.291  0.00  0.00    +0.051 A 
ATOM     11  C   UNL     1      -2.488  -0.281   4.414  0.00  0.00    +0.045 A 
ATOM     12  C   UNL     1      -1.916  -1.080   3.416  0.00  0.00    +0.109 A 
ATOM     13  N   UNL     1      -1.324  -0.545   2.358  0.00  0.00    -0.224 NA
BRANCH  12  14
ATOM     14  C   UNL     1      -1.974  -2.549   3.545  0.00  0.00    +0.153 A 
ATOM     15  C   UNL     1      -1.470  -3.450   2.658  0.00  0.00    +0.051 A 
ATOM     16  C   UNL     1      -1.745  -4.729   3.178  0.00  0.00    +0.042 A 
ATOM     17  C   UNL     1      -2.404  -4.549   4.340  0.00  0.00    +0.196 A 
ATOM     18  O   UNL     1      -2.540  -3.232   4.559  0.00  0.00    -0.461 OA
ENDBRANCH  12  14
BRANCH   5  20
ATOM     19  C   UNL     1       1.423   1.615  -0.003  0.00  0.00    +0.032 C 
ATOM     20  C   UNL     1      -0.013   1.086   0.008  0.00  0.00    +0.103 C 
ATOM     21  C   UNL     1      -0.753   1.593  -1.232  0.00  0.00    +0.032 C 
ENDBRANCH   5  20
ENDBRANCH   1  10
BRANCH   3  22
ATOM     22  C   UNL     1      -4.213   2.319   7.421  0.00  0.00    +0.170 C 
BRANCH  22  23
ATOM     23  C   UNL     1      -5.306   1.579   8.148  0.00  0.00    -0.020 A 
ATOM     24  C   UNL     1      -5.141   0.243   8.467  0.00  0.00    +0.009 A 
ATOM     25  C   UNL     1      -6.139  -0.436   9.139  0.00  0.00    +0.046 A 
ATOM     26  C   UNL     1      -7.312   0.219   9.482  0.00  0.00    +0.120 A 
ATOM     27  C   UNL     1      -7.478   1.558   9.156  0.00  0.00    +0.046 A 
ATOM     28  C   UNL     1      -6.474   2.234   8.490  0.00  0.00    +0.009 A 
BRANCH  26  29
ATOM     29  O   UNL     1      -8.298  -0.449  10.137  0.00  0.00    -0.495 OA
ATOM     30  C   UNL     1      -8.059  -1.824  10.440  0.00  0.00    +0.277 C 
ENDBRANCH  26  29
ENDBRANCH  22  23
BRANCH  22  31
ATOM     31  C   UNL     1      -3.146   2.729   8.403  0.00  0.00    +0.134 A 
ATOM     32  N   UNL     1      -2.262   1.935   8.943  0.00  0.00    -0.238 NA
ATOM     33  C   UNL     1      -1.473   2.643   9.764  0.00  0.00    +0.130 A 
ATOM     34  C   UNL     1      -1.887   3.925   9.737  0.00  0.00    +0.106 A 
ATOM     35  N   UNL     1      -2.948   3.980   8.874  0.00  0.00    -0.336 N 
ATOM     36  C   UNL     1      -3.725   5.172   8.526  0.00  0.00    +0.150 C 
ENDBRANCH  22  31
ENDBRANCH   3  22
TORSDOF 7
