REMARK  Name = ZINC12833063
REMARK  13 active torsions:
REMARK  status: ('A' for Active; 'I' for Inactive)
REMARK    1  A    between atoms: C_1  and  C_2
REMARK    2  A    between atoms: C_2  and  O_3
REMARK    3  A    between atoms: O_3  and  C_4
REMARK    4  A    between atoms: C_4  and  C_6
REMARK    5  A    between atoms: C_6  and  N_7
REMARK    6  A    between atoms: C_8  and  C_12
REMARK    7  A    between atoms: C_12  and  N_62
REMARK    8  A    between atoms: C_13  and  C_14
REMARK    9  A    between atoms: C_13  and  N_62
REMARK   10  A    between atoms: C_21  and  C_22
REMARK   11  A    between atoms: C_21  and  N_62
REMARK   12  A    between atoms: C_26  and  C_35
REMARK   13  A    between atoms: C_28  and  C_34
REMARK                            x       y       z     vdW  Elec       q    Type
REMARK                         _______ _______ _______ _____ _____    ______ ____
ROOT
ATOM      1  N   UNL     1      -1.978   8.334  -0.733  0.00  0.00    +0.390 N 
ATOM      2  H   UNL     1      -2.811   7.755  -0.893  0.00  0.00    -0.080 HD
ENDROOT
BRANCH   1   3
ATOM      3  C   UNL     1      -2.167   9.642  -1.395  0.00  0.00    +0.001 C 
BRANCH   3   5
ATOM      4  N   UNL     1      -1.783   9.468  -3.910  0.00  0.00    -0.220 N 
ATOM      5  C   UNL     1      -2.578   9.408  -2.825  0.00  0.00    +0.136 A 
ATOM      6  N   UNL     1      -3.780   9.112  -3.256  0.00  0.00    -0.115 NA
ATOM      7  N   UNL     1      -3.725   8.991  -4.538  0.00  0.00    -0.023 NA
ATOM      8  N   UNL     1      -2.519   9.202  -4.936  0.00  0.00    -0.043 NA
BRANCH   4   9
ATOM      9  C   UNL     1      -0.350   9.773  -3.923  0.00  0.00    +0.267 C 
BRANCH   9  10
ATOM     10  C   UNL     1       0.431   8.508  -4.169  0.00  0.00    +0.329 C 
ATOM     11  O   UNL     1      -0.148   7.485  -4.448  0.00  0.00    -0.249 OA
BRANCH  10  12
ATOM     12  O   UNL     1       1.770   8.518  -4.079  0.00  0.00    -0.464 OA
BRANCH  12  14
ATOM     13  C   UNL     1       3.966   7.470  -4.182  0.00  0.00    +0.048 C 
ATOM     14  C   UNL     1       2.457   7.264  -4.329  0.00  0.00    +0.229 C 
ENDBRANCH  12  14
ENDBRANCH  10  12
ENDBRANCH   9  10
ENDBRANCH   4   9
ENDBRANCH   3   5
ENDBRANCH   1   3
BRANCH   1  15
ATOM     15  C   UNL     1      -0.799   7.646  -1.302  0.00  0.00    -0.042 C 
BRANCH  15  16
ATOM     16  C   UNL     1      -0.810   6.209  -0.847  0.00  0.00    -0.064 A 
ATOM     17  C   UNL     1      -0.057   5.826   0.247  0.00  0.00    +0.004 A 
ATOM     18  C   UNL     1      -0.070   4.510   0.669  0.00  0.00    +0.038 A 
ATOM     19  C   UNL     1      -0.829   3.573  -0.012  0.00  0.00    +0.123 A 
ATOM     20  C   UNL     1      -1.579   3.957  -1.111  0.00  0.00    +0.038 A 
ATOM     21  C   UNL     1      -1.569   5.275  -1.527  0.00  0.00    +0.004 A 
ATOM     22  F   UNL     1      -0.839   2.285   0.396  0.00  0.00    -0.205 F 
ENDBRANCH  15  16
ENDBRANCH   1  15
BRANCH   1  23
ATOM     23  C   UNL     1      -1.798   8.524   0.722  0.00  0.00    -0.036 C 
BRANCH  23  24
ATOM     24  C   UNL     1      -3.145   8.787   1.344  0.00  0.00    +0.001 A 
ATOM     25  C   UNL     1      -3.873   7.756   1.839  0.00  0.00    +0.017 A 
ATOM     26  C   UNL     1      -5.178   8.045   2.437  0.00  0.00    -0.001 A 
ATOM     27  C   UNL     1      -5.974   7.024   2.965  0.00  0.00    +0.013 A 
ATOM     28  C   UNL     1      -7.186   7.326   3.517  0.00  0.00    -0.050 A 
ATOM     29  C   UNL     1      -7.635   8.640   3.559  0.00  0.00    +0.008 A 
ATOM     30  C   UNL     1      -6.870   9.662   3.040  0.00  0.00    -0.026 A 
ATOM     31  C   UNL     1      -5.629   9.378   2.478  0.00  0.00    +0.052 A 
ATOM     32  N   UNL     1      -4.840  10.381   1.958  0.00  0.00    -0.322 N 
ATOM     33  H   UNL     1      -5.152  11.299   1.988  0.00  0.00    +0.169 HD
ATOM     34  C   UNL     1      -3.643  10.106   1.411  0.00  0.00    +0.251 A 
ATOM     35  O   UNL     1      -2.972  11.018   0.960  0.00  0.00    -0.268 OA
ATOM     36  C   UNL     1      -7.372  11.082   3.087  0.00  0.00    +0.046 C 
ATOM     37  C   UNL     1      -8.044   6.226   4.085  0.00  0.00    +0.044 C 
ENDBRANCH  23  24
ENDBRANCH   1  23
TORSDOF 10
