REMARK  Name = ZINC65490951
REMARK  1 active torsions:
REMARK  status: ('A' for Active; 'I' for Inactive)
REMARK    1  A    between atoms: C_11  and  C_13
REMARK                            x       y       z     vdW  Elec       q    Type
REMARK                         _______ _______ _______ _____ _____    ______ ____
ROOT
ATOM      1  C   UNL     1      -0.293   1.975   0.018  0.00  0.00    +0.000 C 
ATOM      2  C   UNL     1       1.160   2.418   0.039  0.00  0.00    +0.000 C 
ATOM      3  C   UNL     1       1.900   1.989  -1.221  0.00  0.00    +0.005 C 
ATOM      4  C   UNL     1       1.191   2.581  -2.441  0.00  0.00    +0.044 C 
ATOM      5  C   UNL     1       0.019   1.739  -2.850  0.00  0.00    +0.014 A 
ATOM      6  C   UNL     1      -0.507   0.603  -2.367  0.00  0.00    +0.054 A 
ATOM      7  N   UNL     1      -1.600   0.169  -3.018  0.00  0.00    -0.229 NA
ATOM      8  C   UNL     1      -2.096   0.798  -4.052  0.00  0.00    +0.165 A 
ATOM      9  S   UNL     1      -1.056   2.108  -4.226  0.00  0.00    -0.057 S 
ATOM     10  N   UNL     1      -3.207   0.466  -4.818  0.00  0.00    -0.264 N 
ATOM     11  C   UNL     1      -3.568   1.246  -5.856  0.00  0.00    +0.223 C 
ATOM     12  O   UNL     1      -2.922   2.238  -6.122  0.00  0.00    -0.275 OA
ATOM     13  C   UNL     1       0.041  -0.191  -1.200  0.00  0.00    +0.056 C 
ATOM     14  C   UNL     1      -0.321   0.451   0.131  0.00  0.00    +0.006 C 
ATOM     15  H   UNL     1      -3.723  -0.327  -4.605  0.00  0.00    +0.157 HD
ENDROOT
BRANCH  11  16
ATOM     16  C   UNL     1      -4.773   0.886  -6.687  0.00  0.00    +0.093 C 
ATOM     17  C   UNL     1      -4.960   1.927  -7.793  0.00  0.00    +0.016 C 
ATOM     18  C   UNL     1      -6.202   1.580  -8.617  0.00  0.00    +0.020 C 
ATOM     19  C   UNL     1      -6.010   0.208  -9.271  0.00  0.00    +0.109 C 
ATOM     20  N   UNL     1      -5.686  -0.772  -8.225  0.00  0.00    -0.285 N 
ATOM     21  C   UNL     1      -4.565  -0.494  -7.318  0.00  0.00    +0.122 C 
ATOM     22  C   UNL     1      -6.404  -1.906  -8.101  0.00  0.00    +0.305 C 
ATOM     23  O   UNL     1      -7.448  -2.035  -8.711  0.00  0.00    -0.252 OA
ATOM     24  N   UNL     1      -5.965  -2.898  -7.301  0.00  0.00    -0.285 N 
ATOM     25  C   UNL     1      -4.831  -2.808  -6.369  0.00  0.00    +0.109 C 
ATOM     26  C   UNL     1      -4.686  -4.186  -5.690  0.00  0.00    +0.020 C 
ATOM     27  C   UNL     1      -5.388  -5.142  -6.691  0.00  0.00    +0.020 C 
ATOM     28  C   UNL     1      -6.546  -4.250  -7.210  0.00  0.00    +0.109 C 
ENDBRANCH  11  16
TORSDOF 1
