REMARK  Name = ZINC05826149
REMARK  15 active torsions:
REMARK  status: ('A' for Active; 'I' for Inactive)
REMARK    1  A    between atoms: C_1  and  C_2
REMARK    2  A    between atoms: C_2  and  C_3
REMARK    3  A    between atoms: C_3  and  C_4
REMARK    4  A    between atoms: C_4  and  N_60
REMARK    5  A    between atoms: C_5  and  N_60
REMARK    6  A    between atoms: C_6  and  C_7
REMARK    7  A    between atoms: C_6  and  N_60
REMARK    8  A    between atoms: C_8  and  O_30
REMARK    9  A    between atoms: C_15  and  C_16
REMARK   10  A    between atoms: C_18  and  O_26
REMARK   11  A    between atoms: C_19  and  O_24
REMARK   12  A    between atoms: C_20  and  O_22
REMARK   13  A    between atoms: O_22  and  C_23
REMARK   14  A    between atoms: O_24  and  C_25
REMARK   15  A    between atoms: O_26  and  C_27
REMARK                            x       y       z     vdW  Elec       q    Type
REMARK                         _______ _______ _______ _____ _____    ______ ____
ROOT
ATOM      1  C   UNL     1      -1.167  10.378   1.295  0.00  0.00    +0.020 A 
ATOM      2  C   UNL     1      -1.077  11.693   0.866  0.00  0.00    +0.122 A 
ATOM      3  C   UNL     1      -0.471  12.001  -0.349  0.00  0.00    +0.046 A 
ATOM      4  C   UNL     1       0.042  11.005  -1.132  0.00  0.00    +0.019 A 
ATOM      5  C   UNL     1      -0.041   9.678  -0.712  0.00  0.00    +0.068 A 
ATOM      6  C   UNL     1      -0.650   9.354   0.512  0.00  0.00    +0.144 A 
ATOM      7  O   UNL     1      -0.616   8.017   0.698  0.00  0.00    -0.451 OA
ATOM      8  C   UNL     1      -0.006   7.381  -0.330  0.00  0.00    +0.176 C 
ATOM      9  C   UNL     1       0.190   6.042  -0.442  0.00  0.00    +0.058 C 
ATOM     10  C   UNL     1       0.401   8.402  -1.306  0.00  0.00    +0.231 C 
ATOM     11  O   UNL     1       0.975   8.233  -2.368  0.00  0.00    -0.283 OA
ENDROOT
BRANCH   9  12
ATOM     12  C   UNL     1      -0.127   5.157   0.685  0.00  0.00    -0.014 A 
ATOM     13  C   UNL     1      -0.063   3.767   0.527  0.00  0.00    +0.057 A 
ATOM     14  C   UNL     1      -0.362   2.938   1.590  0.00  0.00    +0.166 A 
ATOM     15  C   UNL     1      -0.723   3.482   2.821  0.00  0.00    +0.204 A 
ATOM     16  C   UNL     1      -0.794   4.864   2.981  0.00  0.00    +0.166 A 
ATOM     17  C   UNL     1      -0.496   5.701   1.923  0.00  0.00    +0.057 A 
BRANCH  16  18
ATOM     18  O   UNL     1      -1.151   5.391   4.183  0.00  0.00    -0.491 OA
ATOM     19  C   UNL     1      -1.197   6.816   4.279  0.00  0.00    +0.277 C 
ENDBRANCH  16  18
BRANCH  15  20
ATOM     20  O   UNL     1      -1.012   2.663   3.866  0.00  0.00    -0.488 OA
ATOM     21  C   UNL     1      -2.372   2.251   4.011  0.00  0.00    +0.277 C 
ENDBRANCH  15  20
BRANCH  14  22
ATOM     22  O   UNL     1      -0.300   1.588   1.437  0.00  0.00    -0.491 OA
ATOM     23  C   UNL     1       0.083   1.098   0.151  0.00  0.00    +0.277 C 
ENDBRANCH  14  22
ENDBRANCH   9  12
BRANCH   2  24
ATOM     24  O   UNL     1      -1.584  12.688   1.636  0.00  0.00    -0.506 OA
ATOM     25  H   UNL     1      -2.510  12.896   1.450  0.00  0.00    +0.292 HD
ENDBRANCH   2  24
BRANCH   1  26
ATOM     26  C   UNL     1      -1.825  10.060   2.613  0.00  0.00    -0.036 C 
BRANCH  26  28
ATOM     27  C   UNL     1      -3.931  11.062   1.964  0.00  0.00    -0.096 C 
ATOM     28  N   UNL     1      -3.263   9.811   2.380  0.00  0.00    +0.381 N 
ATOM     29  H   UNL     1      -3.364   9.114   1.633  0.00  0.00    -0.082 HD
BRANCH  28  30
ATOM     30  C   UNL     1      -3.891   9.288   3.612  0.00  0.00    -0.079 C 
BRANCH  30  31
ATOM     31  C   UNL     1      -5.314   8.831   3.284  0.00  0.00    -0.019 C 
BRANCH  31  33
ATOM     32  C   UNL     1      -7.394   7.809   4.217  0.00  0.00    +0.004 C 
ATOM     33  C   UNL     1      -5.971   8.266   4.545  0.00  0.00    -0.005 C 
ENDBRANCH  31  33
ENDBRANCH  30  31
ENDBRANCH  28  30
ENDBRANCH  26  28
ENDBRANCH   1  26
TORSDOF 10
