REMARK  Name = ZINC13064794
REMARK  15 active torsions:
REMARK  status: ('A' for Active; 'I' for Inactive)
REMARK    1  A    between atoms: C_1  and  C_2
REMARK    2  A    between atoms: C_2  and  C_3
REMARK    3  A    between atoms: C_3  and  C_5
REMARK    4  A    between atoms: C_3  and  N_68
REMARK    5  A    between atoms: N_9  and  C_10
REMARK    6  A    between atoms: C_10  and  C_11
REMARK    7  A    between atoms: C_10  and  C_12
REMARK    8  A    between atoms: C_10  and  C_13
REMARK    9  A    between atoms: C_13  and  C_14
REMARK   10  A    between atoms: C_15  and  C_16
REMARK   11  A    between atoms: C_15  and  N_68
REMARK   12  A    between atoms: C_21  and  C_22
REMARK   13  A    between atoms: C_21  and  N_68
REMARK   14  A    between atoms: C_25  and  C_35
REMARK   15  A    between atoms: C_27  and  C_34
REMARK                            x       y       z     vdW  Elec       q    Type
REMARK                         _______ _______ _______ _____ _____    ______ ____
ROOT
ATOM      1  N   UNL     1       5.384   4.446  -1.689  0.00  0.00    +0.394 N 
ATOM      2  H   UNL     1       5.236   4.150  -2.661  0.00  0.00    -0.080 HD
ENDROOT
BRANCH   1   3
ATOM      3  C   UNL     1       6.606   5.275  -1.621  0.00  0.00    +0.003 C 
BRANCH   3   4
ATOM      4  C   UNL     1       7.025   5.481  -0.188  0.00  0.00    +0.139 A 
ATOM      5  N   UNL     1       6.959   4.601   0.781  0.00  0.00    -0.115 NA
ATOM      6  N   UNL     1       7.411   5.155   1.853  0.00  0.00    -0.023 NA
ATOM      7  N   UNL     1       7.757   6.368   1.594  0.00  0.00    -0.043 NA
ATOM      8  N   UNL     1       7.534   6.607   0.346  0.00  0.00    -0.225 N 
BRANCH   8   9
ATOM      9  C   UNL     1       7.787   7.867  -0.358  0.00  0.00    +0.061 C 
ATOM     10  C   UNL     1       8.654   7.598  -1.589  0.00  0.00    +0.036 C 
ATOM     11  C   UNL     1       6.457   8.483  -0.795  0.00  0.00    +0.036 C 
BRANCH   9  12
ATOM     12  C   UNL     1       8.515   8.835   0.577  0.00  0.00    +0.026 C 
ATOM     13  C   UNL     1       8.779  10.151  -0.158  0.00  0.00    +0.006 C 
ENDBRANCH   9  12
ENDBRANCH   8   9
ENDBRANCH   3   4
BRANCH   3  15
ATOM     14  C   UNL     1       7.345   4.445  -3.859  0.00  0.00    +0.002 C 
ATOM     15  C   UNL     1       7.727   4.563  -2.382  0.00  0.00    -0.011 C 
ENDBRANCH   3  15
ENDBRANCH   1   3
BRANCH   1  16
ATOM     16  C   UNL     1       4.215   5.231  -1.242  0.00  0.00    -0.002 C 
BRANCH  16  17
ATOM     17  C   UNL     1       3.835   6.197  -2.334  0.00  0.00    +0.089 A 
ATOM     18  C   UNL     1       3.072   5.913  -3.405  0.00  0.00    +0.042 A 
ATOM     19  C   UNL     1       2.973   7.102  -4.164  0.00  0.00    +0.041 A 
ATOM     20  C   UNL     1       3.681   8.042  -3.511  0.00  0.00    +0.195 A 
ATOM     21  O   UNL     1       4.196   7.489  -2.401  0.00  0.00    -0.470 OA
ENDBRANCH  16  17
ENDBRANCH   1  16
BRANCH   1  22
ATOM     22  C   UNL     1       5.541   3.245  -0.841  0.00  0.00    -0.036 C 
BRANCH  22  23
ATOM     23  C   UNL     1       4.550   2.204  -1.292  0.00  0.00    +0.001 A 
ATOM     24  C   UNL     1       4.926   1.254  -2.184  0.00  0.00    +0.017 A 
ATOM     25  C   UNL     1       3.940   0.257  -2.602  0.00  0.00    +0.002 A 
ATOM     26  C   UNL     1       4.269  -0.747  -3.520  0.00  0.00    -0.041 A 
ATOM     27  C   UNL     1       3.326  -1.663  -3.889  0.00  0.00    +0.007 A 
ATOM     28  C   UNL     1       2.043  -1.607  -3.363  0.00  0.00    -0.048 A 
ATOM     29  C   UNL     1       1.696  -0.627  -2.458  0.00  0.00    +0.029 A 
ATOM     30  C   UNL     1       2.640   0.316  -2.066  0.00  0.00    +0.050 A 
ATOM     31  N   UNL     1       2.320   1.307  -1.163  0.00  0.00    -0.322 N 
ATOM     32  H   UNL     1       1.423   1.347  -0.795  0.00  0.00    +0.169 HD
ATOM     33  C   UNL     1       3.233   2.220  -0.785  0.00  0.00    +0.251 A 
ATOM     34  O   UNL     1       2.914   3.082   0.015  0.00  0.00    -0.268 OA
ATOM     35  C   UNL     1       1.018  -2.628  -3.786  0.00  0.00    +0.044 C 
ATOM     36  C   UNL     1       5.660  -0.817  -4.097  0.00  0.00    +0.044 C 
ENDBRANCH  22  23
ENDBRANCH   1  22
TORSDOF 9
