REMARK  Name = ZINC04064610
REMARK  11 active torsions:
REMARK  status: ('A' for Active; 'I' for Inactive)
REMARK    1  A    between atoms: C_1  and  C_2
REMARK    2  A    between atoms: C_5  and  C_8
REMARK    3  A    between atoms: C_8  and  N_66
REMARK    4  A    between atoms: C_11  and  O_32
REMARK    5  A    between atoms: C_18  and  C_20
REMARK    6  A    between atoms: C_22  and  O_30
REMARK    7  A    between atoms: C_23  and  O_28
REMARK    8  A    between atoms: C_24  and  O_26
REMARK    9  A    between atoms: O_26  and  C_27
REMARK   10  A    between atoms: O_28  and  C_29
REMARK   11  A    between atoms: O_30  and  C_31
REMARK                            x       y       z     vdW  Elec       q    Type
REMARK                         _______ _______ _______ _____ _____    ______ ____
ROOT
ATOM      1  C   UNL     1      -3.128   4.947   3.457  0.00  0.00    -0.075 C 
ATOM      2  C   UNL     1      -3.002   6.472   3.459  0.00  0.00    +0.016 C 
ATOM      3  C   UNL     1      -3.908   7.050   4.551  0.00  0.00    +0.066 C 
ATOM      4  C   UNL     1      -5.361   6.680   4.245  0.00  0.00    +0.035 C 
ATOM      5  C   UNL     1      -6.272   7.225   5.345  0.00  0.00    +0.003 C 
ATOM      6  C   UNL     1      -5.868   6.615   6.689  0.00  0.00    +0.000 C 
ATOM      7  C   UNL     1      -4.418   6.988   7.000  0.00  0.00    +0.005 C 
ATOM      8  C   UNL     1      -3.502   6.451   5.901  0.00  0.00    +0.011 C 
ATOM      9  C   UNL     1      -3.616   4.927   5.832  0.00  0.00    -0.031 C 
ATOM     10  N   UNL     1      -2.709   4.427   4.776  0.00  0.00    +0.387 N 
ATOM     11  H   UNL     1      -1.755   4.753   4.975  0.00  0.00    -0.080 HD
ENDROOT
BRANCH   9  12
ATOM     12  C   UNL     1      -3.203   4.333   7.154  0.00  0.00    -0.053 A 
ATOM     13  C   UNL     1      -1.862   4.181   7.452  0.00  0.00    +0.051 A 
ATOM     14  C   UNL     1      -1.477   3.639   8.669  0.00  0.00    +0.165 A 
ATOM     15  C   UNL     1      -2.443   3.239   9.586  0.00  0.00    +0.204 A 
ATOM     16  C   UNL     1      -3.790   3.389   9.280  0.00  0.00    +0.165 A 
ATOM     17  C   UNL     1      -4.166   3.936   8.062  0.00  0.00    +0.051 A 
BRANCH  16  18
ATOM     18  O   UNL     1      -4.739   2.998  10.172  0.00  0.00    -0.491 OA
ATOM     19  C   UNL     1      -6.103   3.181   9.791  0.00  0.00    +0.277 C 
ENDBRANCH  16  18
BRANCH  15  20
ATOM     20  O   UNL     1      -2.070   2.702  10.779  0.00  0.00    -0.488 OA
ATOM     21  C   UNL     1      -1.903   1.284  10.829  0.00  0.00    +0.277 C 
ENDBRANCH  15  20
BRANCH  14  22
ATOM     22  O   UNL     1      -0.158   3.495   8.964  0.00  0.00    -0.491 OA
ATOM     23  C   UNL     1       0.779   3.928   7.976  0.00  0.00    +0.277 C 
ENDBRANCH  14  22
ENDBRANCH   9  12
BRANCH   3  24
ATOM     24  O   UNL     1      -3.775   8.472   4.598  0.00  0.00    -0.388 OA
ATOM     25  H   UNL     1      -4.016   8.917   3.774  0.00  0.00    +0.210 HD
ENDBRANCH   3  24
BRANCH  10  26
ATOM     26  C   UNL     1      -2.717   2.950   4.762  0.00  0.00    -0.042 C 
BRANCH  26  31
ATOM     27  C   UNL     1      -0.013   1.086   0.008  0.00  0.00    +0.044 C 
ATOM     28  C   UNL     1      -0.718   1.572   1.248  0.00  0.00    -0.050 A 
ATOM     29  C   UNL     1      -2.083   1.789   1.226  0.00  0.00    +0.003 A 
ATOM     30  C   UNL     1      -2.731   2.230   2.365  0.00  0.00    +0.002 A 
ATOM     31  C   UNL     1      -2.012   2.464   3.522  0.00  0.00    -0.064 A 
ATOM     32  C   UNL     1      -0.646   2.252   3.542  0.00  0.00    +0.002 A 
ATOM     33  C   UNL     1       0.001   1.806   2.405  0.00  0.00    +0.003 A 
ENDBRANCH  26  31
ENDBRANCH  10  26
TORSDOF 7
