REMARK  Name = ZINC14749481
REMARK  8 active torsions:
REMARK  status: ('A' for Active; 'I' for Inactive)
REMARK    1  A    between atoms: C_1  and  N_2
REMARK    2  A    between atoms: C_4  and  C_11
REMARK    3  A    between atoms: C_11  and  N_66
REMARK    4  A    between atoms: N_19  and  C_31
REMARK    5  A    between atoms: N_22  and  C_23
REMARK    6  A    between atoms: C_23  and  C_24
REMARK    7  A    between atoms: C_24  and  C_25
REMARK    8  A    between atoms: C_31  and  C_32
REMARK                            x       y       z     vdW  Elec       q    Type
REMARK                         _______ _______ _______ _____ _____    ______ ____
ROOT
ATOM      1  C   UNL     1       1.097  -6.217  -0.644  0.00  0.00    -0.076 C 
ATOM      2  C   UNL     1       0.832  -4.784  -1.115  0.00  0.00    +0.017 C 
ATOM      3  C   UNL     1      -0.553  -4.347  -0.646  0.00  0.00    +0.112 C 
ATOM      4  C   UNL     1      -1.617  -5.319  -1.145  0.00  0.00    +0.017 C 
ATOM      5  C   UNL     1      -1.272  -6.735  -0.673  0.00  0.00    -0.076 C 
ATOM      6  C   UNL     1      -0.859  -2.946  -1.120  0.00  0.00    +0.247 C 
ATOM      7  O   UNL     1      -0.935  -2.558  -2.266  0.00  0.00    -0.273 OA
ATOM      8  N   UNL     1      -1.027  -2.215   0.002  0.00  0.00    -0.215 N 
ATOM      9  C   UNL     1      -0.877  -2.961   1.103  0.00  0.00    +0.312 C 
ATOM     10  O   UNL     1      -0.987  -2.528   2.233  0.00  0.00    -0.252 OA
ATOM     11  N   UNL     1      -0.593  -4.247   0.818  0.00  0.00    -0.271 N 
ATOM     12  N   UNL     1       0.057  -7.106  -1.206  0.00  0.00    +0.383 N 
ATOM     13  H   UNL     1       0.047  -7.001  -2.227  0.00  0.00    -0.081 HD
ENDROOT
BRANCH  12  14
ATOM     14  C   UNL     1       0.360  -8.512  -0.870  0.00  0.00    -0.041 C 
BRANCH  14  18
ATOM     15  C   UNL     1      -3.515 -11.520  -1.964  0.00  0.00    +0.149 C 
ATOM     16  N   UNL     1      -2.289 -10.736  -2.131  0.00  0.00    -0.349 N 
ATOM     17  C   UNL     1      -1.685 -10.002  -1.147  0.00  0.00    +0.088 A 
ATOM     18  C   UNL     1      -0.584  -9.406  -1.632  0.00  0.00    -0.039 A 
ATOM     19  C   UNL     1      -0.476  -9.786  -3.042  0.00  0.00    +0.001 A 
ATOM     20  C   UNL     1      -1.573 -10.629  -3.303  0.00  0.00    +0.049 A 
ATOM     21  C   UNL     1      -1.739 -11.157  -4.578  0.00  0.00    +0.026 A 
ATOM     22  C   UNL     1      -0.828 -10.857  -5.567  0.00  0.00    +0.002 A 
ATOM     23  C   UNL     1       0.256 -10.030  -5.304  0.00  0.00    +0.001 A 
ATOM     24  C   UNL     1       0.437  -9.499  -4.058  0.00  0.00    +0.010 A 
ENDBRANCH  14  18
ENDBRANCH  12  14
BRANCH  11  25
ATOM     25  C   UNL     1      -0.369  -5.330   1.779  0.00  0.00    +0.115 C 
BRANCH  25  26
ATOM     26  C   UNL     1       0.916  -5.058   2.564  0.00  0.00    +0.054 C 
BRANCH  26  27
ATOM     27  C   UNL     1       1.211  -6.229   3.465  0.00  0.00    -0.046 A 
ATOM     28  C   UNL     1       0.710  -6.254   4.753  0.00  0.00    +0.004 A 
ATOM     29  C   UNL     1       0.977  -7.331   5.578  0.00  0.00    +0.000 A 
ATOM     30  C   UNL     1       1.754  -8.378   5.118  0.00  0.00    +0.000 A 
ATOM     31  C   UNL     1       2.260  -8.351   3.832  0.00  0.00    +0.000 A 
ATOM     32  C   UNL     1       1.988  -7.276   3.005  0.00  0.00    +0.004 A 
ENDBRANCH  26  27
ENDBRANCH  25  26
ENDBRANCH  11  25
BRANCH   8  33
ATOM     33  C   UNL     1      -1.340  -0.784   0.013  0.00  0.00    +0.213 C 
BRANCH  33  34
ATOM     34  C   UNL     1      -0.059   0.011   0.034  0.00  0.00    +0.228 C 
ATOM     35  O   UNL     1       1.010  -0.562   0.039  0.00  0.00    -0.274 OA
ATOM     36  N   UNL     1      -0.102   1.357   0.048  0.00  0.00    -0.328 N 
ATOM     37  H   UNL     1       0.722   1.869   0.061  0.00  0.00    +0.145 HD
ATOM     38  H   UNL     1      -0.957   1.816   0.040  0.00  0.00    +0.145 HD
ENDBRANCH  33  34
ENDBRANCH   8  33
TORSDOF 7
