REMARK  Name = ZINC38684872
REMARK  11 active torsions:
REMARK  status: ('A' for Active; 'I' for Inactive)
REMARK    1  A    between atoms: C_1  and  C_2
REMARK    2  A    between atoms: C_2  and  O_3
REMARK    3  A    between atoms: O_3  and  C_4
REMARK    4  A    between atoms: C_8  and  C_10
REMARK    5  A    between atoms: C_15  and  O_24
REMARK    6  A    between atoms: C_19  and  N_23
REMARK    7  A    between atoms: C_20  and  C_21
REMARK    8  A    between atoms: O_24  and  C_25
REMARK    9  A    between atoms: C_25  and  C_27
REMARK   10  A    between atoms: C_28  and  C_29
REMARK   11  A    between atoms: C_32  and  C_35
REMARK                            x       y       z     vdW  Elec       q    Type
REMARK                         _______ _______ _______ _____ _____    ______ ____
ROOT
ATOM      1  C   UNL     1      -4.352  -4.319  -0.018  0.00  0.00    +0.098 C 
ATOM      2  C   UNL     1      -4.526  -5.170  -1.248  0.00  0.00    +0.008 A 
ATOM      3  C   UNL     1      -4.847  -4.567  -2.453  0.00  0.00    +0.012 A 
ATOM      4  C   UNL     1      -5.011  -5.332  -3.591  0.00  0.00    +0.047 A 
ATOM      5  C   UNL     1      -4.854  -6.710  -3.530  0.00  0.00    +0.135 A 
ATOM      6  C   UNL     1      -4.532  -7.315  -2.326  0.00  0.00    +0.093 A 
ATOM      7  C   UNL     1      -4.367  -6.545  -1.182  0.00  0.00    +0.138 A 
ATOM      8  O   UNL     1      -4.053  -7.153  -0.011  0.00  0.00    -0.441 OA
ATOM      9  C   UNL     1      -4.266  -6.516   1.152  0.00  0.00    +0.199 C 
ATOM     10  C   UNL     1      -4.414  -5.175   1.215  0.00  0.00    +0.098 C 
ENDROOT
BRANCH   1  15
ATOM     11  C   UNL     1      -1.724  -1.606  -0.129  0.00  0.00    +0.121 A 
ATOM     12  C   UNL     1      -0.558  -2.355  -0.185  0.00  0.00    +0.045 A 
ATOM     13  C   UNL     1      -0.624  -3.735  -0.186  0.00  0.00    +0.004 A 
ATOM     14  C   UNL     1      -1.852  -4.369  -0.132  0.00  0.00    +0.005 A 
ATOM     15  C   UNL     1      -3.015  -3.624  -0.077  0.00  0.00    -0.031 A 
ATOM     16  C   UNL     1      -2.954  -2.244  -0.070  0.00  0.00    +0.050 A 
BRANCH  11  17
ATOM     17  O   UNL     1      -1.661  -0.248  -0.128  0.00  0.00    -0.492 OA
BRANCH  17  19
ATOM     18  C   UNL     1      -0.490   1.865  -0.179  0.00  0.00    +0.048 C 
ATOM     19  C   UNL     1      -0.361   0.341  -0.191  0.00  0.00    +0.225 C 
ENDBRANCH  17  19
ENDBRANCH  11  17
ENDBRANCH   1  15
BRANCH   9  20
ATOM     20  N   UNL     1      -4.332  -7.250   2.310  0.00  0.00    -0.328 N 
ATOM     21  H   UNL     1      -4.227  -8.214   2.280  0.00  0.00    +0.145 HD
ATOM     22  H   UNL     1      -4.485  -6.805   3.159  0.00  0.00    +0.145 HD
ENDBRANCH   9  20
BRANCH  10  23
ATOM     23  C   UNL     1      -4.636  -4.557   2.488  0.00  0.00    +0.101 C 
ATOM     24  N   UNL     1      -4.813  -4.067   3.497  0.00  0.00    -0.191 NA
ENDBRANCH  10  23
BRANCH   5  25
ATOM     25  O   UNL     1      -5.016  -7.463  -4.649  0.00  0.00    -0.423 OA
BRANCH  25  26
ATOM     26  C   UNL     1      -4.092  -7.354  -5.625  0.00  0.00    +0.337 C 
ATOM     27  O   UNL     1      -3.096  -6.679  -5.447  0.00  0.00    -0.245 OA
BRANCH  26  28
ATOM     28  C   UNL     1      -4.287  -8.047  -6.898  0.00  0.00    +0.092 C 
ATOM     29  C   UNL     1      -3.363  -7.938  -7.875  0.00  0.00    +0.015 C 
BRANCH  29  30
ATOM     30  C   UNL     1      -3.560  -8.635  -9.156  0.00  0.00    -0.025 A 
ATOM     31  C   UNL     1      -4.707  -9.408  -9.366  0.00  0.00    +0.008 A 
ATOM     32  C   UNL     1      -4.884 -10.058 -10.569  0.00  0.00    +0.004 A 
ATOM     33  C   UNL     1      -3.930  -9.948 -11.567  0.00  0.00    -0.050 A 
ATOM     34  C   UNL     1      -2.793  -9.186 -11.366  0.00  0.00    +0.004 A 
ATOM     35  C   UNL     1      -2.604  -8.524 -10.171  0.00  0.00    +0.008 A 
ATOM     36  C   UNL     1      -4.132 -10.662 -12.878  0.00  0.00    +0.044 C 
ENDBRANCH  29  30
ENDBRANCH  26  28
ENDBRANCH  25  26
ENDBRANCH   5  25
TORSDOF 9
