REMARK  Name = ZINC13804939
REMARK  6 active torsions:
REMARK  status: ('A' for Active; 'I' for Inactive)
REMARK    1  A    between atoms: C_2  and  C_3
REMARK    2  A    between atoms: C_3  and  O_4
REMARK    3  A    between atoms: O_4  and  C_5
REMARK    4  A    between atoms: C_8  and  C_11
REMARK    5  A    between atoms: N_17  and  C_18
REMARK    6  A    between atoms: C_23  and  C_24
REMARK                            x       y       z     vdW  Elec       q    Type
REMARK                         _______ _______ _______ _____ _____    ______ ____
ROOT
ATOM      1  C   UNL     1      -6.048  -4.387  -2.336  0.00  0.00    +0.028 C 
ATOM      2  C   UNL     1      -6.001  -5.538  -3.055  0.00  0.00    +0.078 C 
ATOM      3  C   UNL     1      -7.038  -6.573  -3.232  0.00  0.00    +0.256 C 
ATOM      4  O   UNL     1      -8.129  -6.478  -2.701  0.00  0.00    -0.269 OA
ATOM      5  N   UNL     1      -6.728  -7.607  -3.996  0.00  0.00    -0.260 N 
ATOM      6  C   UNL     1      -5.487  -7.696  -4.588  0.00  0.00    +0.166 C 
ATOM      7  N   UNL     1      -5.020  -8.645  -5.368  0.00  0.00    -0.225 NA
ATOM      8  S   UNL     1      -4.672  -6.202  -4.047  0.00  0.00    -0.049 S 
ATOM      9  H   UNL     1      -7.380  -8.311  -4.139  0.00  0.00    +0.157 HD
ENDROOT
BRANCH   7  10
ATOM     10  C   UNL     1      -3.720  -8.602  -5.794  0.00  0.00    +0.078 A 
ATOM     11  C   UNL     1      -2.689  -8.378  -4.879  0.00  0.00    +0.030 A 
ATOM     12  C   UNL     1      -1.381  -8.336  -5.315  0.00  0.00    +0.022 A 
ATOM     13  C   UNL     1      -1.089  -8.516  -6.657  0.00  0.00    +0.042 A 
ATOM     14  C   UNL     1      -2.107  -8.739  -7.569  0.00  0.00    +0.034 A 
ATOM     15  C   UNL     1      -3.418  -8.790  -7.145  0.00  0.00    +0.082 A 
ATOM     16 CL   UNL     1       0.559  -8.461  -7.198  0.00  0.00    -0.084 Cl
BRANCH  15  17
ATOM     17  C   UNL     1      -4.524  -9.039  -8.138  0.00  0.00    +0.419 C 
ATOM     18  F   UNL     1      -3.977  -9.194  -9.416  0.00  0.00    -0.166 F 
ATOM     19  F   UNL     1      -5.216 -10.202  -7.783  0.00  0.00    -0.166 F 
ATOM     20  F   UNL     1      -5.406  -7.953  -8.136  0.00  0.00    -0.166 F 
ENDBRANCH  15  17
ENDBRANCH   7  10
BRANCH   1  24
ATOM     21  C   UNL     1      -2.887  -1.575  -2.630  0.00  0.00    +0.121 A 
ATOM     22  C   UNL     1      -3.029  -2.562  -3.599  0.00  0.00    +0.046 A 
ATOM     23  C   UNL     1      -4.053  -3.477  -3.509  0.00  0.00    +0.011 A 
ATOM     24  C   UNL     1      -4.953  -3.414  -2.438  0.00  0.00    -0.024 A 
ATOM     25  C   UNL     1      -4.805  -2.418  -1.464  0.00  0.00    +0.011 A 
ATOM     26  C   UNL     1      -3.774  -1.511  -1.562  0.00  0.00    +0.046 A 
BRANCH  21  27
ATOM     27  O   UNL     1      -1.875  -0.675  -2.724  0.00  0.00    -0.488 OA
BRANCH  27  28
ATOM     28  C   UNL     1      -1.000  -0.798  -3.847  0.00  0.00    +0.256 C 
BRANCH  28  30
ATOM     29  C   UNL     1       1.308  -0.018  -4.012  0.00  0.00    +0.007 C 
ATOM     30  C   UNL     1       0.053   0.279  -3.783  0.00  0.00    +0.006 C 
ENDBRANCH  28  30
ENDBRANCH  27  28
ENDBRANCH  21  27
ENDBRANCH   1  24
TORSDOF 6
