REMARK  Name = ZINC66466697
REMARK  5 active torsions:
REMARK  status: ('A' for Active; 'I' for Inactive)
REMARK    1  A    between atoms: C_1  and  C_2
REMARK    2  A    between atoms: N_15  and  C_16
REMARK    3  A    between atoms: C_16  and  C_17
REMARK    4  A    between atoms: C_17  and  C_19
REMARK    5  A    between atoms: C_17  and  O_25
REMARK                            x       y       z     vdW  Elec       q    Type
REMARK                         _______ _______ _______ _____ _____    ______ ____
ROOT
ATOM      1  C   UNL     1      -0.018   1.503   0.010  0.00  0.00    +0.090 C 
ATOM      2  C   UNL     1       0.002  -0.004   0.002  0.00  0.00    +0.149 A 
ATOM      3  N   UNL     1       0.007  -0.765  -1.089  0.00  0.00    -0.211 NA
ATOM      4  C   UNL     1       0.026  -2.035  -0.743  0.00  0.00    +0.169 A 
ATOM      5  C   UNL     1       0.041  -3.302  -1.481  0.00  0.00    +0.045 A 
ATOM      6  C   UNL     1       0.036  -3.346  -2.874  0.00  0.00    +0.014 A 
ATOM      7  C   UNL     1       0.050  -4.565  -3.516  0.00  0.00    +0.001 A 
ATOM      8  C   UNL     1       0.070  -5.747  -2.787  0.00  0.00    +0.002 A 
ATOM      9  C   UNL     1       0.075  -5.726  -1.411  0.00  0.00    +0.028 A 
ATOM     10  C   UNL     1       0.061  -4.503  -0.736  0.00  0.00    +0.078 A 
ATOM     11  N   UNL     1       0.067  -4.443   0.618  0.00  0.00    -0.214 NA
ATOM     12  C   UNL     1       0.054  -3.305   1.261  0.00  0.00    +0.219 A 
ATOM     13  N   UNL     1       0.033  -2.095   0.625  0.00  0.00    -0.181 N 
ATOM     14  N   UNL     1       0.023  -0.765   1.068  0.00  0.00    -0.147 NA
ATOM     15  N   UNL     1       0.061  -3.325   2.636  0.00  0.00    -0.311 N 
ATOM     16  H   UNL     1       0.052  -2.493   3.133  0.00  0.00    +0.149 HD
ENDROOT
BRANCH  15  17
ATOM     17  C   UNL     1       0.083  -4.605   3.349  0.00  0.00    +0.136 C 
BRANCH  17  18
ATOM     18  C   UNL     1       0.086  -4.348   4.857  0.00  0.00    +0.135 C 
BRANCH  18  19
ATOM     19  C   UNL     1       0.109  -5.684   5.603  0.00  0.00    +0.019 C 
ATOM     20  C   UNL     1      -1.131  -6.498   5.227  0.00  0.00    +0.006 C 
ATOM     21  C   UNL     1      -1.109  -7.834   5.972  0.00  0.00    +0.000 C 
ATOM     22  C   UNL     1      -1.105  -7.577   7.480  0.00  0.00    +0.000 C 
ATOM     23  C   UNL     1       0.135  -6.763   7.856  0.00  0.00    +0.000 C 
ATOM     24  C   UNL     1       0.113  -5.427   7.111  0.00  0.00    +0.006 C 
ENDBRANCH  18  19
BRANCH  18  25
ATOM     25  O   UNL     1       1.244  -3.588   5.208  0.00  0.00    -0.390 OA
ATOM     26  H   UNL     1       2.081  -4.022   4.991  0.00  0.00    +0.210 HD
ENDBRANCH  18  25
ENDBRANCH  17  18
ENDBRANCH  15  17
TORSDOF 4
