REMARK  Name = ZINC53908771
REMARK  7 active torsions:
REMARK  status: ('A' for Active; 'I' for Inactive)
REMARK    1  A    between atoms: C_1  and  C_2
REMARK    2  A    between atoms: C_3  and  C_19
REMARK    3  A    between atoms: C_5  and  S_7
REMARK    4  A    between atoms: S_7  and  C_8
REMARK    5  A    between atoms: C_8  and  C_9
REMARK    6  A    between atoms: N_11  and  C_12
REMARK    7  A    between atoms: C_19  and  C_20
REMARK                            x       y       z     vdW  Elec       q    Type
REMARK                         _______ _______ _______ _____ _____    ______ ____
ROOT
ATOM      1  S   UNL     1       0.058  -3.129   2.474  0.00  0.00    -0.089 S 
ENDROOT
BRANCH   1   6
ATOM      2  C   UNL     1      -0.018   1.503   0.010  0.00  0.00    +0.066 C 
ATOM      3  C   UNL     1       0.002  -0.004   0.002  0.00  0.00    +0.050 A 
ATOM      4  C   UNL     1       0.006  -0.705  -1.157  0.00  0.00    +0.022 A 
ATOM      5  S   UNL     1       0.032  -2.378  -0.535  0.00  0.00    -0.065 S 
ATOM      6  C   UNL     1       0.036  -2.016   1.108  0.00  0.00    +0.135 A 
ATOM      7  N   UNL     1       0.023  -0.700   1.125  0.00  0.00    -0.238 NA
BRANCH   4   8
ATOM      8  C   UNL     1      -0.009  -0.209  -2.580  0.00  0.00    +0.139 C 
BRANCH   8   9
ATOM      9  C   UNL     1       1.407  -0.023  -3.062  0.00  0.00    +0.215 C 
ATOM     10  O   UNL     1       2.336  -0.270  -2.323  0.00  0.00    -0.276 OA
ATOM     11  N   UNL     1       1.640   0.417  -4.314  0.00  0.00    -0.329 N 
ATOM     12  H   UNL     1       0.897   0.614  -4.906  0.00  0.00    +0.145 HD
ATOM     13  H   UNL     1       2.552   0.536  -4.625  0.00  0.00    +0.145 HD
ENDBRANCH   8   9
ENDBRANCH   4   8
ENDBRANCH   1   6
BRANCH   1  14
ATOM     14  C   UNL     1       0.051  -2.041   3.926  0.00  0.00    +0.172 C 
BRANCH  14  15
ATOM     15  C   UNL     1       0.069  -2.877   5.180  0.00  0.00    +0.223 C 
ATOM     16  O   UNL     1       0.085  -4.087   5.102  0.00  0.00    -0.275 OA
ATOM     17  N   UNL     1       0.067  -2.280   6.388  0.00  0.00    -0.312 N 
ATOM     18  H   UNL     1       0.053  -1.312   6.450  0.00  0.00    +0.149 HD
BRANCH  17  19
ATOM     19  C   UNL     1       0.084  -3.092   7.607  0.00  0.00    +0.073 C 
ATOM     20  C   UNL     1       1.505  -3.436   7.965  0.00  0.00    +0.022 C 
ATOM     21  C   UNL     1       1.629  -4.829   8.611  0.00  0.00    +0.002 C 
ATOM     22  C   UNL     1       0.508  -5.119   9.626  0.00  0.00    +0.000 C 
ATOM     23  C   UNL     1       0.199  -3.932  10.498  0.00  0.00    +0.000 C 
ATOM     24  C   UNL     1      -0.970  -3.150   9.864  0.00  0.00    +0.002 C 
ATOM     25  C   UNL     1      -0.535  -2.292   8.772  0.00  0.00    +0.022 C 
ENDBRANCH  17  19
ENDBRANCH  14  15
ENDBRANCH   1  14
TORSDOF 6
