REMARK  Name = ZINC12583439
REMARK  10 active torsions:
REMARK  status: ('A' for Active; 'I' for Inactive)
REMARK    1  A    between atoms: C_1  and  C_2
REMARK    2  A    between atoms: C_4  and  C_32
REMARK    3  A    between atoms: C_5  and  N_9
REMARK    4  A    between atoms: C_6  and  C_8
REMARK    5  A    between atoms: N_9  and  S_10
REMARK    6  A    between atoms: S_10  and  C_13
REMARK    7  A    between atoms: C_16  and  N_19
REMARK    8  A    between atoms: N_19  and  S_20
REMARK    9  A    between atoms: S_20  and  C_23
REMARK   10  A    between atoms: C_28  and  N_29
REMARK                            x       y       z     vdW  Elec       q    Type
REMARK                         _______ _______ _______ _____ _____    ______ ____
ROOT
ATOM      1  C   UNL     1      -4.579  -0.287   2.845  0.00  0.00    +0.109 A 
ATOM      2  C   UNL     1      -3.823   0.212   3.890  0.00  0.00    +0.030 A 
ATOM      3  C   UNL     1      -2.910   1.223   3.662  0.00  0.00    +0.026 A 
ATOM      4  C   UNL     1      -2.752   1.738   2.382  0.00  0.00    +0.048 A 
ATOM      5  C   UNL     1      -3.517   1.238   1.336  0.00  0.00    +0.026 A 
ATOM      6  C   UNL     1      -4.424   0.223   1.570  0.00  0.00    +0.030 A 
ENDROOT
BRANCH   1   7
ATOM      7  S   UNL     1      -5.743  -1.577   3.141  0.00  0.00    +0.072 S 
ATOM      8  O   UNL     1      -5.850  -2.312   1.930  0.00  0.00    -0.150 OA
ATOM      9  O   UNL     1      -5.373  -2.183   4.371  0.00  0.00    -0.150 OA
BRANCH   7  10
ATOM     10  N   UNL     1      -7.215  -0.860   3.390  0.00  0.00    -0.216 N 
ATOM     11  H   UNL     1      -7.636  -0.907   4.263  0.00  0.00    +0.174 HD
BRANCH  10  16
ATOM     12  C   UNL     1      -9.794   1.873  -0.857  0.00  0.00    +0.044 C 
ATOM     13  C   UNL     1      -9.109   1.147   0.272  0.00  0.00    -0.050 A 
ATOM     14  C   UNL     1      -9.104  -0.235   0.300  0.00  0.00    +0.008 A 
ATOM     15  C   UNL     1      -8.476  -0.904   1.333  0.00  0.00    -0.028 A 
ATOM     16  C   UNL     1      -7.850  -0.186   2.344  0.00  0.00    +0.054 A 
ATOM     17  C   UNL     1      -7.862   1.202   2.315  0.00  0.00    -0.028 A 
ATOM     18  C   UNL     1      -8.487   1.865   1.277  0.00  0.00    +0.008 A 
ATOM     19  C   UNL     1      -7.189   1.985   3.413  0.00  0.00    +0.046 C 
ATOM     20  C   UNL     1      -8.471  -2.411   1.363  0.00  0.00    +0.046 C 
ENDBRANCH  10  16
ENDBRANCH   7  10
ENDBRANCH   1   7
BRANCH   4  21
ATOM     21  N   UNL     1      -1.830   2.761   2.148  0.00  0.00    -0.216 N 
ATOM     22  H   UNL     1      -1.789   3.523   2.746  0.00  0.00    +0.174 HD
BRANCH  21  23
ATOM     23  S   UNL     1      -0.806   2.672   0.849  0.00  0.00    +0.075 S 
ATOM     24  O   UNL     1      -0.238   1.369   0.869  0.00  0.00    -0.150 OA
ATOM     25  O   UNL     1      -0.012   3.850   0.876  0.00  0.00    -0.150 OA
BRANCH  23  26
ATOM     26  C   UNL     1      -1.798   2.766  -0.604  0.00  0.00    +0.139 A 
ATOM     27  C   UNL     1      -1.815   1.713  -1.499  0.00  0.00    +0.031 A 
ATOM     28  C   UNL     1      -2.597   1.785  -2.636  0.00  0.00    +0.002 A 
ATOM     29  C   UNL     1      -3.355   2.915  -2.884  0.00  0.00    +0.002 A 
ATOM     30  C   UNL     1      -3.334   3.970  -1.991  0.00  0.00    +0.035 A 
ATOM     31  C   UNL     1      -2.555   3.896  -0.851  0.00  0.00    +0.153 A 
BRANCH  31  32
ATOM     32  N   UNL     1      -2.532   5.026   0.104  0.00  0.00    +0.058 N 
ATOM     33  O   UNL     1      -3.192   6.026  -0.119  0.00  0.00    -0.126 OA
ATOM     34  O   UNL     1      -1.854   4.957   1.114  0.00  0.00    -0.126 OA
ENDBRANCH  31  32
ENDBRANCH  23  26
ENDBRANCH  21  23
ENDBRANCH   4  21
TORSDOF 7
