REMARK  Name = ZINC39484650
REMARK  6 active torsions:
REMARK  status: ('A' for Active; 'I' for Inactive)
REMARK    1  A    between atoms: C_4  and  C_7
REMARK    2  A    between atoms: C_7  and  C_9
REMARK    3  A    between atoms: C_11  and  C_33
REMARK    4  A    between atoms: C_21  and  C_23
REMARK    5  A    between atoms: C_28  and  O_29
REMARK    6  A    between atoms: C_37  and  O_39
REMARK                            x       y       z     vdW  Elec       q    Type
REMARK                         _______ _______ _______ _____ _____    ______ ____
ROOT
ATOM      1  C   UNL     1       3.624  -2.229   0.033  0.00  0.00    +0.087 C 
ATOM      2  C   UNL     1       4.935  -2.800  -0.501  0.00  0.00    +0.061 C 
ATOM      3  C   UNL     1       5.019  -4.284  -0.264  0.00  0.00    -0.025 A 
ATOM      4  C   UNL     1       5.859  -5.042  -1.056  0.00  0.00    +0.054 A 
ATOM      5  C   UNL     1       5.963  -6.412  -0.862  0.00  0.00    +0.167 A 
ATOM      6  C   UNL     1       5.218  -7.038   0.140  0.00  0.00    +0.167 A 
ATOM      7  C   UNL     1       4.376  -6.290   0.937  0.00  0.00    +0.061 A 
ATOM      8  C   UNL     1       4.271  -4.908   0.737  0.00  0.00    +0.025 A 
ATOM      9  C   UNL     1       3.363  -4.116   1.584  0.00  0.00    +0.172 C 
ATOM     10  O   UNL     1       2.557  -4.654   2.314  0.00  0.00    -0.291 OA
ATOM     11  C   UNL     1       3.469  -2.607   1.512  0.00  0.00    +0.105 C 
ATOM     12  O   UNL     1       5.500  -8.373   0.123  0.00  0.00    -0.453 OA
ATOM     13  C   UNL     1       6.108  -8.620  -1.158  0.00  0.00    +0.466 C 
ATOM     14  O   UNL     1       6.708  -7.358  -1.502  0.00  0.00    -0.453 OA
ENDROOT
BRANCH  11  15
ATOM     15  C   UNL     1       2.220  -1.978   2.074  0.00  0.00    +0.005 A 
ATOM     16  C   UNL     1       0.983  -2.327   1.569  0.00  0.00    +0.008 A 
ATOM     17  C   UNL     1      -0.163  -1.750   2.084  0.00  0.00    +0.001 A 
ATOM     18  C   UNL     1      -0.073  -0.821   3.105  0.00  0.00    +0.004 A 
ATOM     19  C   UNL     1       1.161  -0.469   3.613  0.00  0.00    +0.046 A 
ATOM     20  C   UNL     1       2.313  -1.051   3.102  0.00  0.00    +0.121 A 
BRANCH  20  21
ATOM     21  O   UNL     1       3.529  -0.710   3.604  0.00  0.00    -0.506 OA
ATOM     22  H   UNL     1       3.943   0.040   3.156  0.00  0.00    +0.292 HD
ENDBRANCH  20  21
ENDBRANCH  11  15
BRANCH   2  23
ATOM     23  C   UNL     1       5.024  -2.532  -1.981  0.00  0.00    -0.036 A 
ATOM     24  C   UNL     1       4.057  -3.033  -2.833  0.00  0.00    +0.004 A 
ATOM     25  C   UNL     1       4.135  -2.789  -4.192  0.00  0.00    +0.004 A 
ATOM     26  C   UNL     1       5.181  -2.043  -4.701  0.00  0.00    +0.045 A 
ATOM     27  C   UNL     1       6.152  -1.539  -3.849  0.00  0.00    +0.117 A 
ATOM     28  C   UNL     1       6.067  -1.781  -2.485  0.00  0.00    +0.049 A 
BRANCH  27  29
ATOM     29  O   UNL     1       7.181  -0.805  -4.348  0.00  0.00    -0.507 OA
ATOM     30  H   UNL     1       7.004   0.144  -4.387  0.00  0.00    +0.292 HD
ENDBRANCH  27  29
ENDBRANCH   2  23
BRANCH   1  31
ATOM     31  C   UNL     1       3.638  -0.728  -0.103  0.00  0.00    +0.168 C 
ATOM     32  O   UNL     1       4.541  -0.083   0.386  0.00  0.00    -0.292 OA
BRANCH  31  36
ATOM     33  C   UNL     1       0.518   1.240  -2.197  0.00  0.00    +0.000 A 
ATOM     34  C   UNL     1       1.478   1.984  -1.533  0.00  0.00    +0.001 A 
ATOM     35  C   UNL     1       2.495   1.352  -0.850  0.00  0.00    +0.011 A 
ATOM     36  C   UNL     1       2.555  -0.045  -0.829  0.00  0.00    +0.018 A 
ATOM     37  C   UNL     1       1.582  -0.790  -1.502  0.00  0.00    +0.011 A 
ATOM     38  C   UNL     1       0.571  -0.143  -2.181  0.00  0.00    +0.001 A 
ENDBRANCH  31  36
ENDBRANCH   1  31
TORSDOF 6
