REMARK  Name = ZINC35747247
REMARK  15 active torsions:
REMARK  status: ('A' for Active; 'I' for Inactive)
REMARK    1  A    between atoms: C_1  and  C_2
REMARK    2  A    between atoms: C_7  and  C_8
REMARK    3  A    between atoms: C_17  and  C_19
REMARK    4  A    between atoms: C_19  and  N_20
REMARK    5  A    between atoms: N_20  and  C_21
REMARK    6  A    between atoms: N_20  and  C_26
REMARK    7  A    between atoms: C_21  and  C_22
REMARK    8  A    between atoms: C_22  and  C_23
REMARK    9  A    between atoms: C_23  and  O_24
REMARK   10  A    between atoms: O_24  and  C_25
REMARK   11  A    between atoms: C_26  and  C_27
REMARK   12  A    between atoms: C_27  and  C_29
REMARK   13  A    between atoms: C_27  and  O_38
REMARK   14  A    between atoms: C_29  and  O_30
REMARK   15  A    between atoms: O_30  and  C_31
REMARK                            x       y       z     vdW  Elec       q    Type
REMARK                         _______ _______ _______ _____ _____    ______ ____
ROOT
ATOM      1  N   UNL     1      -3.784   3.771   6.026  0.00  0.00    +0.386 N 
ATOM      2  H   UNL     1      -3.623   3.106   6.768  0.00  0.00    -0.081 HD
ENDROOT
BRANCH   1   3
ATOM      3  C   UNL     1      -4.101   3.053   4.785  0.00  0.00    -0.003 C 
BRANCH   3  13
ATOM      4  C   UNL     1       0.161  -0.605   3.809  0.00  0.00    +0.004 A 
ATOM      5  C   UNL     1       1.125  -0.543   4.760  0.00  0.00    +0.056 A 
ATOM      6  S   UNL     1       0.524   0.709   5.877  0.00  0.00    -0.076 S 
ATOM      7  C   UNL     1      -0.993   1.116   5.051  0.00  0.00    +0.116 A 
ATOM      8  C   UNL     1      -0.995   0.276   3.925  0.00  0.00    +0.080 A 
ATOM      9  C   UNL     1      -2.129   0.402   3.060  0.00  0.00    +0.260 A 
ATOM     10  O   UNL     1      -2.223  -0.288   2.060  0.00  0.00    -0.267 OA
ATOM     11  N   UNL     1      -3.089   1.292   3.369  0.00  0.00    -0.312 N 
ATOM     12  H   UNL     1      -3.860   1.382   2.786  0.00  0.00    +0.170 HD
ATOM     13  C   UNL     1      -3.001   2.068   4.479  0.00  0.00    +0.094 A 
ATOM     14  N   UNL     1      -1.983   1.971   5.292  0.00  0.00    -0.229 NA
BRANCH   4  21
ATOM     15  C   UNL     1       0.446   0.428   1.122  0.00  0.00    +0.044 C 
ATOM     16  C   UNL     1       0.420  -1.058   1.372  0.00  0.00    -0.043 A 
ATOM     17  C   UNL     1       0.538  -1.939   0.316  0.00  0.00    +0.004 A 
ATOM     18  C   UNL     1       0.514  -3.303   0.544  0.00  0.00    +0.000 A 
ATOM     19  C   UNL     1       0.372  -3.793   1.830  0.00  0.00    +0.001 A 
ATOM     20  C   UNL     1       0.253  -2.922   2.893  0.00  0.00    +0.009 A 
ATOM     21  C   UNL     1       0.282  -1.546   2.671  0.00  0.00    -0.014 A 
ENDBRANCH   4  21
ENDBRANCH   3  13
ENDBRANCH   1   3
BRANCH   1  22
ATOM     22  C   UNL     1      -2.578   4.585   5.827  0.00  0.00    -0.076 C 
BRANCH  22  23
ATOM     23  C   UNL     1      -2.852   5.652   4.765  0.00  0.00    +0.009 C 
BRANCH  23  24
ATOM     24  C   UNL     1      -1.574   6.450   4.502  0.00  0.00    +0.157 C 
BRANCH  24  25
ATOM     25  O   UNL     1      -1.830   7.446   3.510  0.00  0.00    -0.383 OA
ATOM     26  C   UNL     1      -0.695   8.253   3.189  0.00  0.00    +0.193 C 
ENDBRANCH  24  25
ENDBRANCH  23  24
ENDBRANCH  22  23
ENDBRANCH   1  22
BRANCH   1  27
ATOM     27  C   UNL     1      -4.910   4.643   6.388  0.00  0.00    -0.043 C 
BRANCH  27  28
ATOM     28  C   UNL     1      -4.632   5.299   7.742  0.00  0.00    +0.135 C 
BRANCH  28  29
ATOM     29  O   UNL     1      -4.467   4.287   8.737  0.00  0.00    -0.390 OA
ATOM     30  H   UNL     1      -5.240   3.716   8.849  0.00  0.00    +0.210 HD
ENDBRANCH  28  29
BRANCH  28  31
ATOM     31  C   UNL     1      -5.808   6.201   8.122  0.00  0.00    +0.258 C 
BRANCH  31  32
ATOM     32  O   UNL     1      -5.500   6.903   9.328  0.00  0.00    -0.489 OA
BRANCH  32  33
ATOM     33  C   UNL     1      -6.446   7.753   9.807  0.00  0.00    +0.121 A 
ATOM     34  C   UNL     1      -7.649   7.903   9.133  0.00  0.00    +0.047 A 
ATOM     35  C   UNL     1      -8.610   8.768   9.621  0.00  0.00    +0.023 A 
ATOM     36  C   UNL     1      -8.373   9.483  10.781  0.00  0.00    +0.041 A 
ATOM     37  C   UNL     1      -7.173   9.334  11.455  0.00  0.00    +0.023 A 
ATOM     38  C   UNL     1      -6.213   8.466  10.973  0.00  0.00    +0.047 A 
ATOM     39 CL   UNL     1      -9.582  10.569  11.392  0.00  0.00    -0.084 Cl
ENDBRANCH  32  33
ENDBRANCH  31  32
ENDBRANCH  28  31
ENDBRANCH  27  28
ENDBRANCH   1  27
TORSDOF 13
