REMARK  Name = ZINC21228993
REMARK  12 active torsions:
REMARK  status: ('A' for Active; 'I' for Inactive)
REMARK    1  A    between atoms: C_1  and  C_2
REMARK    2  A    between atoms: C_2  and  C_3
REMARK    3  A    between atoms: C_2  and  O_4
REMARK    4  A    between atoms: O_4  and  C_5
REMARK    5  A    between atoms: C_6  and  C_13
REMARK    6  A    between atoms: C_10  and  O_11
REMARK    7  A    between atoms: O_11  and  C_12
REMARK    8  A    between atoms: C_18  and  C_23
REMARK    9  A    between atoms: C_25  and  O_31
REMARK   10  A    between atoms: C_28  and  O_29
REMARK   11  A    between atoms: O_29  and  C_30
REMARK   12  A    between atoms: O_31  and  C_32
REMARK                            x       y       z     vdW  Elec       q    Type
REMARK                         _______ _______ _______ _____ _____    ______ ____
ROOT
ATOM      1  C   UNL     1      -1.331   1.859   0.054  0.00  0.00    +0.140 C 
ATOM      2  C   UNL     1      -0.001   1.142   0.069  0.00  0.00    +0.037 C 
ATOM      3  C   UNL     1       1.208   1.724   0.051  0.00  0.00    +0.017 C 
ATOM      4  C   UNL     1       2.469   0.875   0.043  0.00  0.00    +0.060 C 
ATOM      5  C   UNL     1       2.235  -0.409   0.836  0.00  0.00    +0.036 C 
ATOM      6  C   UNL     1       1.084  -1.168   0.166  0.00  0.00    +0.088 C 
ATOM      7  C   UNL     1      -0.114  -0.268   0.111  0.00  0.00    +0.163 C 
ATOM      8  O   UNL     1      -1.222  -0.767   0.102  0.00  0.00    -0.292 OA
ATOM      9  N   UNL     1       1.431   3.064   0.040  0.00  0.00    -0.316 N 
ATOM     10  C   UNL     1       0.786   3.969  -0.797  0.00  0.00    +0.052 A 
ATOM     11  C   UNL     1       1.461   4.707  -1.753  0.00  0.00    +0.025 A 
ATOM     12  C   UNL     1       0.764   5.625  -2.519  0.00  0.00    +0.002 A 
ATOM     13  C   UNL     1      -0.594   5.804  -2.326  0.00  0.00    +0.002 A 
ATOM     14  C   UNL     1      -1.274   5.054  -1.383  0.00  0.00    +0.025 A 
ATOM     15  C   UNL     1      -0.583   4.116  -0.631  0.00  0.00    +0.049 A 
ATOM     16  N   UNL     1      -1.242   3.287   0.273  0.00  0.00    -0.331 N 
ATOM     17  H   UNL     1       2.168   3.504   0.727  0.00  0.00    +0.152 HD
ATOM     18  H   UNL     1      -1.699   3.736   1.167  0.00  0.00    +0.147 HD
ENDROOT
BRANCH   1  20
ATOM     19  C   UNL     1      -3.133   0.851  -1.366  0.00  0.00    +0.168 A 
ATOM     20  C   UNL     1      -1.987   1.625  -1.282  0.00  0.00    +0.023 A 
ATOM     21  C   UNL     1      -1.441   2.178  -2.426  0.00  0.00    +0.009 A 
ATOM     22  C   UNL     1      -2.040   1.966  -3.654  0.00  0.00    +0.004 A 
ATOM     23  C   UNL     1      -3.187   1.200  -3.744  0.00  0.00    +0.049 A 
ATOM     24  C   UNL     1      -3.739   0.643  -2.601  0.00  0.00    +0.162 A 
BRANCH  24  25
ATOM     25  O   UNL     1      -4.867  -0.112  -2.688  0.00  0.00    -0.491 OA
ATOM     26  C   UNL     1      -5.431  -0.288  -3.989  0.00  0.00    +0.277 C 
ENDBRANCH  24  25
BRANCH  19  27
ATOM     27  O   UNL     1      -3.668   0.302  -0.243  0.00  0.00    -0.485 OA
BRANCH  27  29
ATOM     28  C   UNL     1      -5.620   0.020   1.154  0.00  0.00    +0.051 C 
ATOM     29  C   UNL     1      -4.748   1.006   0.372  0.00  0.00    +0.168 C 
ATOM     30  C   UNL     1      -4.190   2.062   1.328  0.00  0.00    +0.051 C 
ENDBRANCH  27  29
ENDBRANCH  19  27
ENDBRANCH   1  20
BRANCH   5  31
ATOM     31  C   UNL     1       3.482  -1.255   0.819  0.00  0.00    +0.002 A 
ATOM     32  C   UNL     1       4.016  -1.675  -0.384  0.00  0.00    +0.053 A 
ATOM     33  C   UNL     1       5.167  -2.449  -0.400  0.00  0.00    +0.121 A 
ATOM     34  C   UNL     1       5.776  -2.811   0.793  0.00  0.00    +0.049 A 
ATOM     35  C   UNL     1       5.239  -2.395   1.996  0.00  0.00    +0.049 A 
ATOM     36  C   UNL     1       4.091  -1.616   2.012  0.00  0.00    +0.124 A 
BRANCH  36  37
ATOM     37  O   UNL     1       3.563  -1.207   3.196  0.00  0.00    -0.495 OA
ATOM     38  C   UNL     1       4.242  -1.616   4.385  0.00  0.00    +0.277 C 
ENDBRANCH  36  37
BRANCH  33  39
ATOM     39  O   UNL     1       5.695  -2.858  -1.584  0.00  0.00    -0.495 OA
ATOM     40  C   UNL     1       6.878  -3.658  -1.525  0.00  0.00    +0.277 C 
ENDBRANCH  33  39
ENDBRANCH   5  31
TORSDOF 7
