REMARK  Name = ZINC09720384
REMARK  13 active torsions:
REMARK  status: ('A' for Active; 'I' for Inactive)
REMARK    1  A    between atoms: C_1  and  C_2
REMARK    2  A    between atoms: C_2  and  C_3
REMARK    3  A    between atoms: C_3  and  C_4
REMARK    4  A    between atoms: C_3  and  C_5
REMARK    5  A    between atoms: C_3  and  N_13
REMARK    6  A    between atoms: N_7  and  C_8
REMARK    7  A    between atoms: N_13  and  C_14
REMARK    8  A    between atoms: C_15  and  C_27
REMARK    9  A    between atoms: N_16  and  C_26
REMARK   10  A    between atoms: N_17  and  C_20
REMARK   11  A    between atoms: C_28  and  C_30
REMARK   12  A    between atoms: C_30  and  N_31
REMARK   13  A    between atoms: C_32  and  C_34
REMARK                            x       y       z     vdW  Elec       q    Type
REMARK                         _______ _______ _______ _____ _____    ______ ____
ROOT
ATOM      1  N   UNL     1      -2.441   0.524   0.182  0.00  0.00    -0.249 N 
ATOM      2  C   UNL     1      -2.153   0.680  -1.126  0.00  0.00    +0.238 C 
ATOM      3  O   UNL     1      -2.687   1.564  -1.763  0.00  0.00    -0.273 OA
ENDROOT
BRANCH   1   4
ATOM      4  C   UNL     1      -3.648   1.031   0.703  0.00  0.00    +0.125 A 
ATOM      5  C   UNL     1      -4.023   2.330   0.738  0.00  0.00    +0.060 A 
ATOM      6  N   UNL     1      -5.260   2.411   1.321  0.00  0.00    -0.282 N 
ATOM      7  N   UNL     1      -5.690   1.126   1.668  0.00  0.00    -0.216 N 
ATOM      8  C   UNL     1      -4.731   0.250   1.300  0.00  0.00    +0.294 A 
ATOM      9  O   UNL     1      -4.761  -0.959   1.442  0.00  0.00    -0.264 OA
ATOM     10  C   UNL     1      -6.013   3.648   1.544  0.00  0.00    +0.171 C 
ATOM     11  C   UNL     1      -3.215   3.493   0.224  0.00  0.00    +0.067 C 
BRANCH   7  12
ATOM     12  C   UNL     1      -6.903   0.804   2.284  0.00  0.00    +0.067 A 
ATOM     13  C   UNL     1      -6.943  -0.162   3.281  0.00  0.00    +0.028 A 
ATOM     14  C   UNL     1      -8.144  -0.477   3.888  0.00  0.00    +0.002 A 
ATOM     15  C   UNL     1      -9.305   0.168   3.502  0.00  0.00    +0.000 A 
ATOM     16  C   UNL     1      -9.269   1.129   2.509  0.00  0.00    +0.002 A 
ATOM     17  C   UNL     1      -8.071   1.453   1.903  0.00  0.00    +0.028 A 
ENDBRANCH   7  12
ENDBRANCH   1   4
BRANCH   1  18
ATOM     18  C   UNL     1      -1.499  -0.173   1.061  0.00  0.00    +0.115 C 
ATOM     19  C   UNL     1      -0.105  -0.156   0.431  0.00  0.00    +0.042 C 
BRANCH  18  20
ATOM     20  C   UNL     1      -1.455   0.518   2.399  0.00  0.00    +0.237 C 
ATOM     21  O   UNL     1      -1.277  -0.128   3.410  0.00  0.00    -0.273 OA
ATOM     22  N   UNL     1      -1.613   1.855   2.472  0.00  0.00    -0.311 N 
ATOM     23  H   UNL     1      -1.829   2.362   1.675  0.00  0.00    +0.149 HD
BRANCH  22  24
ATOM     24  C   UNL     1      -1.457   2.541   3.757  0.00  0.00    +0.073 C 
ATOM     25  C   UNL     1      -2.801   2.560   4.513  0.00  0.00    +0.022 C 
ATOM     26  C   UNL     1      -2.828   3.944   5.208  0.00  0.00    +0.002 C 
ATOM     27  C   UNL     1      -2.182   4.870   4.148  0.00  0.00    +0.002 C 
ATOM     28  C   UNL     1      -1.063   4.010   3.525  0.00  0.00    +0.022 C 
ENDBRANCH  22  24
ENDBRANCH  18  20
BRANCH  18  30
ATOM     29  C   UNL     1      -1.907  -2.351  -0.094  0.00  0.00    +0.006 C 
ATOM     30  C   UNL     1      -1.955  -1.622   1.250  0.00  0.00    +0.032 C 
ENDBRANCH  18  30
ENDBRANCH   1  18
BRANCH   2  31
ATOM     31  C   UNL     1      -1.167  -0.242  -1.796  0.00  0.00    +0.201 C 
BRANCH  31  32
ATOM     32  N   UNL     1      -1.478  -0.334  -3.224  0.00  0.00    -0.303 N 
ATOM     33  C   UNL     1      -0.723  -1.108  -4.030  0.00  0.00    +0.244 C 
ATOM     34  O   UNL     1       0.214  -1.730  -3.570  0.00  0.00    -0.270 OA
ATOM     35  H   UNL     1      -2.226   0.163  -3.591  0.00  0.00    +0.150 HD
BRANCH  33  36
ATOM     36  C   UNL     1      -1.037  -1.200  -5.472  0.00  0.00    +0.037 A 
ATOM     37  C   UNL     1      -2.109  -0.482  -6.003  0.00  0.00    +0.013 A 
ATOM     38  C   UNL     1      -2.396  -0.573  -7.350  0.00  0.00    +0.001 A 
ATOM     39  C   UNL     1      -1.623  -1.373  -8.173  0.00  0.00    +0.000 A 
ATOM     40  C   UNL     1      -0.559  -2.087  -7.652  0.00  0.00    +0.001 A 
ATOM     41  C   UNL     1      -0.258  -2.001  -6.308  0.00  0.00    +0.013 A 
ENDBRANCH  33  36
ENDBRANCH  31  32
ENDBRANCH   2  31
TORSDOF 9
