REMARK  Name = ZINC47619375
REMARK  6 active torsions:
REMARK  status: ('A' for Active; 'I' for Inactive)
REMARK    1  A    between atoms: C_4  and  C_7
REMARK    2  A    between atoms: C_10  and  N_13
REMARK    3  A    between atoms: N_16  and  C_17
REMARK    4  A    between atoms: C_17  and  C_18
REMARK    5  A    between atoms: C_21  and  S_24
REMARK    6  A    between atoms: S_24  and  N_27
REMARK                            x       y       z     vdW  Elec       q    Type
REMARK                         _______ _______ _______ _____ _____    ______ ____
ROOT
ATOM      1  N   UNL     1       4.132  -4.178  -0.059  0.00  0.00    -0.297 N 
ATOM      2  C   UNL     1       4.264  -5.344   0.603  0.00  0.00    +0.300 C 
ATOM      3  O   UNL     1       5.296  -5.594   1.195  0.00  0.00    -0.253 OA
ATOM      4  N   UNL     1       3.251  -6.234   0.609  0.00  0.00    -0.295 N 
ATOM      5  H   UNL     1       3.308  -3.979  -0.531  0.00  0.00    +0.151 HD
ATOM      6  H   UNL     1       2.428  -6.035   0.137  0.00  0.00    +0.151 HD
ENDROOT
BRANCH   1  10
ATOM      7  C   UNL     1       3.711  -0.707  -0.038  0.00  0.00    +0.019 C 
ATOM      8  C   UNL     1       3.791  -1.579  -1.292  0.00  0.00    +0.010 C 
ATOM      9  C   UNL     1       5.126  -2.326  -1.310  0.00  0.00    +0.023 C 
ATOM     10  C   UNL     1       5.232  -3.211  -0.066  0.00  0.00    +0.074 C 
ATOM     11  C   UNL     1       5.152  -2.339   1.188  0.00  0.00    +0.023 C 
ATOM     12  C   UNL     1       3.817  -1.592   1.206  0.00  0.00    +0.010 C 
BRANCH   7  16
ATOM     13  C   UNL     1      -0.017   1.378   0.010  0.00  0.00    +0.000 A 
ATOM     14  C   UNL     1       1.171   2.086   0.002  0.00  0.00    +0.000 A 
ATOM     15  C   UNL     1       2.377   1.411  -0.013  0.00  0.00    +0.004 A 
ATOM     16  C   UNL     1       2.396   0.029  -0.020  0.00  0.00    -0.044 A 
ATOM     17  C   UNL     1       1.208  -0.679  -0.012  0.00  0.00    +0.004 A 
ATOM     18  C   UNL     1       0.002  -0.004   0.002  0.00  0.00    +0.000 A 
ENDBRANCH   7  16
ENDBRANCH   1  10
BRANCH   4  19
ATOM     19  C   UNL     1       3.395  -7.502   1.329  0.00  0.00    +0.141 C 
BRANCH  19  20
ATOM     20  C   UNL     1       2.131  -8.310   1.180  0.00  0.00    -0.030 A 
ATOM     21  C   UNL     1       1.107  -8.165   2.097  0.00  0.00    +0.007 A 
ATOM     22  C   UNL     1      -0.052  -8.906   1.960  0.00  0.00    +0.029 A 
ATOM     23  C   UNL     1      -0.187  -9.791   0.907  0.00  0.00    +0.105 A 
ATOM     24  C   UNL     1       0.838  -9.935  -0.010  0.00  0.00    +0.029 A 
ATOM     25  C   UNL     1       1.995  -9.191   0.124  0.00  0.00    +0.007 A 
BRANCH  23  26
ATOM     26  S   UNL     1      -1.664 -10.737   0.734  0.00  0.00    +0.056 S 
ATOM     27  O   UNL     1      -1.321 -11.890  -0.023  0.00  0.00    -0.153 OA
ATOM     28  O   UNL     1      -2.247 -10.819   2.027  0.00  0.00    -0.153 OA
BRANCH  26  29
ATOM     29  N   UNL     1      -2.706  -9.850  -0.199  0.00  0.00    -0.204 NA
ATOM     30  H   UNL     1      -3.351 -10.300  -0.766  0.00  0.00    +0.144 HD
ATOM     31  H   UNL     1      -2.670  -8.881  -0.179  0.00  0.00    +0.144 HD
ENDBRANCH  26  29
ENDBRANCH  23  26
ENDBRANCH  19  20
ENDBRANCH   4  19
TORSDOF 6
