REMARK  Name = ZINC09442003
REMARK  10 active torsions:
REMARK  status: ('A' for Active; 'I' for Inactive)
REMARK    1  A    between atoms: C_1  and  C_2
REMARK    2  A    between atoms: C_2  and  C_37
REMARK    3  A    between atoms: C_13  and  C_15
REMARK    4  A    between atoms: C_15  and  O_16
REMARK    5  A    between atoms: O_16  and  C_17
REMARK    6  A    between atoms: C_17  and  C_19
REMARK    7  A    between atoms: C_19  and  C_21
REMARK    8  A    between atoms: C_19  and  N_28
REMARK    9  A    between atoms: C_21  and  C_22
REMARK   10  A    between atoms: C_29  and  C_31
REMARK                            x       y       z     vdW  Elec       q    Type
REMARK                         _______ _______ _______ _____ _____    ______ ____
ROOT
ATOM      1  C   UNL     1      -4.708   4.536  -2.180  0.00  0.00    +0.328 C 
ATOM      2  O   UNL     1      -4.810   5.712  -2.437  0.00  0.00    -0.249 OA
ENDROOT
BRANCH   1   3
ATOM      3  O   UNL     1      -5.681   3.911  -1.499  0.00  0.00    -0.454 OA
BRANCH   3   4
ATOM      4  C   UNL     1      -6.826   4.711  -1.102  0.00  0.00    +0.328 C 
BRANCH   4  17
ATOM      5  C   UNL     1      -9.520   2.077   0.811  0.00  0.00    +0.042 C 
ATOM      6  C   UNL     1      -9.980   3.534   0.746  0.00  0.00    +0.113 C 
ATOM      7  C   UNL     1     -11.353   3.601   0.136  0.00  0.00    +0.241 C 
ATOM      8  O   UNL     1     -12.126   2.681   0.300  0.00  0.00    -0.273 OA
ATOM      9  N   UNL     1     -11.734   4.668  -0.592  0.00  0.00    -0.282 N 
ATOM     10  C   UNL     1     -10.845   5.719  -0.838  0.00  0.00    +0.055 A 
ATOM     11  C   UNL     1     -11.300   6.931  -1.333  0.00  0.00    +0.025 A 
ATOM     12  C   UNL     1     -10.403   7.954  -1.579  0.00  0.00    +0.002 A 
ATOM     13  C   UNL     1      -9.053   7.775  -1.336  0.00  0.00    +0.002 A 
ATOM     14  C   UNL     1      -8.590   6.569  -0.840  0.00  0.00    +0.025 A 
ATOM     15  C   UNL     1      -9.482   5.542  -0.590  0.00  0.00    +0.059 A 
ATOM     16  N   UNL     1      -9.044   4.309  -0.083  0.00  0.00    -0.253 N 
ATOM     17  C   UNL     1      -7.807   3.846  -0.353  0.00  0.00    +0.258 C 
ATOM     18  O   UNL     1      -7.484   2.734   0.007  0.00  0.00    -0.271 OA
ATOM     19  C   UNL     1     -10.022   4.124   2.157  0.00  0.00    +0.042 C 
ATOM     20  H   UNL     1     -12.634   4.707  -0.951  0.00  0.00    +0.155 HD
ENDBRANCH   4  17
ENDBRANCH   3   4
ENDBRANCH   1   3
BRANCH   1  21
ATOM     21  C   UNL     1      -3.489   3.770  -2.626  0.00  0.00    +0.186 C 
BRANCH  21  22
ATOM     22  N   UNL     1      -2.583   4.670  -3.344  0.00  0.00    -0.298 N 
ATOM     23  C   UNL     1      -1.715   4.172  -4.247  0.00  0.00    +0.245 C 
ATOM     24  O   UNL     1      -1.684   2.976  -4.466  0.00  0.00    -0.270 OA
ATOM     25  H   UNL     1      -2.608   5.624  -3.170  0.00  0.00    +0.150 HD
BRANCH  23  26
ATOM     26  C   UNL     1      -0.801   5.080  -4.973  0.00  0.00    +0.037 A 
ATOM     27  C   UNL     1      -0.838   6.453  -4.729  0.00  0.00    +0.013 A 
ATOM     28  C   UNL     1       0.021   7.294  -5.405  0.00  0.00    +0.001 A 
ATOM     29  C   UNL     1       0.911   6.780  -6.331  0.00  0.00    +0.000 A 
ATOM     30  C   UNL     1       0.949   5.420  -6.582  0.00  0.00    +0.001 A 
ATOM     31  C   UNL     1       0.099   4.567  -5.908  0.00  0.00    +0.013 A 
ENDBRANCH  23  26
ENDBRANCH  21  22
BRANCH  21  32
ATOM     32  C   UNL     1      -2.773   3.195  -1.402  0.00  0.00    +0.069 C 
BRANCH  32  33
ATOM     33  C   UNL     1      -1.625   2.329  -1.853  0.00  0.00    -0.045 A 
ATOM     34  C   UNL     1      -1.827   0.981  -2.087  0.00  0.00    +0.004 A 
ATOM     35  C   UNL     1      -0.773   0.185  -2.496  0.00  0.00    +0.000 A 
ATOM     36  C   UNL     1       0.480   0.739  -2.681  0.00  0.00    +0.000 A 
ATOM     37  C   UNL     1       0.680   2.088  -2.453  0.00  0.00    +0.000 A 
ATOM     38  C   UNL     1      -0.372   2.882  -2.039  0.00  0.00    +0.004 A 
ENDBRANCH  32  33
ENDBRANCH  21  32
ENDBRANCH   1  21
TORSDOF 8
