REMARK  Name = ZINC39915855
REMARK  10 active torsions:
REMARK  status: ('A' for Active; 'I' for Inactive)
REMARK    1  A    between atoms: C_1  and  C_2
REMARK    2  A    between atoms: C_5  and  C_8
REMARK    3  A    between atoms: C_8  and  N_9
REMARK    4  A    between atoms: C_17  and  S_18
REMARK    5  A    between atoms: S_18  and  C_19
REMARK    6  A    between atoms: C_21  and  O_34
REMARK    7  A    between atoms: C_23  and  O_33
REMARK    8  A    between atoms: C_25  and  O_32
REMARK    9  A    between atoms: C_27  and  C_30
REMARK   10  A    between atoms: C_30  and  O_31
REMARK                            x       y       z     vdW  Elec       q    Type
REMARK                         _______ _______ _______ _____ _____    ______ ____
ROOT
ATOM      1  N   UNL     1       1.544  -5.003  -0.241  0.00  0.00    -0.314 N 
ATOM      2  C   UNL     1       2.357  -5.296  -1.324  0.00  0.00    +0.070 A 
ATOM      3  C   UNL     1       2.172  -5.276  -2.698  0.00  0.00    +0.028 A 
ATOM      4  C   UNL     1       3.208  -5.634  -3.536  0.00  0.00    +0.002 A 
ATOM      5  C   UNL     1       4.436  -6.014  -3.013  0.00  0.00    +0.002 A 
ATOM      6  C   UNL     1       4.637  -6.040  -1.651  0.00  0.00    +0.030 A 
ATOM      7  C   UNL     1       3.598  -5.680  -0.789  0.00  0.00    +0.090 A 
ATOM      8  N   UNL     1       3.491  -5.606   0.563  0.00  0.00    -0.222 NA
ATOM      9  C   UNL     1       2.287  -5.203   0.888  0.00  0.00    +0.173 A 
ENDROOT
BRANCH   1  10
ATOM     10  C   UNL     1       0.150  -4.557  -0.297  0.00  0.00    +0.159 C 
BRANCH  10  15
ATOM     11  C   UNL     1      -0.018   1.214  -0.547  0.00  0.00    +0.044 C 
ATOM     12  C   UNL     1       0.026  -0.291  -0.482  0.00  0.00    -0.050 A 
ATOM     13  C   UNL     1       0.078  -1.032  -1.648  0.00  0.00    +0.004 A 
ATOM     14  C   UNL     1       0.119  -2.412  -1.588  0.00  0.00    +0.005 A 
ATOM     15  C   UNL     1       0.107  -3.052  -0.362  0.00  0.00    -0.028 A 
ATOM     16  C   UNL     1       0.055  -2.311   0.803  0.00  0.00    +0.005 A 
ATOM     17  C   UNL     1       0.019  -0.930   0.744  0.00  0.00    +0.004 A 
ENDBRANCH  10  15
ENDBRANCH   1  10
BRANCH   9  18
ATOM     18  S   UNL     1       1.710  -4.961   2.535  0.00  0.00    -0.054 S 
BRANCH  18  19
ATOM     19  C   UNL     1       3.140  -5.385   3.568  0.00  0.00    +0.214 C 
ATOM     20  C   UNL     1       2.813  -5.097   5.036  0.00  0.00    +0.185 C 
ATOM     21  C   UNL     1       4.002  -5.514   5.907  0.00  0.00    +0.177 C 
ATOM     22  C   UNL     1       4.309  -6.994   5.658  0.00  0.00    +0.176 C 
ATOM     23  C   UNL     1       4.578  -7.209   4.167  0.00  0.00    +0.176 C 
ATOM     24  O   UNL     1       3.446  -6.772   3.412  0.00  0.00    -0.355 OA
BRANCH  22  25
ATOM     25  O   UNL     1       5.461  -7.377   6.412  0.00  0.00    -0.386 OA
ATOM     26  H   UNL     1       5.362  -7.262   7.367  0.00  0.00    +0.210 HD
ENDBRANCH  22  25
BRANCH  21  27
ATOM     27  O   UNL     1       5.144  -4.724   5.567  0.00  0.00    -0.386 OA
ATOM     28  H   UNL     1       5.017  -3.774   5.694  0.00  0.00    +0.210 HD
ENDBRANCH  21  27
BRANCH  20  29
ATOM     29  O   UNL     1       1.654  -5.839   5.421  0.00  0.00    -0.386 OA
ATOM     30  H   UNL     1       0.863  -5.628   4.906  0.00  0.00    +0.210 HD
ENDBRANCH  20  29
BRANCH  23  31
ATOM     31  C   UNL     1       5.810  -6.404   3.750  0.00  0.00    +0.190 C 
BRANCH  31  32
ATOM     32  O   UNL     1       6.152  -6.721   2.399  0.00  0.00    -0.392 OA
ATOM     33  H   UNL     1       6.926  -6.246   2.067  0.00  0.00    +0.210 HD
ENDBRANCH  31  32
ENDBRANCH  23  31
ENDBRANCH  18  19
ENDBRANCH   9  18
TORSDOF 9
