REMARK  Name = ZINC40269609
REMARK  2 active torsions:
REMARK  status: ('A' for Active; 'I' for Inactive)
REMARK    1  A    between atoms: C_6  and  C_7
REMARK    2  A    between atoms: C_7  and  C_9
REMARK                            x       y       z     vdW  Elec       q    Type
REMARK                         _______ _______ _______ _____ _____    ______ ____
ROOT
ATOM      1  C   UNL     1      -0.138   1.387  -0.499  0.00  0.00    +0.007 A 
ATOM      2  C   UNL     1       0.994   2.172  -0.541  0.00  0.00    +0.025 A 
ATOM      3  C   UNL     1       2.227   1.670  -0.121  0.00  0.00    +0.055 A 
ATOM      4  C   UNL     1       2.309   0.366   0.341  0.00  0.00    +0.055 A 
ATOM      5  C   UNL     1       1.156  -0.421   0.378  0.00  0.00    +0.030 A 
ATOM      6  C   UNL     1      -0.057   0.086  -0.037  0.00  0.00    -0.028 A 
ATOM      7  N   UNL     1       3.489  -0.227   0.780  0.00  0.00    -0.284 N 
ATOM      8  C   UNL     1       4.683  -0.094   0.207  0.00  0.00    +0.226 C 
ATOM      9  O   UNL     1       5.632  -0.695   0.664  0.00  0.00    -0.275 OA
ATOM     10  C   UNL     1       4.877   0.788  -0.999  0.00  0.00    +0.192 C 
ATOM     11  C   UNL     1       4.539   2.204  -0.607  0.00  0.00    +0.226 C 
ATOM     12  O   UNL     1       5.397   3.059  -0.667  0.00  0.00    -0.275 OA
ATOM     13  N   UNL     1       3.316   2.533  -0.198  0.00  0.00    -0.284 N 
ATOM     14  H   UNL     1       3.437  -0.784   1.572  0.00  0.00    +0.155 HD
ATOM     15  H   UNL     1       3.171   3.454   0.070  0.00  0.00    +0.155 HD
ENDROOT
BRANCH   6  16
ATOM     16  C   UNL     1      -1.292  -0.777   0.011  0.00  0.00    +0.113 C 
ATOM     17 CL   UNL     1      -2.433  -0.266  -1.288  0.00  0.00    -0.116 Cl
BRANCH  16  18
ATOM     18  C   UNL     1      -1.969  -0.622   1.374  0.00  0.00    +0.011 C 
ATOM     19  C   UNL     1      -3.144  -1.596   1.474  0.00  0.00    +0.005 C 
ATOM     20  C   UNL     1      -3.821  -1.441   2.837  0.00  0.00    +0.000 C 
ATOM     21  C   UNL     1      -4.332  -0.007   2.993  0.00  0.00    +0.000 C 
ATOM     22  C   UNL     1      -3.157   0.967   2.893  0.00  0.00    +0.000 C 
ATOM     23  C   UNL     1      -2.480   0.812   1.530  0.00  0.00    +0.005 C 
ENDBRANCH  16  18
ENDBRANCH   6  16
TORSDOF 2
