REMARK  Name = ZINC65563867
REMARK  6 active torsions:
REMARK  status: ('A' for Active; 'I' for Inactive)
REMARK    1  A    between atoms: C_1  and  C_2
REMARK    2  A    between atoms: C_8  and  N_12
REMARK    3  A    between atoms: N_12  and  C_13
REMARK    4  A    between atoms: C_13  and  C_14
REMARK    5  A    between atoms: C_17  and  S_20
REMARK    6  A    between atoms: S_20  and  C_23
REMARK                            x       y       z     vdW  Elec       q    Type
REMARK                         _______ _______ _______ _____ _____    ______ ____
ROOT
ATOM      1  N   UNL     1      -0.149  -1.402   4.748  0.00  0.00    +0.385 N 
ATOM      2  H   UNL     1       0.838  -1.278   4.916  0.00  0.00    -0.085 HD
ATOM      3  H   UNL     1      -0.643  -0.562   5.011  0.00  0.00    -0.085 HD
ENDROOT
BRANCH   1  11
ATOM      4  C   UNL     1      -0.018   1.503   0.010  0.00  0.00    +0.088 C 
ATOM      5  C   UNL     1       0.002  -0.004   0.002  0.00  0.00    +0.130 A 
ATOM      6  N   UNL     1       0.008  -0.776  -1.054  0.00  0.00    -0.135 NA
ATOM      7  N   UNL     1       0.027  -2.012  -0.690  0.00  0.00    -0.134 NA
ATOM      8  C   UNL     1       0.035  -2.082   0.606  0.00  0.00    +0.133 A 
ATOM      9  N   UNL     1       0.023  -0.810   1.081  0.00  0.00    -0.317 N 
ATOM     10  C   UNL     1       0.029  -0.447   2.498  0.00  0.00    +0.109 C 
ATOM     11  C   UNL     1      -0.372  -1.676   3.322  0.00  0.00    -0.051 C 
ATOM     12  C   UNL     1       0.474  -2.879   2.896  0.00  0.00    -0.006 C 
ATOM     13  C   UNL     1       0.058  -3.310   1.481  0.00  0.00    +0.075 C 
ENDBRANCH   1  11
BRANCH   1  14
ATOM     14  C   UNL     1      -0.644  -2.531   5.547  0.00  0.00    -0.046 C 
BRANCH  14  15
ATOM     15  C   UNL     1      -0.415  -2.250   7.010  0.00  0.00    -0.064 A 
ATOM     16  C   UNL     1       0.769  -2.636   7.611  0.00  0.00    +0.003 A 
ATOM     17  C   UNL     1       0.979  -2.378   8.953  0.00  0.00    +0.027 A 
ATOM     18  C   UNL     1       0.006  -1.734   9.693  0.00  0.00    +0.088 A 
ATOM     19  C   UNL     1      -1.177  -1.347   9.092  0.00  0.00    +0.027 A 
ATOM     20  C   UNL     1      -1.386  -1.601   7.749  0.00  0.00    +0.003 A 
BRANCH  18  21
ATOM     21  S   UNL     1       0.273  -1.407  11.404  0.00  0.00    -0.006 S 
ATOM     22  O   UNL     1      -1.030  -1.339  11.968  0.00  0.00    -0.170 OA
ATOM     23  O   UNL     1       1.194  -2.404  11.824  0.00  0.00    -0.170 OA
ATOM     24  C   UNL     1       1.058   0.228  11.448  0.00  0.00    +0.200 C 
ENDBRANCH  18  21
ENDBRANCH  14  15
ENDBRANCH   1  14
TORSDOF 4
