REMARK  Name = ZINC34716386
REMARK  7 active torsions:
REMARK  status: ('A' for Active; 'I' for Inactive)
REMARK    1  A    between atoms: C_1  and  C_2
REMARK    2  A    between atoms: C_2  and  N_3
REMARK    3  A    between atoms: C_8  and  C_22
REMARK    4  A    between atoms: C_12  and  C_14
REMARK    5  A    between atoms: C_18  and  C_20
REMARK    6  A    between atoms: N_24  and  C_25
REMARK    7  A    between atoms: C_25  and  C_26
REMARK                            x       y       z     vdW  Elec       q    Type
REMARK                         _______ _______ _______ _____ _____    ______ ____
ROOT
ATOM      1  N   UNL     1       1.584  -0.692  -0.723  0.00  0.00    -0.299 N 
ATOM      2  C   UNL     1       1.420  -1.967  -1.126  0.00  0.00    +0.303 C 
ATOM      3  O   UNL     1       1.015  -2.805  -0.344  0.00  0.00    -0.253 OA
ATOM      4  N   UNL     1       1.704  -2.313  -2.397  0.00  0.00    -0.278 N 
ATOM      5  C   UNL     1       2.305  -1.342  -3.321  0.00  0.00    +0.122 C 
ATOM      6  C   UNL     1       1.444  -1.267  -4.587  0.00  0.00    +0.092 C 
ATOM      7  C   UNL     1       1.280  -2.672  -5.171  0.00  0.00    +0.016 C 
ATOM      8  C   UNL     1       0.570  -3.569  -4.155  0.00  0.00    +0.028 C 
ATOM      9  C   UNL     1       1.425  -3.671  -2.884  0.00  0.00    +0.108 C 
ATOM     10  H   UNL     1       1.976  -0.039  -1.324  0.00  0.00    +0.150 HD
ENDROOT
BRANCH   9  11
ATOM     11  C   UNL     1       0.675  -4.442  -1.828  0.00  0.00    -0.027 A 
ATOM     12  C   UNL     1      -0.568  -4.006  -1.407  0.00  0.00    +0.008 A 
ATOM     13  C   UNL     1      -1.257  -4.712  -0.439  0.00  0.00    +0.039 A 
ATOM     14  C   UNL     1      -0.702  -5.856   0.109  0.00  0.00    +0.126 A 
ATOM     15  C   UNL     1       0.542  -6.291  -0.313  0.00  0.00    -0.015 A 
ATOM     16  C   UNL     1       1.227  -5.587  -1.285  0.00  0.00    +0.011 A 
ATOM     17  C   UNL     1       1.147  -7.536   0.283  0.00  0.00    +0.047 C 
ATOM     18  F   UNL     1      -1.375  -6.546   1.056  0.00  0.00    -0.205 F 
ENDBRANCH   9  11
BRANCH   6  19
ATOM     19  C   UNL     1       0.090  -0.704  -4.241  0.00  0.00    +0.218 C 
ATOM     20  O   UNL     1      -0.909  -1.361  -4.444  0.00  0.00    -0.275 OA
ATOM     21  N   UNL     1      -0.011   0.528  -3.706  0.00  0.00    -0.308 N 
ATOM     22  H   UNL     1       0.788   1.054  -3.543  0.00  0.00    +0.149 HD
BRANCH  21  23
ATOM     23  C   UNL     1      -1.328   1.076  -3.370  0.00  0.00    +0.178 C 
BRANCH  23  24
ATOM     24  C   UNL     1      -1.165   2.458  -2.791  0.00  0.00    +0.122 A 
ATOM     25  C   UNL     1      -1.163   3.607  -3.489  0.00  0.00    +0.046 A 
ATOM     26  C   UNL     1      -0.983   4.653  -2.555  0.00  0.00    +0.041 A 
ATOM     27  C   UNL     1      -0.887   4.080  -1.342  0.00  0.00    +0.195 A 
ATOM     28  O   UNL     1      -1.003   2.751  -1.490  0.00  0.00    -0.466 OA
ENDBRANCH  23  24
ENDBRANCH  21  23
ENDBRANCH   6  19
BRANCH   1  30
ATOM     29  C   UNL     1       1.464   1.197   0.826  0.00  0.00    +0.024 C 
ATOM     30  C   UNL     1       1.170  -0.290   0.624  0.00  0.00    +0.102 C 
ENDBRANCH   1  30
TORSDOF 5
