REMARK  Name = ZINC06137648
REMARK  13 active torsions:
REMARK  status: ('A' for Active; 'I' for Inactive)
REMARK    1  A    between atoms: C_1  and  C_2
REMARK    2  A    between atoms: C_3  and  C_34
REMARK    3  A    between atoms: C_4  and  C_25
REMARK    4  A    between atoms: C_10  and  C_15
REMARK    5  A    between atoms: C_18  and  O_23
REMARK    6  A    between atoms: C_19  and  O_21
REMARK    7  A    between atoms: O_21  and  C_22
REMARK    8  A    between atoms: O_23  and  C_24
REMARK    9  A    between atoms: C_28  and  O_32
REMARK   10  A    between atoms: C_29  and  O_31
REMARK   11  A    between atoms: O_32  and  C_33
REMARK   12  A    between atoms: C_34  and  O_36
REMARK   13  A    between atoms: O_36  and  C_37
REMARK                            x       y       z     vdW  Elec       q    Type
REMARK                         _______ _______ _______ _____ _____    ______ ____
ROOT
ATOM      1  C   UNL     1      -6.544  -3.780   0.984  0.00  0.00    +0.061 C 
ATOM      2  C   UNL     1      -6.507  -2.277   0.880  0.00  0.00    +0.031 C 
ATOM      3  C   UNL     1      -6.102  -1.544   1.930  0.00  0.00    +0.154 C 
ATOM      4  C   UNL     1      -6.048  -0.047   1.863  0.00  0.00    +0.073 C 
ATOM      5  C   UNL     1      -6.868   0.474   0.709  0.00  0.00    +0.025 C 
ATOM      6  C   UNL     1      -7.242  -0.346  -0.295  0.00  0.00    +0.049 C 
ATOM      7  N   UNL     1      -6.885  -1.668  -0.284  0.00  0.00    -0.260 NA
ATOM      8  C   UNL     1      -8.066   0.167  -1.452  0.00  0.00    +0.064 C 
ATOM      9  C   UNL     1      -7.741   1.640  -1.701  0.00  0.00    +0.032 C 
ATOM     10  C   UNL     1      -8.029   2.426  -0.418  0.00  0.00    +0.088 C 
ATOM     11  C   UNL     1      -7.228   1.833   0.709  0.00  0.00    +0.162 C 
ATOM     12  O   UNL     1      -6.887   2.540   1.636  0.00  0.00    -0.292 OA
ENDROOT
BRANCH   9  13
ATOM     13  C   UNL     1      -8.598   2.165  -2.824  0.00  0.00    -0.040 A 
ATOM     14  C   UNL     1      -9.975   2.144  -2.708  0.00  0.00    +0.008 A 
ATOM     15  C   UNL     1     -10.766   2.624  -3.736  0.00  0.00    +0.049 A 
ATOM     16  C   UNL     1     -10.178   3.128  -4.885  0.00  0.00    +0.161 A 
ATOM     17  C   UNL     1      -8.791   3.149  -5.002  0.00  0.00    +0.162 A 
ATOM     18  C   UNL     1      -8.005   2.670  -3.966  0.00  0.00    +0.053 A 
BRANCH  17  19
ATOM     19  O   UNL     1      -8.209   3.642  -6.128  0.00  0.00    -0.491 OA
ATOM     20  C   UNL     1      -6.781   3.631  -6.178  0.00  0.00    +0.277 C 
ENDBRANCH  17  19
BRANCH  16  21
ATOM     21  O   UNL     1     -10.954   3.600  -5.897  0.00  0.00    -0.491 OA
ATOM     22  C   UNL     1     -12.369   3.547  -5.708  0.00  0.00    +0.277 C 
ENDBRANCH  16  21
ENDBRANCH   9  13
BRANCH   4  23
ATOM     23  C   UNL     1      -4.614   0.382   1.685  0.00  0.00    -0.035 A 
ATOM     24  C   UNL     1      -3.906  -0.026   0.570  0.00  0.00    +0.008 A 
ATOM     25  C   UNL     1      -2.592   0.369   0.399  0.00  0.00    +0.049 A 
ATOM     26  C   UNL     1      -1.979   1.167   1.352  0.00  0.00    +0.161 A 
ATOM     27  C   UNL     1      -2.693   1.578   2.474  0.00  0.00    +0.159 A 
ATOM     28  C   UNL     1      -4.011   1.183   2.636  0.00  0.00    +0.053 A 
BRANCH  27  29
ATOM     29  O   UNL     1      -2.097   2.366   3.409  0.00  0.00    -0.503 OA
ATOM     30  H   UNL     1      -2.194   3.314   3.244  0.00  0.00    +0.292 HD
ENDBRANCH  27  29
BRANCH  26  31
ATOM     31  O   UNL     1      -0.685   1.552   1.188  0.00  0.00    -0.491 OA
ATOM     32  C   UNL     1      -0.016   1.093   0.012  0.00  0.00    +0.277 C 
ENDBRANCH  26  31
ENDBRANCH   4  23
BRANCH   3  33
ATOM     33  C   UNL     1      -5.724  -2.198   3.126  0.00  0.00    +0.317 C 
ATOM     34  O   UNL     1      -5.766  -3.412   3.194  0.00  0.00    -0.250 OA
BRANCH  33  35
ATOM     35  O   UNL     1      -5.316  -1.476   4.190  0.00  0.00    -0.461 OA
BRANCH  35  36
ATOM     36  C   UNL     1      -4.948  -2.202   5.365  0.00  0.00    +0.176 C 
ATOM     37  C   UNL     1      -6.168  -2.351   6.297  0.00  0.00    +0.044 C 
ATOM     38  C   UNL     1      -5.574  -2.216   7.722  0.00  0.00    +0.004 C 
ATOM     39  C   UNL     1      -4.491  -1.124   7.540  0.00  0.00    +0.004 C 
ATOM     40  C   UNL     1      -3.882  -1.422   6.154  0.00  0.00    +0.044 C 
ENDBRANCH  35  36
ENDBRANCH  33  35
ENDBRANCH   3  33
TORSDOF 9
