REMARK  Name = ZINC28910622
REMARK  10 active torsions:
REMARK  status: ('A' for Active; 'I' for Inactive)
REMARK    1  A    between atoms: C_1  and  N_2
REMARK    2  A    between atoms: N_2  and  C_3
REMARK    3  A    between atoms: N_2  and  C_4
REMARK    4  A    between atoms: C_7  and  C_10
REMARK    5  A    between atoms: C_10  and  C_12
REMARK    6  A    between atoms: C_10  and  C_31
REMARK    7  A    between atoms: C_12  and  N_13
REMARK    8  A    between atoms: C_14  and  C_16
REMARK    9  A    between atoms: C_16  and  C_17
REMARK   10  A    between atoms: C_17  and  N_18
REMARK                            x       y       z     vdW  Elec       q    Type
REMARK                         _______ _______ _______ _____ _____    ______ ____
ROOT
ATOM      1  C   UNL     1      -4.870  -2.906   0.033  0.00  0.00    +0.068 C 
ENDROOT
BRANCH   1   2
ATOM      2  C   UNL     1      -5.656  -2.555   1.269  0.00  0.00    -0.013 A 
ATOM      3  C   UNL     1      -6.104  -1.336   1.612  0.00  0.00    +0.088 A 
ATOM      4  N   UNL     1      -6.777  -1.403   2.801  0.00  0.00    -0.360 N 
ATOM      5  H   UNL     1      -7.191  -0.650   3.251  0.00  0.00    +0.165 HD
ATOM      6  C   UNL     1      -6.780  -2.700   3.265  0.00  0.00    +0.047 A 
ATOM      7  C   UNL     1      -6.084  -3.479   2.322  0.00  0.00    +0.003 A 
ATOM      8  C   UNL     1      -5.931  -4.851   2.529  0.00  0.00    +0.010 A 
ATOM      9  C   UNL     1      -6.463  -5.432   3.646  0.00  0.00    +0.001 A 
ATOM     10  C   UNL     1      -7.154  -4.669   4.577  0.00  0.00    +0.002 A 
ATOM     11  C   UNL     1      -7.309  -3.311   4.397  0.00  0.00    +0.026 A 
ENDBRANCH   1   2
BRANCH   1  15
ATOM     12  C   UNL     1      -1.198  -0.719   0.010  0.00  0.00    +0.029 A 
ATOM     13  C   UNL     1      -1.181  -2.108   0.008  0.00  0.00    +0.023 A 
ATOM     14  C   UNL     1      -2.369  -2.812   0.016  0.00  0.00    +0.006 A 
ATOM     15  C   UNL     1      -3.575  -2.135   0.025  0.00  0.00    -0.038 A 
ATOM     16  C   UNL     1      -3.596  -0.752   0.027  0.00  0.00    +0.006 A 
ATOM     17  C   UNL     1      -2.411  -0.042   0.025  0.00  0.00    +0.023 A 
BRANCH  12  19
ATOM     18  C   UNL     1      -0.018   1.461   0.010  0.00  0.00    +0.129 C 
ATOM     19  N   UNL     1       0.002  -0.004   0.002  0.00  0.00    -0.336 N 
ATOM     20  C   UNL     1       1.281  -0.719  -0.014  0.00  0.00    +0.129 C 
ENDBRANCH  12  19
ENDBRANCH   1  15
BRANCH   1  21
ATOM     21  C   UNL     1      -5.686  -2.545  -1.210  0.00  0.00    +0.117 C 
BRANCH  21  22
ATOM     22  N   UNL     1      -6.888  -3.381  -1.265  0.00  0.00    -0.314 N 
ATOM     23  C   UNL     1      -7.762  -3.239  -2.280  0.00  0.00    +0.215 C 
ATOM     24  O   UNL     1      -7.554  -2.418  -3.149  0.00  0.00    -0.276 OA
ATOM     25  H   UNL     1      -7.054  -4.037  -0.570  0.00  0.00    +0.149 HD
BRANCH  23  26
ATOM     26  C   UNL     1      -8.998  -4.098  -2.337  0.00  0.00    +0.115 C 
BRANCH  26  27
ATOM     27  C   UNL     1      -9.814  -3.738  -3.580  0.00  0.00    +0.125 C 
BRANCH  27  28
ATOM     28  N   UNL     1     -11.016  -4.574  -3.635  0.00  0.00    -0.241 N 
ATOM     29  C   UNL     1     -11.057  -5.782  -4.258  0.00  0.00    +0.226 C 
ATOM     30  O   UNL     1     -10.113  -6.432  -4.652  0.00  0.00    -0.275 OA
ATOM     31  C   UNL     1     -12.505  -6.146  -4.357  0.00  0.00    +0.087 C 
ATOM     32  C   UNL     1     -12.913  -7.601  -4.270  0.00  0.00    +0.013 C 
ATOM     33  C   UNL     1     -14.452  -7.621  -4.364  0.00  0.00    +0.001 C 
ATOM     34  C   UNL     1     -15.099  -6.780  -3.269  0.00  0.00    +0.001 C 
ATOM     35  C   UNL     1     -14.540  -5.346  -3.233  0.00  0.00    +0.013 C 
ATOM     36  C   UNL     1     -13.048  -5.449  -3.074  0.00  0.00    +0.087 C 
ATOM     37  C   UNL     1     -12.198  -4.220  -3.062  0.00  0.00    +0.226 C 
ATOM     38  O   UNL     1     -12.503  -3.128  -2.632  0.00  0.00    -0.275 OA
ENDBRANCH  27  28
ENDBRANCH  26  27
ENDBRANCH  23  26
ENDBRANCH  21  22
ENDBRANCH   1  21
TORSDOF 8
