REMARK  Name = ZINC10068770
REMARK  13 active torsions:
REMARK  status: ('A' for Active; 'I' for Inactive)
REMARK    1  A    between atoms: C_1  and  N_56
REMARK    2  A    between atoms: C_2  and  N_56
REMARK    3  A    between atoms: C_3  and  C_4
REMARK    4  A    between atoms: C_3  and  N_56
REMARK    5  A    between atoms: C_4  and  C_5
REMARK    6  A    between atoms: C_5  and  N_6
REMARK    7  A    between atoms: C_10  and  O_18
REMARK    8  A    between atoms: C_13  and  O_16
REMARK    9  A    between atoms: O_16  and  C_17
REMARK   10  A    between atoms: O_18  and  C_19
REMARK   11  A    between atoms: C_20  and  C_22
REMARK   12  A    between atoms: C_23  and  C_24
REMARK   13  A    between atoms: C_27  and  N_29
REMARK                            x       y       z     vdW  Elec       q    Type
REMARK                         _______ _______ _______ _____ _____    ______ ____
ROOT
ATOM      1  N   UNL     1       4.495  -3.025  -0.057  0.00  0.00    -0.247 N 
ATOM      2  C   UNL     1       3.469  -2.096  -0.042  0.00  0.00    +0.169 A 
ATOM      3  N   UNL     1       3.545  -0.785  -0.036  0.00  0.00    -0.221 NA
ATOM      4  C   UNL     1       2.449   0.005  -0.021  0.00  0.00    +0.125 A 
ATOM      5  C   UNL     1       2.393   1.423  -0.014  0.00  0.00    +0.147 A 
ATOM      6  C   UNL     1       1.185   2.078   0.002  0.00  0.00    +0.051 A 
ATOM      7  C   UNL     1      -0.017   1.382   0.010  0.00  0.00    +0.050 A 
ATOM      8  C   UNL     1       0.002  -0.004   0.002  0.00  0.00    +0.136 A 
ATOM      9  C   UNL     1       1.209  -0.668  -0.013  0.00  0.00    +0.086 A 
ATOM     10  S   UNL     1       1.704  -2.374  -0.027  0.00  0.00    -0.048 S 
ATOM     11  C   UNL     1       4.211  -4.343  -0.061  0.00  0.00    +0.245 C 
ATOM     12  O   UNL     1       3.052  -4.715  -0.052  0.00  0.00    -0.270 OA
ENDROOT
BRANCH   8  13
ATOM     13  O   UNL     1      -1.164  -0.704   0.010  0.00  0.00    -0.494 OA
ATOM     14  C   UNL     1      -2.376   0.053   0.026  0.00  0.00    +0.277 C 
ENDBRANCH   8  13
BRANCH   5  15
ATOM     15  O   UNL     1       3.547   2.142  -0.021  0.00  0.00    -0.493 OA
ATOM     16  C   UNL     1       3.425   3.566  -0.012  0.00  0.00    +0.277 C 
ENDBRANCH   5  15
BRANCH  11  17
ATOM     17  C   UNL     1       5.259  -5.292  -0.077  0.00  0.00    +0.069 C 
ATOM     18  C   UNL     1       4.973  -6.618  -0.081  0.00  0.00    +0.020 C 
BRANCH  18  19
ATOM     19  C   UNL     1       6.022  -7.568  -0.096  0.00  0.00    +0.015 A 
ATOM     20  C   UNL     1       5.947  -8.956  -0.097  0.00  0.00    +0.018 A 
ATOM     21  C   UNL     1       7.135  -9.644  -0.118  0.00  0.00    +0.041 A 
ATOM     22  C   UNL     1       8.304  -8.951  -0.125  0.00  0.00    +0.164 A 
ATOM     23  S   UNL     1       7.785  -7.297  -0.111  0.00  0.00    -0.065 S 
BRANCH  22  24
ATOM     24  N   UNL     1       9.686  -9.481  -0.141  0.00  0.00    +0.063 N 
ATOM     25  O   UNL     1       9.877 -10.684  -0.149  0.00  0.00    -0.126 OA
ATOM     26  O   UNL     1      10.632  -8.714  -0.145  0.00  0.00    -0.126 OA
ENDBRANCH  22  24
ENDBRANCH  18  19
ENDBRANCH  11  17
BRANCH   1  27
ATOM     27  C   UNL     1       5.890  -2.576  -0.068  0.00  0.00    +0.114 C 
BRANCH  27  28
ATOM     28  C   UNL     1       6.389  -2.428   1.371  0.00  0.00    +0.001 C 
BRANCH  28  29
ATOM     29  C   UNL     1       7.846  -1.960   1.359  0.00  0.00    -0.078 C 
BRANCH  29  32
ATOM     30  C   UNL     1       8.383  -3.121   3.415  0.00  0.00    -0.097 C 
ATOM     31  C   UNL     1       9.632  -1.147   2.778  0.00  0.00    -0.097 C 
ATOM     32  N   UNL     1       8.306  -1.800   2.755  0.00  0.00    +0.376 N 
ATOM     33  H   UNL     1       7.635  -1.212   3.262  0.00  0.00    -0.083 HD
ENDBRANCH  29  32
ENDBRANCH  28  29
ENDBRANCH  27  28
ENDBRANCH   1  27
TORSDOF 9
