REMARK  Name = ZINC11915349
REMARK  7 active torsions:
REMARK  status: ('A' for Active; 'I' for Inactive)
REMARK    1  A    between atoms: C_1  and  C_2
REMARK    2  A    between atoms: C_5  and  C_8
REMARK    3  A    between atoms: N_9  and  N_10
REMARK    4  A    between atoms: C_11  and  C_13
REMARK    5  A    between atoms: C_15  and  C_19
REMARK    6  A    between atoms: C_23  and  C_26
REMARK    7  A    between atoms: C_24  and  O_25
REMARK                            x       y       z     vdW  Elec       q    Type
REMARK                         _______ _______ _______ _____ _____    ______ ____
ROOT
ATOM      1  C   UNL     1       0.127  -8.461   2.247  0.00  0.00    +0.149 A 
ATOM      2  C   UNL     1       0.139  -9.303   3.380  0.00  0.00    +0.062 A 
ATOM      3  C   UNL     1       0.156 -10.578   2.885  0.00  0.00    +0.070 A 
ATOM      4  N   UNL     1       0.154 -10.473   1.525  0.00  0.00    -0.276 N 
ATOM      5  H   UNL     1       0.163 -11.223   0.909  0.00  0.00    +0.189 HD
ATOM      6  N   UNL     1       0.132  -9.236   1.180  0.00  0.00    -0.169 NA
ENDROOT
BRANCH   3   7
ATOM      7  C   UNL     1       0.172 -11.830   3.673  0.00  0.00    +0.041 A 
ATOM      8  C   UNL     1       0.945 -11.918   4.831  0.00  0.00    +0.013 A 
ATOM      9  C   UNL     1       0.956 -13.088   5.562  0.00  0.00    +0.001 A 
ATOM     10  C   UNL     1       0.205 -14.175   5.151  0.00  0.00    +0.007 A 
ATOM     11  C   UNL     1      -0.564 -14.099   4.005  0.00  0.00    -0.008 A 
ATOM     12  C   UNL     1      -0.591 -12.929   3.264  0.00  0.00    +0.129 A 
ATOM     13  C   UNL     1      -1.379 -15.288   3.565  0.00  0.00    +0.047 C 
BRANCH  12  14
ATOM     14  O   UNL     1      -1.351 -12.851   2.140  0.00  0.00    -0.506 OA
ATOM     15  H   UNL     1      -0.891 -13.121   1.334  0.00  0.00    +0.292 HD
ENDBRANCH  12  14
ENDBRANCH   3   7
BRANCH   1  17
ATOM     16  N   UNL     1       0.093  -6.304   1.091  0.00  0.00    -0.202 N 
ATOM     17  C   UNL     1       0.108  -6.984   2.255  0.00  0.00    +0.283 C 
ATOM     18  O   UNL     1       0.105  -6.382   3.311  0.00  0.00    -0.267 OA
ATOM     19  H   UNL     1       0.095  -6.784   0.249  0.00  0.00    +0.178 HD
BRANCH  16  21
ATOM     20  C   UNL     1       0.060  -4.248  -0.021  0.00  0.00    +0.138 C 
ATOM     21  N   UNL     1       0.074  -4.903   1.099  0.00  0.00    -0.187 NA
BRANCH  20  26
ATOM     22  C   UNL     1      -0.018   1.503   0.010  0.00  0.00    +0.044 C 
ATOM     23  C   UNL     1       0.002  -0.004   0.002  0.00  0.00    -0.050 A 
ATOM     24  C   UNL     1       0.006  -0.686  -1.202  0.00  0.00    +0.004 A 
ATOM     25  C   UNL     1       0.024  -2.065  -1.217  0.00  0.00    +0.010 A 
ATOM     26  C   UNL     1       0.040  -2.773  -0.013  0.00  0.00    -0.005 A 
ATOM     27  C   UNL     1       0.037  -2.078   1.198  0.00  0.00    +0.010 A 
ATOM     28  C   UNL     1       0.023  -0.699   1.198  0.00  0.00    +0.004 A 
ENDBRANCH  20  26
ENDBRANCH  16  21
ENDBRANCH   1  17
TORSDOF 5
