REMARK  Name = ZINC40205705
REMARK  10 active torsions:
REMARK  status: ('A' for Active; 'I' for Inactive)
REMARK    1  A    between atoms: C_4  and  C_7
REMARK    2  A    between atoms: C_7  and  N_8
REMARK    3  A    between atoms: N_8  and  C_9
REMARK    4  A    between atoms: C_15  and  C_17
REMARK    5  A    between atoms: C_17  and  N_18
REMARK    6  A    between atoms: C_26  and  C_27
REMARK    7  A    between atoms: C_27  and  C_28
REMARK    8  A    between atoms: C_28  and  C_29
REMARK    9  A    between atoms: C_29  and  N_30
REMARK   10  A    between atoms: C_31  and  C_33
REMARK                            x       y       z     vdW  Elec       q    Type
REMARK                         _______ _______ _______ _____ _____    ______ ____
ROOT
ATOM      1  N   UNL     1       5.992   1.301   3.744  0.00  0.00    -0.319 N 
ATOM      2  C   UNL     1       7.339   1.587   3.653  0.00  0.00    +0.069 A 
ATOM      3  C   UNL     1       8.448   0.885   3.200  0.00  0.00    +0.028 A 
ATOM      4  C   UNL     1       9.694   1.472   3.246  0.00  0.00    +0.002 A 
ATOM      5  C   UNL     1       9.847   2.759   3.742  0.00  0.00    +0.002 A 
ATOM      6  C   UNL     1       8.768   3.465   4.193  0.00  0.00    +0.030 A 
ATOM      7  C   UNL     1       7.495   2.890   4.155  0.00  0.00    +0.089 A 
ATOM      8  N   UNL     1       6.260   3.323   4.519  0.00  0.00    -0.232 NA
ATOM      9  C   UNL     1       5.381   2.396   4.273  0.00  0.00    +0.111 A 
ENDROOT
BRANCH   1  10
ATOM     10  C   UNL     1       5.339   0.053   3.341  0.00  0.00    +0.219 C 
BRANCH  10  12
ATOM     11  N   UNL     1       4.211  -0.848   1.332  0.00  0.00    -0.293 N 
ATOM     12  C   UNL     1       4.923   0.149   1.896  0.00  0.00    +0.236 C 
ATOM     13  O   UNL     1       5.228   1.122   1.240  0.00  0.00    -0.274 OA
BRANCH  11  14
ATOM     14  C   UNL     1       3.939  -2.072   2.089  0.00  0.00    +0.076 C 
ATOM     15  C   UNL     1       4.641  -3.253   1.417  0.00  0.00    +0.022 C 
ATOM     16  C   UNL     1       4.358  -4.532   2.207  0.00  0.00    +0.002 C 
ATOM     17  C   UNL     1       2.849  -4.787   2.240  0.00  0.00    +0.000 C 
ATOM     18  C   UNL     1       2.147  -3.606   2.912  0.00  0.00    +0.002 C 
ATOM     19  C   UNL     1       2.431  -2.327   2.122  0.00  0.00    +0.022 C 
ENDBRANCH  11  14
BRANCH  11  20
ATOM     20  C   UNL     1       3.709  -0.706  -0.037  0.00  0.00    +0.143 C 
BRANCH  20  24
ATOM     21  C   UNL     1       0.035   1.473   0.010  0.00  0.00    +0.000 A 
ATOM     22  C   UNL     1       1.240   2.150   0.036  0.00  0.00    +0.000 A 
ATOM     23  C   UNL     1       2.429   1.444   0.021  0.00  0.00    +0.005 A 
ATOM     24  C   UNL     1       2.413   0.063  -0.019  0.00  0.00    -0.030 A 
ATOM     25  C   UNL     1       1.208  -0.614  -0.045  0.00  0.00    +0.005 A 
ATOM     26  C   UNL     1       0.019   0.091  -0.031  0.00  0.00    +0.000 A 
ENDBRANCH  20  24
ENDBRANCH  11  20
ENDBRANCH  10  12
ENDBRANCH   1  10
BRANCH   9  27
ATOM     27  C   UNL     1       3.903   2.516   4.539  0.00  0.00    +0.076 C 
BRANCH  27  28
ATOM     28  C   UNL     1       3.597   2.025   5.955  0.00  0.00    +0.026 C 
BRANCH  28  29
ATOM     29  C   UNL     1       2.096   2.147   6.225  0.00  0.00    +0.105 C 
BRANCH  29  30
ATOM     30  N   UNL     1       1.804   1.676   7.581  0.00  0.00    -0.311 N 
ATOM     31  C   UNL     1       0.537   1.691   8.041  0.00  0.00    +0.251 C 
ATOM     32  O   UNL     1      -0.364   2.095   7.330  0.00  0.00    -0.270 OA
ATOM     33  H   UNL     1       2.522   1.354   8.148  0.00  0.00    +0.149 HD
BRANCH  31  34
ATOM     34  C   UNL     1       0.245   1.220   9.398  0.00  0.00    +0.074 A 
ATOM     35  C   UNL     1      -0.975   1.147  10.054  0.00  0.00    +0.021 A 
ATOM     36  C   UNL     1      -0.934   0.657  11.337  0.00  0.00    +0.008 A 
ATOM     37  C   UNL     1       0.260   0.287  11.864  0.00  0.00    +0.046 A 
ATOM     38  S   UNL     1       1.363   0.585  10.633  0.00  0.00    -0.092 S 
ENDBRANCH  31  34
ENDBRANCH  29  30
ENDBRANCH  28  29
ENDBRANCH  27  28
ENDBRANCH   9  27
TORSDOF 10
