REMARK  Name = ZINC61888070
REMARK  6 active torsions:
REMARK  status: ('A' for Active; 'I' for Inactive)
REMARK    1  A    between atoms: C_1  and  C_2
REMARK    2  A    between atoms: C_5  and  S_7
REMARK    3  A    between atoms: S_7  and  N_10
REMARK    4  A    between atoms: N_10  and  C_11
REMARK    5  A    between atoms: C_16  and  C_18
REMARK    6  A    between atoms: N_19  and  O_20
REMARK                            x       y       z     vdW  Elec       q    Type
REMARK                         _______ _______ _______ _____ _____    ______ ____
ROOT
ATOM      1  C   UNL     1       2.266  -4.058  -2.473  0.00  0.00    +0.087 C 
ATOM      2  C   UNL     1       3.580  -4.864  -2.545  0.00  0.00    +0.021 C 
ATOM      3  C   UNL     1       3.439  -5.705  -3.838  0.00  0.00    +0.002 C 
ATOM      4  C   UNL     1       2.728  -4.726  -4.806  0.00  0.00    +0.013 C 
ATOM      5  C   UNL     1       1.724  -3.970  -3.910  0.00  0.00    +0.074 C 
ENDROOT
BRANCH   5   6
ATOM      6  C   UNL     1       1.633  -2.528  -4.340  0.00  0.00    +0.136 C 
ATOM      7  N   UNL     1       2.393  -1.640  -3.788  0.00  0.00    -0.076 NA
ATOM      8  N   UNL     1       0.739  -2.157  -5.319  0.00  0.00    -0.344 N 
ATOM      9  H   UNL     1       0.168  -2.823  -5.733  0.00  0.00    +0.144 HD
ATOM     10  H   UNL     1       0.680  -1.229  -5.596  0.00  0.00    +0.144 HD
BRANCH   7  11
ATOM     11  O   UNL     1       2.307  -0.286  -4.192  0.00  0.00    -0.408 OA
ATOM     12  H   UNL     1       2.914   0.303  -3.724  0.00  0.00    +0.328 HD
ENDBRANCH   7  11
ENDBRANCH   5   6
BRANCH   1  13
ATOM     13  N   UNL     1       1.300  -4.748  -1.614  0.00  0.00    -0.186 NA
ATOM     14  H   UNL     1       0.759  -5.468  -1.974  0.00  0.00    +0.148 HD
BRANCH  13  15
ATOM     15  S   UNL     1       1.134  -4.300  -0.029  0.00  0.00    +0.065 S 
ATOM     16  O   UNL     1       2.445  -4.240   0.516  0.00  0.00    -0.153 OA
ATOM     17  O   UNL     1       0.117  -5.126   0.522  0.00  0.00    -0.153 OA
BRANCH  15  22
ATOM     18  C   UNL     1      -0.018   1.503   0.010  0.00  0.00    +0.051 C 
ATOM     19  C   UNL     1       0.002  -0.004   0.002  0.00  0.00    -0.011 A 
ATOM     20  C   UNL     1      -1.039  -0.872   0.002  0.00  0.00    +0.013 A 
ATOM     21  C   UNL     1      -0.780  -2.230  -0.007  0.00  0.00    +0.036 A 
ATOM     22  C   UNL     1       0.507  -2.653  -0.016  0.00  0.00    +0.143 A 
ATOM     23  S   UNL     1       1.404  -1.109  -0.018  0.00  0.00    -0.074 S 
ENDBRANCH  15  22
ENDBRANCH  13  15
ENDBRANCH   1  13
TORSDOF 5
