REMARK  Name = ZINC60348232
REMARK  7 active torsions:
REMARK  status: ('A' for Active; 'I' for Inactive)
REMARK    1  A    between atoms: C_1  and  C_2
REMARK    2  A    between atoms: C_5  and  S_8
REMARK    3  A    between atoms: S_8  and  N_11
REMARK    4  A    between atoms: N_11  and  C_12
REMARK    5  A    between atoms: C_12  and  C_13
REMARK    6  A    between atoms: C_20  and  C_22
REMARK    7  A    between atoms: C_33  and  C_37
REMARK                            x       y       z     vdW  Elec       q    Type
REMARK                         _______ _______ _______ _____ _____    ______ ____
ROOT
ATOM      1  C   UNL     1       3.770  -5.557   1.080  0.00  0.00    +0.022 C 
ATOM      2  C   UNL     1       4.716  -5.172   2.220  0.00  0.00    +0.008 C 
ATOM      3  C   UNL     1       6.009  -5.983   2.108  0.00  0.00    +0.019 C 
ATOM      4  C   UNL     1       5.684  -7.474   2.233  0.00  0.00    +0.108 C 
ATOM      5  N   UNL     1       4.665  -7.822   1.233  0.00  0.00    -0.297 N 
ATOM      6  C   UNL     1       3.420  -7.044   1.192  0.00  0.00    +0.113 C 
ATOM      7  C   UNL     1       4.870  -8.835   0.367  0.00  0.00    +0.249 C 
ATOM      8  O   UNL     1       5.945  -9.402   0.339  0.00  0.00    -0.270 OA
ENDROOT
BRANCH   7   9
ATOM      9  C   UNL     1       3.789  -9.255  -0.544  0.00  0.00    +0.061 A 
ATOM     10  C   UNL     1       2.534  -9.587  -0.038  0.00  0.00    +0.015 A 
ATOM     11  C   UNL     1       1.517  -9.982  -0.888  0.00  0.00    +0.001 A 
ATOM     12  C   UNL     1       1.728 -10.054  -2.249  0.00  0.00    +0.010 A 
ATOM     13  C   UNL     1       2.975  -9.727  -2.782  0.00  0.00    +0.004 A 
ATOM     14  C   UNL     1       4.018  -9.318  -1.929  0.00  0.00    +0.059 A 
ATOM     15  N   UNL     1       5.111  -9.055  -2.715  0.00  0.00    -0.357 N 
ATOM     16  H   UNL     1       5.974  -8.756  -2.387  0.00  0.00    +0.166 HD
ATOM     17  C   UNL     1       4.807  -9.278  -4.029  0.00  0.00    +0.020 A 
ATOM     18  C   UNL     1       3.531  -9.694  -4.132  0.00  0.00    -0.019 A 
ATOM     19  C   UNL     1       2.841 -10.035  -5.427  0.00  0.00    +0.040 C 
ATOM     20  C   UNL     1       3.674  -9.469  -6.584  0.00  0.00    -0.009 C 
ATOM     21  C   UNL     1       5.137  -9.882  -6.405  0.00  0.00    +0.009 C 
ATOM     22  C   UNL     1       5.731  -9.110  -5.213  0.00  0.00    +0.054 C 
ATOM     23  C   UNL     1       3.146 -10.020  -7.910  0.00  0.00    +0.008 C 
ENDBRANCH   7   9
BRANCH   1  24
ATOM     24  C   UNL     1       2.492  -4.722   1.173  0.00  0.00    +0.111 C 
BRANCH  24  25
ATOM     25  N   UNL     1       1.638  -5.005   0.017  0.00  0.00    -0.190 NA
ATOM     26  H   UNL     1       2.003  -5.464  -0.755  0.00  0.00    +0.148 HD
BRANCH  25  27
ATOM     27  S   UNL     1       0.048  -4.543   0.029  0.00  0.00    +0.058 S 
ATOM     28  O   UNL     1      -0.495  -4.987   1.265  0.00  0.00    -0.153 OA
ATOM     29  O   UNL     1      -0.497  -4.929  -1.225  0.00  0.00    -0.153 OA
BRANCH  27  34
ATOM     30  C   UNL     1      -0.058   1.488   0.168  0.00  0.00    +0.044 C 
ATOM     31  C   UNL     1      -0.031  -0.018   0.133  0.00  0.00    -0.050 A 
ATOM     32  C   UNL     1      -0.019  -0.681  -1.080  0.00  0.00    +0.005 A 
ATOM     33  C   UNL     1       0.005  -2.063  -1.111  0.00  0.00    +0.029 A 
ATOM     34  C   UNL     1       0.018  -2.781   0.070  0.00  0.00    +0.105 A 
ATOM     35  C   UNL     1       0.007  -2.118   1.282  0.00  0.00    +0.029 A 
ATOM     36  C   UNL     1      -0.013  -0.736   1.314  0.00  0.00    +0.005 A 
ENDBRANCH  27  34
ENDBRANCH  25  27
ENDBRANCH  24  25
ENDBRANCH   1  24
TORSDOF 5
