REMARK  Name = ZINC09612171
REMARK  10 active torsions:
REMARK  status: ('A' for Active; 'I' for Inactive)
REMARK    1  A    between atoms: C_1  and  C_2
REMARK    2  A    between atoms: C_3  and  C_19
REMARK    3  A    between atoms: N_10  and  C_11
REMARK    4  A    between atoms: C_11  and  C_12
REMARK    5  A    between atoms: N_22  and  S_25
REMARK    6  A    between atoms: S_25  and  C_28
REMARK    7  A    between atoms: C_31  and  C_34
REMARK    8  A    between atoms: C_34  and  C_35
REMARK    9  A    between atoms: C_34  and  C_36
REMARK   10  A    between atoms: C_34  and  C_37
REMARK                            x       y       z     vdW  Elec       q    Type
REMARK                         _______ _______ _______ _____ _____    ______ ____
ROOT
ATOM      1  C   UNL     1      -3.755   3.879   0.057  0.00  0.00    -0.039 C 
ATOM      2  C   UNL     1      -4.369   3.782  -1.099  0.00  0.00    -0.006 C 
ATOM      3  C   UNL     1      -5.846   3.532  -1.234  0.00  0.00    +0.137 C 
ATOM      4  N   UNL     1      -6.396   3.171   0.081  0.00  0.00    -0.173 NA
ATOM      5  C   UNL     1      -5.942   3.954   1.243  0.00  0.00    +0.114 C 
ATOM      6  C   UNL     1      -4.432   3.749   1.389  0.00  0.00    +0.052 C 
ENDROOT
BRANCH   1   9
ATOM      7  C   UNL     1      -2.411   6.681   0.061  0.00  0.00    +0.064 C 
ATOM      8  C   UNL     1      -1.696   5.354   0.046  0.00  0.00    +0.025 A 
ATOM      9  C   UNL     1      -2.302   4.139   0.045  0.00  0.00    +0.006 A 
ATOM     10  C   UNL     1      -1.228   3.132   0.030  0.00  0.00    +0.008 A 
ATOM     11  C   UNL     1      -1.208   1.738   0.017  0.00  0.00    +0.010 A 
ATOM     12  C   UNL     1      -0.013   1.076   0.008  0.00  0.00    +0.001 A 
ATOM     13  C   UNL     1       1.183   1.781   0.000  0.00  0.00    +0.002 A 
ATOM     14  C   UNL     1       1.185   3.159   0.007  0.00  0.00    +0.026 A 
ATOM     15  C   UNL     1      -0.021   3.852   0.022  0.00  0.00    +0.050 A 
ATOM     16  N   UNL     1      -0.341   5.193   0.032  0.00  0.00    -0.335 N 
BRANCH  16  17
ATOM     17  C   UNL     1       0.634   6.286   0.028  0.00  0.00    +0.217 C 
BRANCH  17  18
ATOM     18  C   UNL     1       0.954   6.668  -1.394  0.00  0.00    +0.235 C 
ATOM     19  O   UNL     1       0.421   6.085  -2.314  0.00  0.00    -0.274 OA
ATOM     20  N   UNL     1       1.833   7.659  -1.644  0.00  0.00    -0.300 N 
ATOM     21  C   UNL     1       2.544   8.450  -0.629  0.00  0.00    +0.108 C 
ATOM     22  C   UNL     1       3.418   9.477  -1.379  0.00  0.00    +0.020 C 
ATOM     23  C   UNL     1       2.716   9.589  -2.757  0.00  0.00    +0.020 C 
ATOM     24  C   UNL     1       2.236   8.133  -2.981  0.00  0.00    +0.108 C 
ENDBRANCH  17  18
ENDBRANCH  16  17
ENDBRANCH   1   9
BRANCH   4  25
ATOM     25  S   UNL     1      -7.484   1.934   0.248  0.00  0.00    +0.061 S 
ATOM     26  O   UNL     1      -7.288   1.068  -0.861  0.00  0.00    -0.153 OA
ATOM     27  O   UNL     1      -7.385   1.485   1.593  0.00  0.00    -0.153 OA
BRANCH  25  28
ATOM     28  C   UNL     1      -9.094   2.628   0.067  0.00  0.00    +0.106 A 
ATOM     29  C   UNL     1      -9.774   3.095   1.175  0.00  0.00    +0.029 A 
ATOM     30  C   UNL     1     -11.035   3.643   1.032  0.00  0.00    +0.006 A 
ATOM     31  C   UNL     1     -11.620   3.716  -0.218  0.00  0.00    -0.042 A 
ATOM     32  C   UNL     1     -10.941   3.244  -1.326  0.00  0.00    +0.006 A 
ATOM     33  C   UNL     1      -9.679   2.699  -1.184  0.00  0.00    +0.029 A 
BRANCH  31  34
ATOM     34  C   UNL     1     -12.996   4.310  -0.373  0.00  0.00    -0.013 C 
ATOM     35  C   UNL     1     -13.940   3.262  -0.966  0.00  0.00    +0.015 C 
ATOM     36  C   UNL     1     -13.518   4.752   0.995  0.00  0.00    +0.015 C 
ATOM     37  C   UNL     1     -12.926   5.520  -1.308  0.00  0.00    +0.015 C 
ENDBRANCH  31  34
ENDBRANCH  25  28
ENDBRANCH   4  25
TORSDOF 6
