REMARK  Name = ZINC21528523
REMARK  12 active torsions:
REMARK  status: ('A' for Active; 'I' for Inactive)
REMARK    1  A    between atoms: C_1  and  C_2
REMARK    2  A    between atoms: C_5  and  C_33
REMARK    3  A    between atoms: C_6  and  N_8
REMARK    4  A    between atoms: N_12  and  S_24
REMARK    5  A    between atoms: C_14  and  C_15
REMARK    6  A    between atoms: C_14  and  C_16
REMARK    7  A    between atoms: N_18  and  C_19
REMARK    8  A    between atoms: C_19  and  C_20
REMARK    9  A    between atoms: C_20  and  C_21
REMARK   10  A    between atoms: C_21  and  C_22
REMARK   11  A    between atoms: C_21  and  C_23
REMARK   12  A    between atoms: S_24  and  C_27
REMARK                            x       y       z     vdW  Elec       q    Type
REMARK                         _______ _______ _______ _____ _____    ______ ____
ROOT
ATOM      1  N   UNL     1       0.205   0.112  -2.488  0.00  0.00    -0.254 N 
ATOM      2  C   UNL     1       1.354   0.361  -3.119  0.00  0.00    +0.236 C 
ATOM      3  O   UNL     1       2.361  -0.189  -2.727  0.00  0.00    -0.274 OA
ATOM      4  C   UNL     1       1.458   1.289  -4.298  0.00  0.00    +0.205 C 
ATOM      5  N   UNL     1       0.104   1.600  -4.781  0.00  0.00    -0.165 NA
ATOM      6  C   UNL     1      -0.927   1.880  -3.767  0.00  0.00    +0.145 C 
ATOM      7  C   UNL     1      -1.092   0.633  -2.897  0.00  0.00    +0.129 C 
ATOM      8  C   UNL     1      -1.905   0.992  -1.652  0.00  0.00    +0.043 C 
ENDROOT
BRANCH   1  14
ATOM      9  C   UNL     1      -0.192  -0.371   2.388  0.00  0.00    +0.044 C 
ATOM     10  C   UNL     1       0.062  -0.962   1.026  0.00  0.00    -0.049 A 
ATOM     11  C   UNL     1       0.348  -2.309   0.899  0.00  0.00    +0.004 A 
ATOM     12  C   UNL     1       0.583  -2.855  -0.349  0.00  0.00    +0.005 A 
ATOM     13  C   UNL     1       0.533  -2.055  -1.475  0.00  0.00    -0.029 A 
ATOM     14  C   UNL     1       0.251  -0.701  -1.351  0.00  0.00    +0.041 A 
ATOM     15  C   UNL     1       0.011  -0.157  -0.096  0.00  0.00    +0.027 A 
ATOM     16  C   UNL     1       0.790  -2.651  -2.835  0.00  0.00    +0.045 C 
ENDBRANCH   1  14
BRANCH   7  17
ATOM     17  C   UNL     1      -1.826  -0.425  -3.680  0.00  0.00    +0.238 C 
ATOM     18  O   UNL     1      -2.370  -0.137  -4.725  0.00  0.00    -0.273 OA
ATOM     19  N   UNL     1      -1.879  -1.690  -3.219  0.00  0.00    -0.313 N 
ATOM     20  H   UNL     1      -1.459  -1.934  -2.232  0.00  0.00    +0.149 HD
BRANCH  19  21
ATOM     21  C   UNL     1      -2.495  -2.741  -4.032  0.00  0.00    +0.104 C 
BRANCH  21  22
ATOM     22  C   UNL     1      -2.425  -4.073  -3.284  0.00  0.00    +0.022 C 
BRANCH  22  23
ATOM     23  C   UNL     1      -3.068  -5.171  -4.133  0.00  0.00    -0.016 C 
ATOM     24  C   UNL     1      -2.247  -5.378  -5.407  0.00  0.00    +0.007 C 
ATOM     25  C   UNL     1      -3.110  -6.475  -3.335  0.00  0.00    +0.007 C 
ENDBRANCH  22  23
ENDBRANCH  21  22
ENDBRANCH  19  21
ENDBRANCH   7  17
BRANCH   5  26
ATOM     26  S   UNL     1      -0.248   1.634  -6.399  0.00  0.00    +0.061 S 
ATOM     27  O   UNL     1       0.719   0.814  -7.042  0.00  0.00    -0.153 OA
ATOM     28  O   UNL     1      -1.644   1.399  -6.516  0.00  0.00    -0.153 OA
BRANCH  26  29
ATOM     29  C   UNL     1       0.035   3.280  -6.960  0.00  0.00    +0.105 A 
ATOM     30  C   UNL     1      -0.991   4.205  -6.932  0.00  0.00    +0.028 A 
ATOM     31  C   UNL     1      -0.767   5.498  -7.368  0.00  0.00    +0.002 A 
ATOM     32  C   UNL     1       0.480   5.863  -7.840  0.00  0.00    +0.000 A 
ATOM     33  C   UNL     1       1.505   4.936  -7.872  0.00  0.00    +0.002 A 
ATOM     34  C   UNL     1       1.282   3.644  -7.432  0.00  0.00    +0.028 A 
ENDBRANCH  26  29
ENDBRANCH   5  26
TORSDOF 7
