REMARK  Name = ZINC14531212
REMARK  11 active torsions:
REMARK  status: ('A' for Active; 'I' for Inactive)
REMARK    1  A    between atoms: C_1  and  C_2
REMARK    2  A    between atoms: C_2  and  N_74
REMARK    3  A    between atoms: C_6  and  C_8
REMARK    4  A    between atoms: C_8  and  N_9
REMARK    5  A    between atoms: C_10  and  C_12
REMARK    6  A    between atoms: N_15  and  C_17
REMARK    7  A    between atoms: C_17  and  C_18
REMARK    8  A    between atoms: C_18  and  O_19
REMARK    9  A    between atoms: O_19  and  C_20
REMARK   10  A    between atoms: C_25  and  C_27
REMARK   11  A    between atoms: C_27  and  C_28
REMARK                            x       y       z     vdW  Elec       q    Type
REMARK                         _______ _______ _______ _____ _____    ______ ____
ROOT
ATOM      1  C   UNL     1      -2.371  -0.183  -7.927  0.00  0.00    +0.152 A 
ATOM      2  C   UNL     1      -1.651  -0.006  -6.735  0.00  0.00    +0.023 A 
ATOM      3  C   UNL     1      -1.120  -1.217  -6.433  0.00  0.00    +0.046 A 
ATOM      4  N   UNL     1      -1.503  -2.067  -7.401  0.00  0.00    -0.265 N 
ATOM      5  N   UNL     1      -2.233  -1.453  -8.267  0.00  0.00    -0.166 NA
ATOM      6  C   UNL     1      -0.272  -1.493  -5.219  0.00  0.00    +0.074 C 
ATOM      7  C   UNL     1       0.255  -0.155  -4.669  0.00  0.00    +0.114 C 
ATOM      8  N   UNL     1      -0.849   0.815  -4.629  0.00  0.00    -0.297 N 
ATOM      9  C   UNL     1      -1.458   1.235  -5.906  0.00  0.00    +0.147 C 
ATOM     10  C   UNL     1      -1.290   1.313  -3.457  0.00  0.00    +0.216 C 
ATOM     11  O   UNL     1      -2.198   2.117  -3.442  0.00  0.00    -0.276 OA
ENDROOT
BRANCH   1  13
ATOM     12  N   UNL     1      -3.779   0.529  -9.798  0.00  0.00    -0.312 N 
ATOM     13  C   UNL     1      -3.133   0.849  -8.659  0.00  0.00    +0.264 C 
ATOM     14  O   UNL     1      -3.178   1.987  -8.234  0.00  0.00    -0.268 OA
ATOM     15  H   UNL     1      -3.742  -0.380 -10.137  0.00  0.00    +0.149 HD
BRANCH  12  16
ATOM     16  C   UNL     1      -4.535   1.552 -10.524  0.00  0.00    +0.089 C 
BRANCH  16  20
ATOM     17  C   UNL     1      -4.226   0.864 -14.101  0.00  0.00    -0.078 C 
ATOM     18  C   UNL     1      -5.626   1.513 -14.114  0.00  0.00    -0.020 C 
ATOM     19  C   UNL     1      -5.771   2.061 -12.670  0.00  0.00    -0.016 C 
ATOM     20  C   UNL     1      -5.037   0.972 -11.848  0.00  0.00    -0.051 C 
ATOM     21  N   UNL     1      -3.894   0.580 -12.695  0.00  0.00    +0.382 N 
ATOM     22  H   UNL     1      -3.067   1.127 -12.425  0.00  0.00    -0.081 HD
BRANCH  21  24
ATOM     23  C   UNL     1      -2.497  -1.280 -13.499  0.00  0.00    -0.017 C 
ATOM     24  C   UNL     1      -3.598  -0.866 -12.520  0.00  0.00    -0.082 C 
ENDBRANCH  21  24
ENDBRANCH  16  20
ENDBRANCH  12  16
ENDBRANCH   1  13
BRANCH   4  25
ATOM     25  C   UNL     1      -1.141  -3.486  -7.463  0.00  0.00    +0.171 C 
BRANCH  25  26
ATOM     26  C   UNL     1      -2.195  -4.314  -6.725  0.00  0.00    +0.182 C 
BRANCH  26  27
ATOM     27  O   UNL     1      -1.842  -5.697  -6.786  0.00  0.00    -0.381 OA
ATOM     28  C   UNL     1      -2.766  -6.562  -6.123  0.00  0.00    +0.194 C 
ENDBRANCH  26  27
ENDBRANCH  25  26
ENDBRANCH   4  25
BRANCH  10  29
ATOM     29  C   UNL     1      -0.653   0.871  -2.164  0.00  0.00    +0.099 C 
BRANCH  29  30
ATOM     30  C   UNL     1      -1.334   1.581  -0.992  0.00  0.00    -0.002 C 
ATOM     31  C   UNL     1      -0.775   1.040   0.326  0.00  0.00    +0.004 C 
ATOM     32  C   UNL     1      -1.455   1.750   1.498  0.00  0.00    +0.000 C 
ATOM     33  C   UNL     1      -1.187   3.254   1.408  0.00  0.00    +0.000 C 
ATOM     34  C   UNL     1      -1.746   3.794   0.091  0.00  0.00    +0.000 C 
ATOM     35  C   UNL     1      -1.066   3.084  -1.081  0.00  0.00    +0.004 C 
ENDBRANCH  29  30
ENDBRANCH  10  29
TORSDOF 9
