REMARK  Name = ZINC59782647
REMARK  12 active torsions:
REMARK  status: ('A' for Active; 'I' for Inactive)
REMARK    1  A    between atoms: C_1  and  C_2
REMARK    2  A    between atoms: C_2  and  C_3
REMARK    3  A    between atoms: C_2  and  C_4
REMARK    4  A    between atoms: C_4  and  C_5
REMARK    5  A    between atoms: C_5  and  C_7
REMARK    6  A    between atoms: C_5  and  N_27
REMARK    7  A    between atoms: N_9  and  C_10
REMARK    8  A    between atoms: C_10  and  C_11
REMARK    9  A    between atoms: C_11  and  C_13
REMARK   10  A    between atoms: C_11  and  N_21
REMARK   11  A    between atoms: C_18  and  O_19
REMARK   12  A    between atoms: O_19  and  C_20
REMARK                            x       y       z     vdW  Elec       q    Type
REMARK                         _______ _______ _______ _____ _____    ______ ____
ROOT
ATOM      1  C   UNL     1      -2.845  -2.415  -0.005  0.00  0.00    +0.234 C 
ATOM      2  O   UNL     1      -3.298  -3.091  -0.904  0.00  0.00    -0.274 OA
ATOM      3  N   UNL     1      -3.553  -2.238   1.128  0.00  0.00    -0.315 N 
ATOM      4  H   UNL     1      -3.191  -1.697   1.847  0.00  0.00    +0.149 HD
ENDROOT
BRANCH   1   5
ATOM      5  C   UNL     1      -1.490  -1.772  -0.154  0.00  0.00    +0.170 C 
BRANCH   5   6
ATOM      6  N   UNL     1      -0.930  -2.113  -1.464  0.00  0.00    -0.230 N 
ATOM      7  C   UNL     1      -1.527  -1.787  -2.627  0.00  0.00    +0.227 C 
ATOM      8  O   UNL     1      -2.457  -1.022  -2.768  0.00  0.00    -0.275 OA
ATOM      9  C   UNL     1      -0.808  -2.564  -3.742  0.00  0.00    +0.091 C 
ATOM     10  C   UNL     1      -1.546  -3.904  -3.823  0.00  0.00    +0.040 C 
ATOM     11  C   UNL     1      -0.654  -5.049  -4.156  0.00  0.00    -0.030 C 
ATOM     12  C   UNL     1       0.633  -5.039  -4.051  0.00  0.00    -0.030 C 
ATOM     13  C   UNL     1       1.412  -3.837  -3.618  0.00  0.00    +0.040 C 
ATOM     14  C   UNL     1       0.570  -2.716  -3.079  0.00  0.00    +0.091 C 
ATOM     15  C   UNL     1       0.237  -2.779  -1.617  0.00  0.00    +0.227 C 
ATOM     16  O   UNL     1       0.884  -3.321  -0.747  0.00  0.00    -0.275 OA
ENDBRANCH   5   6
BRANCH   5  17
ATOM     17  C   UNL     1      -1.631  -0.253  -0.040  0.00  0.00    +0.035 C 
BRANCH  17  19
ATOM     18  C   UNL     1      -0.388   1.914  -0.078  0.00  0.00    +0.007 C 
ATOM     19  C   UNL     1      -0.243   0.391  -0.067  0.00  0.00    -0.015 C 
ATOM     20  C   UNL     1       0.542  -0.037   1.174  0.00  0.00    +0.007 C 
ENDBRANCH  17  19
ENDBRANCH   5  17
ENDBRANCH   1   5
BRANCH   3  21
ATOM     21  C   UNL     1      -4.870  -2.862   1.274  0.00  0.00    +0.093 C 
BRANCH  21  22
ATOM     22  C   UNL     1      -5.400  -2.612   2.687  0.00  0.00    -0.017 C 
BRANCH  22  23
ATOM     23  N   UNL     1      -4.408  -3.068   3.670  0.00  0.00    +0.385 N 
ATOM     24  C   UNL     1      -4.087  -4.478   3.421  0.00  0.00    -0.078 C 
ATOM     25  C   UNL     1      -2.994  -4.935   4.390  0.00  0.00    -0.019 C 
ATOM     26  C   UNL     1      -3.493  -4.770   5.828  0.00  0.00    -0.004 C 
ATOM     27  C   UNL     1      -3.896  -3.309   6.054  0.00  0.00    -0.019 C 
ATOM     28  C   UNL     1      -4.955  -2.913   5.023  0.00  0.00    -0.078 C 
ATOM     29  H   UNL     1      -3.569  -2.513   3.581  0.00  0.00    -0.081 HD
ENDBRANCH  22  23
BRANCH  22  30
ATOM     30  C   UNL     1      -5.654  -1.139   2.875  0.00  0.00    -0.018 A 
ATOM     31  C   UNL     1      -4.684  -0.338   3.447  0.00  0.00    +0.005 A 
ATOM     32  C   UNL     1      -4.916   1.014   3.620  0.00  0.00    +0.000 A 
ATOM     33  C   UNL     1      -6.118   1.568   3.221  0.00  0.00    +0.004 A 
ATOM     34  C   UNL     1      -7.091   0.772   2.648  0.00  0.00    +0.046 A 
ATOM     35  C   UNL     1      -6.858  -0.584   2.469  0.00  0.00    +0.122 A 
BRANCH  35  36
ATOM     36  O   UNL     1      -7.811  -1.369   1.901  0.00  0.00    -0.495 OA
ATOM     37  C   UNL     1      -9.027  -0.730   1.507  0.00  0.00    +0.277 C 
ENDBRANCH  35  36
ENDBRANCH  22  30
ENDBRANCH  21  22
ENDBRANCH   3  21
TORSDOF 9
