REMARK  Name = ZINC40951077
REMARK  8 active torsions:
REMARK  status: ('A' for Active; 'I' for Inactive)
REMARK    1  A    between atoms: C_1  and  C_2
REMARK    2  A    between atoms: C_2  and  C_3
REMARK    3  A    between atoms: C_2  and  C_4
REMARK    4  A    between atoms: C_9  and  O_10
REMARK    5  A    between atoms: O_10  and  C_11
REMARK    6  A    between atoms: C_11  and  C_12
REMARK    7  A    between atoms: N_14  and  N_15
REMARK    8  A    between atoms: C_16  and  C_17
REMARK                            x       y       z     vdW  Elec       q    Type
REMARK                         _______ _______ _______ _____ _____    ______ ____
ROOT
ATOM      1  C   UNL     1      -1.569  -2.462  -3.093  0.00  0.00    +0.326 C 
ENDROOT
BRANCH   1   2
ATOM      2  C   UNL     1      -0.511  -2.701  -4.141  0.00  0.00    +0.270 C 
ATOM      3  O   UNL     1       0.591  -2.212  -4.012  0.00  0.00    -0.270 OA
ATOM      4  N   UNL     1      -0.791  -3.458  -5.220  0.00  0.00    -0.204 N 
ATOM      5  H   UNL     1      -1.673  -3.849  -5.323  0.00  0.00    +0.177 HD
BRANCH   4   6
ATOM      6  N   UNL     1       0.192  -3.680  -6.193  0.00  0.00    -0.185 NA
ATOM      7  C   UNL     1      -0.078  -4.411  -7.235  0.00  0.00    +0.176 C 
BRANCH   7   8
ATOM      8  C   UNL     1       0.950  -4.643  -8.254  0.00  0.00    +0.149 A 
ATOM      9  C   UNL     1       0.799  -5.381  -9.392  0.00  0.00    +0.052 A 
ATOM     10  C   UNL     1       2.030  -5.335 -10.071  0.00  0.00    +0.057 A 
ATOM     11  C   UNL     1       2.866  -4.581  -9.326  0.00  0.00    +0.171 A 
ATOM     12  O   UNL     1       2.209  -4.160  -8.233  0.00  0.00    -0.447 OA
ATOM     13 BR   UNL     1       4.663  -4.177  -9.755  0.00  0.00    -0.008 Br
ENDBRANCH   7   8
ENDBRANCH   4   6
ENDBRANCH   1   2
BRANCH   1  14
ATOM     14  O   UNL     1      -1.034  -1.636  -2.057  0.00  0.00    -0.482 OA
BRANCH  14  20
ATOM     15  C   UNL     1      -1.412  -0.526   0.013  0.00  0.00    -0.002 A 
ATOM     16  C   UNL     1      -2.259  -0.205   1.056  0.00  0.00    +0.022 A 
ATOM     17  C   UNL     1      -3.557  -0.683   1.066  0.00  0.00    +0.018 A 
ATOM     18  C   UNL     1      -4.009  -1.484   0.032  0.00  0.00    +0.019 A 
ATOM     19  C   UNL     1      -3.166  -1.807  -1.012  0.00  0.00    +0.047 A 
ATOM     20  C   UNL     1      -1.865  -1.324  -1.027  0.00  0.00    +0.125 A 
ATOM     21 BR   UNL     1      -4.714  -0.243   2.495  0.00  0.00    -0.050 Br
BRANCH  15  23
ATOM     22  C   UNL     1      -0.019   1.526   0.010  0.00  0.00    +0.012 C 
ATOM     23  C   UNL     1       0.002  -0.004   0.002  0.00  0.00    +0.016 C 
ATOM     24  C   UNL     1       0.742  -0.511   1.242  0.00  0.00    +0.012 C 
ENDBRANCH  15  23
ENDBRANCH  14  20
ENDBRANCH   1  14
TORSDOF 6
