REMARK  Name = ZINC20288372
REMARK  11 active torsions:
REMARK  status: ('A' for Active; 'I' for Inactive)
REMARK    1  A    between atoms: C_1  and  C_2
REMARK    2  A    between atoms: C_2  and  C_4
REMARK    3  A    between atoms: C_2  and  N_23
REMARK    4  A    between atoms: C_4  and  C_6
REMARK    5  A    between atoms: C_4  and  N_11
REMARK    6  A    between atoms: N_14  and  C_17
REMARK    7  A    between atoms: C_24  and  C_26
REMARK    8  A    between atoms: N_28  and  C_29
REMARK    9  A    between atoms: C_29  and  C_30
REMARK   10  A    between atoms: C_35  and  O_36
REMARK   11  A    between atoms: O_36  and  C_37
REMARK                            x       y       z     vdW  Elec       q    Type
REMARK                         _______ _______ _______ _____ _____    ______ ____
ROOT
ATOM      1  C   UNL     1       2.845   0.015   0.590  0.00  0.00    +0.030 C 
ATOM      2  C   UNL     1       2.733   0.760  -0.741  0.00  0.00    +0.092 C 
ENDROOT
BRANCH   2   3
ATOM      3  N   UNL     1       1.322   1.017  -1.040  0.00  0.00    -0.303 N 
ATOM      4  C   UNL     1       0.581   0.073  -1.654  0.00  0.00    +0.299 C 
ATOM      5  O   UNL     1       1.082  -0.989  -1.959  0.00  0.00    -0.265 OA
ATOM      6  H   UNL     1       0.868   1.979  -0.764  0.00  0.00    +0.149 HD
BRANCH   4   7
ATOM      7  C   UNL     1      -0.857   0.337  -1.965  0.00  0.00    +0.299 C 
ATOM      8  O   UNL     1      -1.358   1.399  -1.659  0.00  0.00    -0.265 OA
ATOM      9  N   UNL     1      -1.597  -0.604  -2.583  0.00  0.00    -0.303 N 
ATOM     10  H   UNL     1      -1.142  -1.567  -2.860  0.00  0.00    +0.149 HD
BRANCH   9  11
ATOM     11  C   UNL     1      -3.006  -0.345  -2.888  0.00  0.00    +0.143 C 
BRANCH  11  12
ATOM     12  C   UNL     1      -3.601  -1.547  -3.575  0.00  0.00    +0.011 A 
ATOM     13  C   UNL     1      -3.754  -1.553  -4.948  0.00  0.00    +0.009 A 
ATOM     14  C   UNL     1      -4.295  -2.658  -5.580  0.00  0.00    +0.001 A 
ATOM     15  C   UNL     1      -4.694  -3.755  -4.838  0.00  0.00    +0.004 A 
ATOM     16  C   UNL     1      -4.547  -3.752  -3.465  0.00  0.00    +0.046 A 
ATOM     17  C   UNL     1      -4.000  -2.647  -2.829  0.00  0.00    +0.125 A 
BRANCH  17  18
ATOM     18  O   UNL     1      -3.855  -2.641  -1.478  0.00  0.00    -0.495 OA
ATOM     19  C   UNL     1      -4.288  -3.807  -0.774  0.00  0.00    +0.277 C 
ENDBRANCH  17  18
ENDBRANCH  11  12
ENDBRANCH   9  11
ENDBRANCH   4   7
ENDBRANCH   2   3
BRANCH   2  20
ATOM     20  C   UNL     1       3.484   2.090  -0.646  0.00  0.00    +0.114 C 
BRANCH  20  21
ATOM     21  N   UNL     1       4.873   1.839  -0.237  0.00  0.00    -0.290 NA
ATOM     22  C   UNL     1       5.610   3.101  -0.076  0.00  0.00    +0.104 C 
ATOM     23  C   UNL     1       7.024   2.801   0.426  0.00  0.00    +0.120 C 
ATOM     24  N   UNL     1       7.704   1.916  -0.530  0.00  0.00    -0.327 N 
ATOM     25  C   UNL     1       6.966   0.654  -0.691  0.00  0.00    +0.120 C 
ATOM     26  C   UNL     1       5.552   0.954  -1.193  0.00  0.00    +0.104 C 
BRANCH  24  27
ATOM     27  C   UNL     1       9.024   1.678  -0.141  0.00  0.00    +0.030 A 
ATOM     28  C   UNL     1       9.470   0.376   0.046  0.00  0.00    +0.023 A 
ATOM     29  C   UNL     1      10.778   0.144   0.426  0.00  0.00    +0.002 A 
ATOM     30  C   UNL     1      11.639   1.206   0.631  0.00  0.00    +0.000 A 
ATOM     31  C   UNL     1      11.196   2.504   0.451  0.00  0.00    +0.002 A 
ATOM     32  C   UNL     1       9.892   2.743   0.065  0.00  0.00    +0.023 A 
ENDBRANCH  24  27
ENDBRANCH  20  21
BRANCH  20  33
ATOM     33  C   UNL     1       3.472   2.771  -1.990  0.00  0.00    +0.009 A 
ATOM     34  C   UNL     1       2.940   3.969  -2.335  0.00  0.00    +0.013 A 
ATOM     35  C   UNL     1       3.051   4.401  -3.643  0.00  0.00    +0.008 A 
ATOM     36  C   UNL     1       3.681   3.609  -4.545  0.00  0.00    +0.045 A 
ATOM     37  S   UNL     1       4.147   2.206  -3.543  0.00  0.00    -0.100 S 
ENDBRANCH  20  33
ENDBRANCH   2  20
TORSDOF 9
