REMARK  Name = ZINC15722079
REMARK  6 active torsions:
REMARK  status: ('A' for Active; 'I' for Inactive)
REMARK    1  A    between atoms: C_1  and  C_2
REMARK    2  A    between atoms: C_6  and  N_8
REMARK    3  A    between atoms: C_13  and  C_15
REMARK    4  A    between atoms: C_16  and  C_18
REMARK    5  A    between atoms: N_21  and  C_28
REMARK    6  A    between atoms: C_22  and  C_23
REMARK                            x       y       z     vdW  Elec       q    Type
REMARK                         _______ _______ _______ _____ _____    ______ ____
ROOT
ATOM      1  C   UNL     1      -4.915  -3.468   2.475  0.00  0.00    +0.078 A 
ATOM      2  C   UNL     1      -3.666  -4.088   2.707  0.00  0.00    +0.148 A 
ATOM      3  N   UNL     1      -3.725  -4.700   3.858  0.00  0.00    -0.174 NA
ATOM      4  N   UNL     1      -4.999  -4.512   4.406  0.00  0.00    -0.236 N 
ATOM      5  C   UNL     1      -5.721  -3.758   3.557  0.00  0.00    +0.060 A 
ENDROOT
BRANCH   1  13
ATOM      6  N   UNL     1      -4.172  -4.038  -2.374  0.00  0.00    -0.324 N 
ATOM      7  C   UNL     1      -3.781  -4.746  -1.148  0.00  0.00    +0.124 C 
ATOM      8  C   UNL     1      -4.908  -4.634  -0.116  0.00  0.00    +0.127 C 
ATOM      9  N   UNL     1      -5.236  -3.212   0.065  0.00  0.00    -0.294 N 
ATOM     10  C   UNL     1      -5.507  -2.402  -1.132  0.00  0.00    +0.130 C 
ATOM     11  C   UNL     1      -4.356  -2.602  -2.125  0.00  0.00    +0.088 C 
ATOM     12  C   UNL     1      -4.688  -1.893  -3.440  0.00  0.00    +0.029 C 
ATOM     13  C   UNL     1      -5.288  -2.666   1.296  0.00  0.00    +0.250 C 
ATOM     14  O   UNL     1      -5.642  -1.510   1.434  0.00  0.00    -0.270 OA
BRANCH   6  20
ATOM     15  C   UNL     1      -3.043  -6.067  -6.705  0.00  0.00    +0.044 C 
ATOM     16  C   UNL     1      -2.669  -5.234  -5.507  0.00  0.00    -0.049 A 
ATOM     17  C   UNL     1      -1.404  -4.682  -5.417  0.00  0.00    +0.003 A 
ATOM     18  C   UNL     1      -1.057  -3.916  -4.319  0.00  0.00    +0.002 A 
ATOM     19  C   UNL     1      -1.973  -3.700  -3.308  0.00  0.00    +0.023 A 
ATOM     20  C   UNL     1      -3.244  -4.253  -3.395  0.00  0.00    +0.030 A 
ATOM     21  C   UNL     1      -3.590  -5.022  -4.500  0.00  0.00    +0.026 A 
ENDBRANCH   6  20
ENDBRANCH   1  13
BRANCH   5  22
ATOM     22  C   UNL     1      -7.148  -3.314   3.752  0.00  0.00    +0.035 C 
ATOM     23  C   UNL     1      -7.973  -3.686   2.517  0.00  0.00    -0.010 C 
ATOM     24  C   UNL     1      -9.406  -3.179   2.694  0.00  0.00    -0.082 C 
ATOM     25  C   UNL     1      -8.645  -1.342   4.080  0.00  0.00    -0.082 C 
ATOM     26  C   UNL     1      -7.189  -1.795   3.944  0.00  0.00    -0.010 C 
ATOM     27  N   UNL     1      -9.397  -1.713   2.866  0.00  0.00    +0.379 N 
ATOM     28  H   UNL     1     -10.363  -1.377   2.951  0.00  0.00    -0.086 HD
ATOM     29  H   UNL     1      -8.954  -1.279   2.048  0.00  0.00    -0.086 HD
ENDBRANCH   5  22
BRANCH   4  30
ATOM     30  C   UNL     1      -5.447  -5.023   5.632  0.00  0.00    +0.066 A 
ATOM     31  C   UNL     1      -6.181  -4.219   6.494  0.00  0.00    +0.029 A 
ATOM     32  C   UNL     1      -6.626  -4.726   7.699  0.00  0.00    +0.022 A 
ATOM     33  C   UNL     1      -6.331  -6.031   8.053  0.00  0.00    +0.041 A 
ATOM     34  C   UNL     1      -5.594  -6.833   7.198  0.00  0.00    +0.022 A 
ATOM     35  C   UNL     1      -5.152  -6.332   5.989  0.00  0.00    +0.029 A 
ATOM     36 CL   UNL     1      -6.885  -6.664   9.571  0.00  0.00    -0.084 Cl
ENDBRANCH   4  30
TORSDOF 4
