REMARK  Name = ZINC13132522
REMARK  11 active torsions:
REMARK  status: ('A' for Active; 'I' for Inactive)
REMARK    1  A    between atoms: C_1  and  C_2
REMARK    2  A    between atoms: C_2  and  C_25
REMARK    3  A    between atoms: N_3  and  N_4
REMARK    4  A    between atoms: C_5  and  S_7
REMARK    5  A    between atoms: S_7  and  C_8
REMARK    6  A    between atoms: N_13  and  C_16
REMARK    7  A    between atoms: C_19  and  C_22
REMARK    8  A    between atoms: C_26  and  C_27
REMARK    9  A    between atoms: C_30  and  N_33
REMARK   10  A    between atoms: N_33  and  C_34
REMARK   11  A    between atoms: N_33  and  C_35
REMARK                            x       y       z     vdW  Elec       q    Type
REMARK                         _______ _______ _______ _____ _____    ______ ____
ROOT
ATOM      1  N   UNL     1      -0.327   0.906   2.608  0.00  0.00    -0.217 N 
ATOM      2  C   UNL     1      -0.244  -0.001   3.640  0.00  0.00    +0.146 C 
ATOM      3  N   UNL     1      -0.302  -1.280   3.390  0.00  0.00    -0.380 N 
ATOM      4  H   UNL     1      -0.284   1.858   2.793  0.00  0.00    +0.176 HD
ATOM      5  H   UNL     1      -0.244  -1.919   4.117  0.00  0.00    +0.158 HD
ATOM      6  H   UNL     1      -0.402  -1.592   2.477  0.00  0.00    +0.158 HD
ENDROOT
BRANCH   1   9
ATOM      7  C   UNL     1      -0.483   2.792   0.601  0.00  0.00    +0.067 C 
ATOM      8  C   UNL     1      -0.549   1.315   0.312  0.00  0.00    +0.056 C 
ATOM      9  N   UNL     1      -0.472   0.456   1.289  0.00  0.00    -0.186 NA
BRANCH   8  10
ATOM     10  C   UNL     1      -0.696   0.859  -1.022  0.00  0.00    +0.025 C 
ATOM     11  C   UNL     1      -0.756  -0.464  -1.280  0.00  0.00    +0.010 C 
BRANCH  11  12
ATOM     12  C   UNL     1      -0.908  -0.937  -2.665  0.00  0.00    -0.025 A 
ATOM     13  C   UNL     1      -0.986  -0.017  -3.716  0.00  0.00    +0.010 A 
ATOM     14  C   UNL     1      -1.128  -0.464  -5.011  0.00  0.00    +0.023 A 
ATOM     15  C   UNL     1      -1.194  -1.828  -5.275  0.00  0.00    +0.029 A 
ATOM     16  C   UNL     1      -1.117  -2.747  -4.233  0.00  0.00    +0.023 A 
ATOM     17  C   UNL     1      -0.970  -2.308  -2.935  0.00  0.00    +0.010 A 
BRANCH  15  18
ATOM     18  N   UNL     1      -1.339  -2.276  -6.588  0.00  0.00    -0.336 N 
ATOM     19  C   UNL     1      -1.421  -1.311  -7.686  0.00  0.00    +0.129 C 
ATOM     20  C   UNL     1      -1.409  -3.713  -6.867  0.00  0.00    +0.129 C 
ENDBRANCH  15  18
ENDBRANCH  11  12
ENDBRANCH   8  10
ENDBRANCH   1   9
BRANCH   2  21
ATOM     21  S   UNL     1      -0.062   0.566   5.298  0.00  0.00    -0.078 S 
BRANCH  21  22
ATOM     22  C   UNL     1      -0.000  -0.960   6.279  0.00  0.00    +0.149 C 
ATOM     23  C   UNL     1       0.231  -0.638   7.769  0.00  0.00    +0.120 C 
ATOM     24  C   UNL     1      -1.007  -1.183   8.446  0.00  0.00    +0.228 C 
ATOM     25  O   UNL     1      -1.235  -1.138   9.636  0.00  0.00    -0.275 OA
ATOM     26  N   UNL     1      -1.813  -1.723   7.523  0.00  0.00    -0.209 N 
ATOM     27  C   UNL     1      -1.344  -1.655   6.267  0.00  0.00    +0.240 C 
ATOM     28  O   UNL     1      -1.906  -2.080   5.280  0.00  0.00    -0.274 OA
BRANCH  26  29
ATOM     29  C   UNL     1      -3.040  -2.311   7.840  0.00  0.00    +0.044 A 
ATOM     30  C   UNL     1      -4.086  -1.522   8.309  0.00  0.00    +0.025 A 
ATOM     31  C   UNL     1      -5.296  -2.098   8.623  0.00  0.00    +0.017 A 
ATOM     32  C   UNL     1      -5.473  -3.477   8.470  0.00  0.00    +0.063 A 
ATOM     33  C   UNL     1      -4.419  -4.266   7.999  0.00  0.00    +0.017 A 
ATOM     34  C   UNL     1      -3.213  -3.682   7.682  0.00  0.00    +0.025 A 
BRANCH  32  35
ATOM     35  C   UNL     1      -6.767  -4.097   8.806  0.00  0.00    +0.387 C 
ATOM     36  O   UNL     1      -7.688  -3.406   9.218  0.00  0.00    -0.241 OA
ATOM     37  O   UNL     1      -6.920  -5.303   8.672  0.00  0.00    -0.241 OA
ENDBRANCH  32  35
ENDBRANCH  26  29
ENDBRANCH  21  22
ENDBRANCH   2  21
TORSDOF 8
