REMARK  Name = ZINC22916644
REMARK  5 active torsions:
REMARK  status: ('A' for Active; 'I' for Inactive)
REMARK    1  A    between atoms: C_4  and  C_7
REMARK    2  A    between atoms: C_16  and  C_18
REMARK    3  A    between atoms: C_18  and  N_19
REMARK    4  A    between atoms: N_22  and  C_25
REMARK    5  A    between atoms: C_25  and  C_26
REMARK                            x       y       z     vdW  Elec       q    Type
REMARK                         _______ _______ _______ _____ _____    ______ ____
ROOT
ATOM      1  C   UNL     1       5.901   7.297  -0.981  0.00  0.00    +0.004 A 
ATOM      2  C   UNL     1       6.782   6.273  -1.087  0.00  0.00    +0.056 A 
ATOM      3  S   UNL     1       5.733   4.836  -1.193  0.00  0.00    -0.076 S 
ATOM      4  C   UNL     1       4.152   5.635  -1.093  0.00  0.00    +0.116 A 
ATOM      5  C   UNL     1       4.474   6.997  -0.980  0.00  0.00    +0.080 A 
ATOM      6  C   UNL     1       3.361   7.891  -0.880  0.00  0.00    +0.260 A 
ATOM      7  O   UNL     1       3.539   9.093  -0.779  0.00  0.00    -0.267 OA
ATOM      8  N   UNL     1       2.114   7.385  -0.906  0.00  0.00    -0.312 N 
ATOM      9  H   UNL     1       1.246   8.058  -0.840  0.00  0.00    +0.170 HD
ATOM     10  C   UNL     1       1.897   6.049  -1.014  0.00  0.00    +0.094 A 
ATOM     11  N   UNL     1       2.892   5.209  -1.106  0.00  0.00    -0.229 NA
ENDROOT
BRANCH   1  15
ATOM     12  C   UNL     1       7.272  11.308  -0.656  0.00  0.00    +0.000 A 
ATOM     13  C   UNL     1       7.796  10.332   0.172  0.00  0.00    +0.001 A 
ATOM     14  C   UNL     1       7.355   9.028   0.071  0.00  0.00    +0.008 A 
ATOM     15  C   UNL     1       6.379   8.696  -0.867  0.00  0.00    -0.017 A 
ATOM     16  C   UNL     1       5.858   9.683  -1.702  0.00  0.00    +0.008 A 
ATOM     17  C   UNL     1       6.303  10.985  -1.589  0.00  0.00    +0.001 A 
ENDBRANCH   1  15
BRANCH  10  18
ATOM     18  C   UNL     1       0.483   5.528  -1.033  0.00  0.00    -0.003 C 
BRANCH  18  19
ATOM     19  N   UNL     1       0.502   4.059  -1.019  0.00  0.00    +0.386 N 
ATOM     20  C   UNL     1       1.034   3.551   0.254  0.00  0.00    -0.063 C 
ATOM     21  C   UNL     1       1.112   2.024   0.197  0.00  0.00    +0.066 C 
ATOM     22  N   UNL     1      -0.226   1.477  -0.068  0.00  0.00    -0.302 NA
ATOM     23  C   UNL     1      -0.757   1.984  -1.340  0.00  0.00    +0.066 C 
ATOM     24  C   UNL     1      -0.836   3.512  -1.284  0.00  0.00    -0.063 C 
ATOM     25  H   UNL     1       1.172   3.724  -1.825  0.00  0.00    -0.081 HD
BRANCH  22  26
ATOM     26  C   UNL     1      -0.207   0.008  -0.054  0.00  0.00    +0.119 C 
BRANCH  26  27
ATOM     27  C   UNL     1      -1.620  -0.514  -0.083  0.00  0.00    -0.033 A 
ATOM     28  C   UNL     1      -2.294  -0.748   1.101  0.00  0.00    +0.006 A 
ATOM     29  C   UNL     1      -3.593  -1.220   1.076  0.00  0.00    +0.020 A 
ATOM     30  C   UNL     1      -4.214  -1.471  -0.135  0.00  0.00    +0.041 A 
ATOM     31  C   UNL     1      -3.537  -1.242  -1.320  0.00  0.00    +0.020 A 
ATOM     32  C   UNL     1      -2.240  -0.763  -1.293  0.00  0.00    +0.006 A 
ATOM     33 CL   UNL     1      -5.843  -2.071  -0.168  0.00  0.00    -0.084 Cl
ENDBRANCH  26  27
ENDBRANCH  22  26
ENDBRANCH  18  19
ENDBRANCH  10  18
TORSDOF 5
