REMARK  Name = ZINC66647483
REMARK  7 active torsions:
REMARK  status: ('A' for Active; 'I' for Inactive)
REMARK    1  A    between atoms: C_1  and  C_2
REMARK    2  A    between atoms: C_5  and  C_12
REMARK    3  A    between atoms: C_8  and  C_10
REMARK    4  A    between atoms: C_8  and  C_11
REMARK    5  A    between atoms: C_12  and  C_13
REMARK    6  A    between atoms: C_22  and  O_24
REMARK    7  A    between atoms: O_24  and  C_25
REMARK                            x       y       z     vdW  Elec       q    Type
REMARK                         _______ _______ _______ _____ _____    ______ ____
ROOT
ATOM      1  C   UNL     1       0.660  -2.126  -3.742  0.00  0.00    +0.216 C 
ATOM      2  O   UNL     1      -0.378  -1.511  -3.615  0.00  0.00    -0.276 OA
ATOM      3  N   UNL     1       1.101  -2.457  -4.971  0.00  0.00    -0.300 N 
ATOM      4  C   UNL     1       0.294  -2.044  -6.119  0.00  0.00    +0.109 C 
ATOM      5  C   UNL     1       0.887  -0.765  -6.674  0.00  0.00    +0.038 C 
ATOM      6  C   UNL     1       1.998  -1.084  -7.677  0.00  0.00    +0.112 C 
ATOM      7  N   UNL     1       2.857  -2.193  -7.234  0.00  0.00    -0.266 N 
ATOM      8  C   UNL     1       3.339  -2.332  -5.871  0.00  0.00    +0.130 C 
ATOM      9  C   UNL     1       2.323  -3.178  -5.064  0.00  0.00    +0.127 C 
ATOM     10  C   UNL     1       3.214  -3.127  -8.138  0.00  0.00    +0.403 C 
ATOM     11  O   UNL     1       2.827  -3.040  -9.287  0.00  0.00    -0.226 OA
ENDROOT
BRANCH  10  12
ATOM     12  O   UNL     1       3.999  -4.157  -7.768  0.00  0.00    -0.454 OA
ATOM     13  C   UNL     1       4.338  -5.109  -8.778  0.00  0.00    +0.282 C 
ENDBRANCH  10  12
BRANCH   1  14
ATOM     14  C   UNL     1       1.455  -2.521  -2.524  0.00  0.00    +0.099 C 
BRANCH  14  18
ATOM     15  C   UNL     1      -0.019   1.526   0.010  0.00  0.00    +0.007 C 
ATOM     16  C   UNL     1       0.002  -0.004   0.002  0.00  0.00    -0.013 C 
ATOM     17  C   UNL     1       0.718  -0.497  -1.257  0.00  0.00    +0.007 C 
ATOM     18  C   UNL     1       0.739  -2.027  -1.265  0.00  0.00    -0.002 C 
ATOM     19  C   UNL     1       1.479  -2.534  -0.026  0.00  0.00    +0.010 C 
ATOM     20  C   UNL     1       0.763  -2.041   1.233  0.00  0.00    -0.034 C 
ATOM     21  C   UNL     1       0.742  -0.511   1.242  0.00  0.00    +0.009 C 
ATOM     22  C   UNL     1      -0.673  -2.570   1.244  0.00  0.00    +0.011 C 
ATOM     23  C   UNL     1       1.503  -2.548   2.473  0.00  0.00    +0.011 C 
ENDBRANCH  14  18
ENDBRANCH   1  14
TORSDOF 3
