REMARK  Name = ZINC35781258
REMARK  8 active torsions:
REMARK  status: ('A' for Active; 'I' for Inactive)
REMARK    1  A    between atoms: C_1  and  C_2
REMARK    2  A    between atoms: C_2  and  C_4
REMARK    3  A    between atoms: C_2  and  O_29
REMARK    4  A    between atoms: C_4  and  N_5
REMARK    5  A    between atoms: N_5  and  C_6
REMARK    6  A    between atoms: N_5  and  C_12
REMARK    7  A    between atoms: C_6  and  C_7
REMARK    8  A    between atoms: C_12  and  C_13
REMARK                            x       y       z     vdW  Elec       q    Type
REMARK                         _______ _______ _______ _____ _____    ______ ____
ROOT
ATOM      1  C   UNL     1       0.222  -1.875   3.681  0.00  0.00    +0.094 A 
ATOM      2  N   UNL     1       0.510  -2.150   4.979  0.00  0.00    -0.312 N 
ATOM      3  H   UNL     1       1.304  -2.664   5.191  0.00  0.00    +0.170 HD
ATOM      4  C   UNL     1      -0.286  -1.724   5.978  0.00  0.00    +0.260 A 
ATOM      5  O   UNL     1      -0.014  -1.979   7.139  0.00  0.00    -0.267 OA
ATOM      6  C   UNL     1      -1.457  -0.965   5.653  0.00  0.00    +0.075 A 
ATOM      7  C   UNL     1      -2.455  -0.405   6.569  0.00  0.00    -0.023 A 
ATOM      8  C   UNL     1      -3.479   0.273   6.009  0.00  0.00    -0.004 A 
ATOM      9  S   UNL     1      -3.171   0.216   4.263  0.00  0.00    -0.073 S 
ATOM     10  C   UNL     1      -1.670  -0.730   4.287  0.00  0.00    +0.116 A 
ATOM     11  N   UNL     1      -0.835  -1.180   3.355  0.00  0.00    -0.229 NA
ATOM     12  C   UNL     1      -4.636   0.925   6.700  0.00  0.00    +0.043 C 
ATOM     13  C   UNL     1      -4.114   1.793   7.853  0.00  0.00    +0.005 C 
ATOM     14  C   UNL     1      -4.042   0.931   9.109  0.00  0.00    +0.001 C 
ATOM     15  C   UNL     1      -3.697  -0.510   8.735  0.00  0.00    +0.005 C 
ATOM     16  C   UNL     1      -2.323  -0.578   8.080  0.00  0.00    +0.037 C 
ENDROOT
BRANCH   1  17
ATOM     17  C   UNL     1       1.143  -2.374   2.597  0.00  0.00    -0.003 C 
BRANCH  17  18
ATOM     18  N   UNL     1       0.632  -1.950   1.287  0.00  0.00    +0.391 N 
ATOM     19  H   UNL     1      -0.322  -2.262   1.180  0.00  0.00    -0.080 HD
BRANCH  18  20
ATOM     20  C   UNL     1       0.680  -0.484   1.194  0.00  0.00    -0.046 C 
BRANCH  20  22
ATOM     21  C   UNL     1      -0.146   1.493  -0.091  0.00  0.00    +0.035 C 
ATOM     22  C   UNL     1      -0.019  -0.032  -0.090  0.00  0.00    +0.095 C 
BRANCH  22  23
ATOM     23  O   UNL     1       0.747  -0.447  -1.222  0.00  0.00    -0.394 OA
ATOM     24  H   UNL     1       0.403  -0.129  -2.068  0.00  0.00    +0.210 HD
ENDBRANCH  22  23
ENDBRANCH  20  22
ENDBRANCH  18  20
BRANCH  18  25
ATOM     25  C   UNL     1       1.460  -2.536   0.225  0.00  0.00    -0.002 C 
BRANCH  25  26
ATOM     26  C   UNL     1       1.369  -4.039   0.288  0.00  0.00    +0.089 A 
ATOM     27  C   UNL     1       0.526  -4.806  -0.426  0.00  0.00    +0.042 A 
ATOM     28  C   UNL     1       0.779  -6.147  -0.056  0.00  0.00    +0.041 A 
ATOM     29  C   UNL     1       1.762  -6.119   0.862  0.00  0.00    +0.195 A 
ATOM     30  O   UNL     1       2.119  -4.840   1.062  0.00  0.00    -0.470 OA
ENDBRANCH  25  26
ENDBRANCH  18  25
ENDBRANCH  17  18
ENDBRANCH   1  17
TORSDOF 7
