REMARK  Name = ZINC20883382
REMARK  7 active torsions:
REMARK  status: ('A' for Active; 'I' for Inactive)
REMARK    1  A    between atoms: C_1  and  C_2
REMARK    2  A    between atoms: C_2  and  O_3
REMARK    3  A    between atoms: O_3  and  C_4
REMARK    4  A    between atoms: C_7  and  C_12
REMARK    5  A    between atoms: C_9  and  O_10
REMARK    6  A    between atoms: O_10  and  C_11
REMARK    7  A    between atoms: C_17  and  C_23
REMARK                            x       y       z     vdW  Elec       q    Type
REMARK                         _______ _______ _______ _____ _____    ______ ____
ROOT
ATOM      1  C   UNL     1       1.149   3.596   0.010  0.00  0.00    +0.032 C 
ATOM      2  C   UNL     1       1.869   4.127  -1.231  0.00  0.00    +0.059 C 
ATOM      3  C   UNL     1       1.892   5.635  -1.197  0.00  0.00    +0.018 C 
ATOM      4  C   UNL     1       1.921   6.300  -0.023  0.00  0.00    +0.020 C 
ATOM      5  C   UNL     1       1.957   7.810  -0.014  0.00  0.00    +0.063 C 
ATOM      6  C   UNL     1       2.773   8.306  -1.209  0.00  0.00    +0.109 C 
ATOM      7  C   UNL     1       2.309   7.595  -2.454  0.00  0.00    +0.218 C 
ATOM      8  O   UNL     1       2.316   8.174  -3.519  0.00  0.00    -0.275 OA
ATOM      9  N   UNL     1       1.885   6.321  -2.385  0.00  0.00    -0.289 N 
ATOM     10  C   UNL     1       1.921   5.618   1.205  0.00  0.00    +0.162 C 
ATOM     11  O   UNL     1       1.960   6.251   2.241  0.00  0.00    -0.292 OA
ATOM     12  C   UNL     1       1.875   4.114   1.256  0.00  0.00    +0.088 C 
ATOM     13  H   UNL     1       1.530   5.830  -3.302  0.00  0.00    +0.155 HD
ENDROOT
BRANCH   5  14
ATOM     14  C   UNL     1       0.551   8.347  -0.109  0.00  0.00    -0.039 A 
ATOM     15  C   UNL     1      -0.232   8.029  -1.217  0.00  0.00    +0.005 A 
ATOM     16  C   UNL     1      -1.504   8.497  -1.334  0.00  0.00    +0.009 A 
ATOM     17  C   UNL     1      -2.040   9.313  -0.323  0.00  0.00    -0.018 A 
ATOM     18  C   UNL     1      -3.350   9.815  -0.408  0.00  0.00    +0.008 A 
ATOM     19  C   UNL     1      -3.835  10.602   0.590  0.00  0.00    +0.001 A 
ATOM     20  C   UNL     1      -3.053  10.920   1.699  0.00  0.00    +0.001 A 
ATOM     21  C   UNL     1      -1.780  10.452   1.815  0.00  0.00    +0.008 A 
ATOM     22  C   UNL     1      -1.244   9.636   0.804  0.00  0.00    -0.018 A 
ATOM     23  C   UNL     1       0.064   9.130   0.892  0.00  0.00    +0.012 A 
ENDBRANCH   5  14
BRANCH   1  27
ATOM     24  C   UNL     1       1.218  -0.680  -0.013  0.00  0.00    +0.162 A 
ATOM     25  C   UNL     1       2.405   0.035  -0.021  0.00  0.00    +0.050 A 
ATOM     26  C   UNL     1       2.379   1.417  -0.013  0.00  0.00    +0.008 A 
ATOM     27  C   UNL     1       1.171   2.089   0.002  0.00  0.00    -0.040 A 
ATOM     28  C   UNL     1      -0.017   1.381   0.010  0.00  0.00    +0.053 A 
ATOM     29  C   UNL     1       0.002  -0.004   0.002  0.00  0.00    +0.162 A 
BRANCH  29  30
ATOM     30  O   UNL     1      -1.165  -0.702   0.010  0.00  0.00    -0.491 OA
ATOM     31  C   UNL     1      -2.375   0.059   0.026  0.00  0.00    +0.277 C 
ENDBRANCH  29  30
BRANCH  24  32
ATOM     32  O   UNL     1       1.242  -2.040  -0.021  0.00  0.00    -0.489 OA
BRANCH  32  34
ATOM     33  C   UNL     1       2.352  -4.186  -0.044  0.00  0.00    +0.048 C 
ATOM     34  C   UNL     1       2.526  -2.666  -0.037  0.00  0.00    +0.226 C 
ENDBRANCH  32  34
ENDBRANCH  24  32
ENDBRANCH   1  27
TORSDOF 5
