REMARK  Name = ZINC63075110
REMARK  8 active torsions:
REMARK  status: ('A' for Active; 'I' for Inactive)
REMARK    1  A    between atoms: C_1  and  C_2
REMARK    2  A    between atoms: C_2  and  O_3
REMARK    3  A    between atoms: O_3  and  C_4
REMARK    4  A    between atoms: C_11  and  N_14
REMARK    5  A    between atoms: C_15  and  C_17
REMARK    6  A    between atoms: C_17  and  S_18
REMARK    7  A    between atoms: S_18  and  C_19
REMARK    8  A    between atoms: C_25  and  N_29
REMARK                            x       y       z     vdW  Elec       q    Type
REMARK                         _______ _______ _______ _____ _____    ______ ____
ROOT
ATOM      1  N   UNL     1      -3.794  -7.225   1.197  0.00  0.00    -0.288 N 
ATOM      2  C   UNL     1      -4.985  -7.848   1.309  0.00  0.00    +0.225 C 
ATOM      3  O   UNL     1      -5.797  -7.767   0.412  0.00  0.00    -0.275 OA
ATOM      4  H   UNL     1      -3.144  -7.290   1.914  0.00  0.00    +0.151 HD
ENDROOT
BRANCH   1  12
ATOM      5  C   UNL     1      -1.498  -1.849   0.006  0.00  0.00    +0.122 A 
ATOM      6  C   UNL     1      -0.395  -2.690  -0.003  0.00  0.00    +0.047 A 
ATOM      7  C   UNL     1      -0.546  -4.057  -0.009  0.00  0.00    +0.027 A 
ATOM      8  C   UNL     1      -1.821  -4.651  -0.006  0.00  0.00    +0.043 A 
ATOM      9  C   UNL     1      -2.913  -3.779   0.004  0.00  0.00    +0.035 A 
ATOM     10  C   UNL     1      -2.769  -2.410   0.016  0.00  0.00    +0.062 A 
ATOM     11  S   UNL     1      -4.348  -4.831   0.005  0.00  0.00    -0.082 S 
ATOM     12  C   UNL     1      -3.482  -6.452  -0.007  0.00  0.00    +0.224 C 
ATOM     13  N   UNL     1      -2.077  -6.024  -0.011  0.00  0.00    -0.316 N 
ATOM     14  H   UNL     1      -1.354  -6.671  -0.018  0.00  0.00    +0.149 HD
BRANCH   5  15
ATOM     15  O   UNL     1      -1.339  -0.499   0.012  0.00  0.00    -0.492 OA
BRANCH  15  17
ATOM     16  C   UNL     1      -0.019   1.526   0.010  0.00  0.00    +0.048 C 
ATOM     17  C   UNL     1       0.002  -0.004   0.002  0.00  0.00    +0.225 C 
ENDBRANCH  15  17
ENDBRANCH   5  15
ENDBRANCH   1  12
BRANCH   2  18
ATOM     18  C   UNL     1      -5.306  -8.643   2.547  0.00  0.00    +0.168 C 
BRANCH  18  19
ATOM     19  S   UNL     1      -6.969  -9.353   2.396  0.00  0.00    -0.106 S 
BRANCH  19  20
ATOM     20  C   UNL     1      -7.198 -10.267   3.946  0.00  0.00    +0.236 C 
ATOM     21  N   UNL     1      -6.139 -11.271   4.101  0.00  0.00    -0.355 N 
ATOM     22  C   UNL     1      -5.485 -10.985   5.189  0.00  0.00    +0.061 A 
ATOM     23  C   UNL     1      -4.339 -11.613   5.860  0.00  0.00    +0.029 A 
ATOM     24  C   UNL     1      -3.865 -11.082   7.005  0.00  0.00    +0.035 A 
ATOM     25  C   UNL     1      -4.426  -9.936   7.598  0.00  0.00    +0.128 A 
ATOM     26  C   UNL     1      -5.478  -9.284   7.066  0.00  0.00    +0.060 A 
ATOM     27  C   UNL     1      -6.078  -9.773   5.817  0.00  0.00    +0.063 A 
ATOM     28  N   UNL     1      -7.077  -9.355   5.091  0.00  0.00    -0.355 N 
ATOM     29  H   UNL     1      -7.637  -8.585   5.273  0.00  0.00    +0.162 HD
ATOM     30  H   UNL     1      -5.959 -12.013   3.501  0.00  0.00    +0.162 HD
BRANCH  25  31
ATOM     31  N   UNL     1      -3.836  -9.427   8.856  0.00  0.00    +0.056 N 
ATOM     32  O   UNL     1      -2.892  -9.994   9.354  0.00  0.00    -0.126 OA
ATOM     33  O   UNL     1      -4.299  -8.444   9.386  0.00  0.00    -0.126 OA
ENDBRANCH  25  31
ENDBRANCH  19  20
ENDBRANCH  18  19
ENDBRANCH   2  18
TORSDOF 7
