REMARK  Name = ZINC43265557
REMARK  2 active torsions:
REMARK  status: ('A' for Active; 'I' for Inactive)
REMARK    1  A    between atoms: C_4  and  N_8
REMARK    2  A    between atoms: C_14  and  C_17
REMARK                            x       y       z     vdW  Elec       q    Type
REMARK                         _______ _______ _______ _____ _____    ______ ____
ROOT
ATOM      1  N   UNL     1       3.627  -0.653  -0.039  0.00  0.00    -0.265 N 
ATOM      2  C   UNL     1       3.686  -1.941   0.355  0.00  0.00    +0.307 C 
ATOM      3  O   UNL     1       2.664  -2.538   0.638  0.00  0.00    -0.252 OA
ATOM      4  N   UNL     1       4.876  -2.567   0.437  0.00  0.00    -0.281 N 
ATOM      5  C   UNL     1       4.966  -4.004   0.749  0.00  0.00    +0.114 C 
ATOM      6  C   UNL     1       5.609  -4.708  -0.448  0.00  0.00    +0.054 C 
ATOM      7  C   UNL     1       6.809  -3.944  -0.922  0.00  0.00    -0.039 C 
ATOM      8  C   UNL     1       7.044  -2.683  -0.640  0.00  0.00    -0.004 C 
ATOM      9  C   UNL     1       6.136  -1.845   0.210  0.00  0.00    +0.137 C 
ATOM     10  H   UNL     1       4.429  -0.203  -0.344  0.00  0.00    +0.157 HD
ENDROOT
BRANCH   7  11
ATOM     11  C   UNL     1       7.793  -4.657  -1.761  0.00  0.00    +0.005 A 
ATOM     12  C   UNL     1       8.700  -5.577  -1.345  0.00  0.00    +0.093 A 
ATOM     13  N   UNL     1       9.434  -6.014  -2.410  0.00  0.00    -0.345 N 
ATOM     14  H   UNL     1      10.144  -6.673  -2.360  0.00  0.00    +0.167 HD
ATOM     15  C   UNL     1       9.025  -5.386  -3.563  0.00  0.00    +0.139 A 
ATOM     16  C   UNL     1       7.979  -4.513  -3.214  0.00  0.00    +0.026 A 
ATOM     17  C   UNL     1       7.366  -3.744  -4.202  0.00  0.00    +0.013 A 
ATOM     18  C   UNL     1       7.818  -3.876  -5.503  0.00  0.00    +0.020 A 
ATOM     19  C   UNL     1       8.852  -4.757  -5.777  0.00  0.00    +0.113 A 
ATOM     20  N   UNL     1       9.421  -5.468  -4.827  0.00  0.00    -0.237 NA
ENDBRANCH   7  11
BRANCH   1  24
ATOM     21  C   UNL     1      -0.007   1.394   0.055  0.00  0.00    +0.006 A 
ATOM     22  C   UNL     1       1.132   1.987   0.566  0.00  0.00    +0.040 A 
ATOM     23  C   UNL     1       2.339   1.312   0.537  0.00  0.00    +0.147 A 
ATOM     24  C   UNL     1       2.405   0.035  -0.007  0.00  0.00    +0.106 A 
ATOM     25  C   UNL     1       1.258  -0.559  -0.520  0.00  0.00    +0.147 A 
ATOM     26  C   UNL     1       0.055   0.123  -0.488  0.00  0.00    +0.040 A 
ATOM     27  F   UNL     1       1.318  -1.800  -1.051  0.00  0.00    -0.203 F 
ATOM     28  F   UNL     1       3.451   1.892   1.037  0.00  0.00    -0.203 F 
ENDBRANCH   1  24
TORSDOF 2
