REMARK  Name = ZINC12152899
REMARK  6 active torsions:
REMARK  status: ('A' for Active; 'I' for Inactive)
REMARK    1  A    between atoms: C_9  and  C_12
REMARK    2  A    between atoms: C_19  and  C_20
REMARK    3  A    between atoms: C_19  and  N_65
REMARK    4  A    between atoms: C_25  and  C_28
REMARK    5  A    between atoms: C_28  and  C_30
REMARK    6  A    between atoms: C_28  and  O_36
REMARK                            x       y       z     vdW  Elec       q    Type
REMARK                         _______ _______ _______ _____ _____    ______ ____
ROOT
ATOM      1  C   UNL     1       8.502  -6.760   6.572  0.00  0.00    +0.000 A 
ATOM      2  C   UNL     1       8.294  -7.694   7.570  0.00  0.00    +0.004 A 
ATOM      3  C   UNL     1       7.015  -8.129   7.860  0.00  0.00    +0.046 A 
ATOM      4  C   UNL     1       5.938  -7.622   7.146  0.00  0.00    +0.123 A 
ATOM      5  C   UNL     1       6.153  -6.700   6.140  0.00  0.00    -0.022 A 
ATOM      6  C   UNL     1       7.429  -6.261   5.854  0.00  0.00    +0.005 A 
ATOM      7  C   UNL     1       4.971  -6.176   5.347  0.00  0.00    -0.038 C 
ATOM      8  C   UNL     1       3.197  -6.130   7.015  0.00  0.00    -0.027 C 
ATOM      9  C   UNL     1       3.856  -6.995   8.067  0.00  0.00    +0.190 C 
ATOM     10  O   UNL     1       4.670  -8.005   7.458  0.00  0.00    -0.486 OA
ATOM     11  N   UNL     1       4.165  -5.318   6.248  0.00  0.00    +0.391 N 
ATOM     12  H   UNL     1       4.796  -4.848   6.907  0.00  0.00    -0.080 HD
ENDROOT
BRANCH   9  13
ATOM     13  C   UNL     1       2.792  -7.655   8.905  0.00  0.00    +0.026 A 
ATOM     14  C   UNL     1       2.374  -8.939   8.608  0.00  0.00    +0.010 A 
ATOM     15  C   UNL     1       1.402  -9.546   9.380  0.00  0.00    +0.001 A 
ATOM     16  C   UNL     1       0.837  -8.866  10.443  0.00  0.00    +0.003 A 
ATOM     17  C   UNL     1       1.249  -7.581  10.739  0.00  0.00    +0.039 A 
ATOM     18  C   UNL     1       2.227  -6.973   9.970  0.00  0.00    +0.130 A 
ATOM     19  F   UNL     1       2.630  -5.716  10.258  0.00  0.00    -0.205 F 
ENDBRANCH   9  13
BRANCH  11  20
ATOM     20  C   UNL     1       3.450  -4.298   5.464  0.00  0.00    +0.019 C 
BRANCH  20  21
ATOM     21  C   UNL     1       2.453  -4.934   4.530  0.00  0.00    +0.199 C 
ATOM     22  O   UNL     1       2.332  -6.140   4.503  0.00  0.00    -0.278 OA
ATOM     23  N   UNL     1       1.697  -4.162   3.725  0.00  0.00    -0.303 N 
ATOM     24  C   UNL     1       0.721  -4.767   2.808  0.00  0.00    +0.108 C 
ATOM     25  C   UNL     1       0.988  -4.251   1.391  0.00  0.00    +0.025 C 
ATOM     26  C   UNL     1       0.977  -2.721   1.399  0.00  0.00    +0.025 C 
ATOM     27  C   UNL     1       2.087  -2.206   2.319  0.00  0.00    +0.025 C 
ATOM     28  C   UNL     1       1.832  -2.699   3.747  0.00  0.00    +0.108 C 
BRANCH  26  29
ATOM     29  C   UNL     1       1.210  -2.202  -0.021  0.00  0.00    +0.149 C 
BRANCH  29  30
ATOM     30  C   UNL     1       1.199  -0.695  -0.013  0.00  0.00    -0.001 A 
ATOM     31  C   UNL     1       2.389   0.017  -0.021  0.00  0.00    +0.009 A 
ATOM     32  C   UNL     1       2.331   1.401  -0.013  0.00  0.00    +0.020 A 
ATOM     33  C   UNL     1       1.096   2.023   0.003  0.00  0.00    +0.111 A 
ATOM     34  N   UNL     1      -0.016   1.315   0.009  0.00  0.00    -0.263 NA
ATOM     35  C   UNL     1       0.002  -0.004   0.002  0.00  0.00    +0.116 A 
ENDBRANCH  29  30
BRANCH  29  36
ATOM     36  O   UNL     1       0.173  -2.681  -0.879  0.00  0.00    -0.387 OA
ATOM     37  H   UNL     1      -0.715  -2.404  -0.616  0.00  0.00    +0.210 HD
ENDBRANCH  29  36
ENDBRANCH  26  29
ENDBRANCH  20  21
ENDBRANCH  11  20
TORSDOF 6
