REMARK  Name = ZINC04713283
REMARK  7 active torsions:
REMARK  status: ('A' for Active; 'I' for Inactive)
REMARK    1  A    between atoms: C_1  and  C_2
REMARK    2  A    between atoms: C_2  and  N_3
REMARK    3  A    between atoms: N_3  and  N_4
REMARK    4  A    between atoms: C_5  and  C_7
REMARK    5  A    between atoms: C_13  and  C_14
REMARK    6  A    between atoms: N_16  and  C_17
REMARK    7  A    between atoms: C_22  and  C_23
REMARK                            x       y       z     vdW  Elec       q    Type
REMARK                         _______ _______ _______ _____ _____    ______ ____
ROOT
ATOM      1  C   UNL     1      -2.805   1.371  -0.029  0.00  0.00    +0.243 C 
ATOM      2  O   UNL     1      -2.200   1.113   0.996  0.00  0.00    -0.270 OA
ATOM      3  N   UNL     1      -4.150   1.456  -0.013  0.00  0.00    -0.281 N 
ATOM      4  H   UNL     1      -4.626   1.761  -0.801  0.00  0.00    +0.155 HD
ENDROOT
BRANCH   3   5
ATOM      5  C   UNL     1      -4.859   1.106   1.138  0.00  0.00    +0.041 A 
ATOM      6  C   UNL     1      -4.278   0.279   2.089  0.00  0.00    +0.024 A 
ATOM      7  C   UNL     1      -4.980  -0.066   3.228  0.00  0.00    +0.002 A 
ATOM      8  C   UNL     1      -6.265   0.411   3.428  0.00  0.00    +0.001 A 
ATOM      9  C   UNL     1      -6.855   1.235   2.491  0.00  0.00    +0.010 A 
ATOM     10  C   UNL     1      -6.155   1.593   1.341  0.00  0.00    +0.003 A 
BRANCH  10  11
ATOM     11  C   UNL     1      -6.783   2.483   0.334  0.00  0.00    -0.016 A 
ATOM     12  C   UNL     1      -6.092   3.594  -0.145  0.00  0.00    +0.008 A 
ATOM     13  C   UNL     1      -6.681   4.418  -1.083  0.00  0.00    +0.001 A 
ATOM     14  C   UNL     1      -7.954   4.142  -1.547  0.00  0.00    +0.000 A 
ATOM     15  C   UNL     1      -8.645   3.040  -1.075  0.00  0.00    +0.001 A 
ATOM     16  C   UNL     1      -8.064   2.207  -0.142  0.00  0.00    +0.008 A 
ENDBRANCH  10  11
ENDBRANCH   3   5
BRANCH   1  19
ATOM     17  C   UNL     1      -0.005   1.652   0.084  0.00  0.00    +0.062 C 
ATOM     18  C   UNL     1      -0.750   1.633  -1.226  0.00  0.00    +0.024 C 
ATOM     19  C   UNL     1      -2.098   1.580  -1.235  0.00  0.00    +0.087 C 
BRANCH  18  20
ATOM     20  N   UNL     1      -0.059   1.670  -2.405  0.00  0.00    -0.268 N 
ATOM     21  H   UNL     1       0.910   1.708  -2.398  0.00  0.00    +0.170 HD
BRANCH  20  22
ATOM     22  N   UNL     1      -0.751   1.652  -3.623  0.00  0.00    -0.231 N 
ATOM     23  C   UNL     1      -0.070   1.688  -4.785  0.00  0.00    +0.280 C 
ATOM     24  O   UNL     1       1.144   1.736  -4.777  0.00  0.00    -0.267 OA
ATOM     25  H   UNL     1      -1.720   1.614  -3.630  0.00  0.00    +0.173 HD
BRANCH  23  26
ATOM     26  C   UNL     1      -0.802   1.669  -6.074  0.00  0.00    +0.145 A 
ATOM     27  C   UNL     1      -0.099   1.701  -7.278  0.00  0.00    +0.143 A 
ATOM     28  N   UNL     1      -0.756   1.684  -8.423  0.00  0.00    -0.259 NA
ATOM     29  C   UNL     1      -2.077   1.637  -8.429  0.00  0.00    +0.130 A 
ATOM     30  C   UNL     1      -2.779   1.606  -7.233  0.00  0.00    +0.131 A 
ATOM     31  N   UNL     1      -2.131   1.617  -6.085  0.00  0.00    -0.247 NA
ENDBRANCH  23  26
ENDBRANCH  20  22
ENDBRANCH  18  20
ENDBRANCH   1  19
TORSDOF 6
