REMARK  Name = ZINC49398686
REMARK  6 active torsions:
REMARK  status: ('A' for Active; 'I' for Inactive)
REMARK    1  A    between atoms: C_1  and  C_2
REMARK    2  A    between atoms: C_5  and  C_23
REMARK    3  A    between atoms: C_6  and  O_8
REMARK    4  A    between atoms: O_8  and  C_9
REMARK    5  A    between atoms: C_9  and  C_11
REMARK    6  A    between atoms: C_20  and  C_22
REMARK                            x       y       z     vdW  Elec       q    Type
REMARK                         _______ _______ _______ _____ _____    ______ ____
ROOT
ATOM      1  C   UNL     1       0.123  -2.059   3.513  0.00  0.00    +0.344 C 
ATOM      2  O   UNL     1       0.104  -0.844   3.479  0.00  0.00    -0.245 OA
ENDROOT
BRANCH   1   3
ATOM      3  C   UNL     1       0.260  -2.758   4.804  0.00  0.00    +0.060 A 
ATOM      4  C   UNL     1       0.287  -4.155   4.849  0.00  0.00    +0.017 A 
ATOM      5  C   UNL     1       0.415  -4.803   6.054  0.00  0.00    +0.024 A 
ATOM      6  C   UNL     1       0.518  -4.074   7.244  0.00  0.00    +0.040 A 
ATOM      7  C   UNL     1       0.491  -2.686   7.195  0.00  0.00    -0.024 A 
ATOM      8  C   UNL     1       0.369  -2.029   5.991  0.00  0.00    +0.020 A 
ATOM      9  C   UNL     1       0.619  -2.154   8.605  0.00  0.00    +0.056 C 
ATOM     10  C   UNL     1       0.725  -3.411   9.483  0.00  0.00    +0.118 C 
ATOM     11  N   UNL     1       0.653  -4.539   8.551  0.00  0.00    -0.271 N 
ATOM     12  C   UNL     1       0.709  -5.838   8.906  0.00  0.00    +0.217 C 
ATOM     13  O   UNL     1       0.738  -6.699   8.052  0.00  0.00    -0.276 OA
ATOM     14  C   UNL     1       0.735  -6.220  10.363  0.00  0.00    +0.109 C 
ENDBRANCH   1   3
BRANCH   1  15
ATOM     15  O   UNL     1       0.017  -2.767   2.371  0.00  0.00    -0.422 OA
BRANCH  15  21
ATOM     16  C   UNL     1      -2.526  -0.613  -1.189  0.00  0.00    +0.044 C 
ATOM     17  C   UNL     1      -1.213  -1.017  -0.571  0.00  0.00    -0.047 A 
ATOM     18  C   UNL     1      -0.025  -0.692  -1.204  0.00  0.00    +0.004 A 
ATOM     19  C   UNL     1       1.182  -1.057  -0.647  0.00  0.00    +0.017 A 
ATOM     20  C   UNL     1       1.208  -1.758   0.560  0.00  0.00    +0.079 A 
ATOM     21  C   UNL     1       0.004  -2.086   1.198  0.00  0.00    +0.144 A 
ATOM     22  C   UNL     1      -1.201  -1.705   0.626  0.00  0.00    +0.050 A 
BRANCH  20  23
ATOM     23  C   UNL     1       2.497  -2.153   1.162  0.00  0.00    +0.245 C 
ATOM     24  O   UNL     1       2.516  -2.763   2.213  0.00  0.00    -0.270 OA
ATOM     25  N   UNL     1       3.653  -1.837   0.545  0.00  0.00    -0.325 N 
ATOM     26  H   UNL     1       3.638  -1.350  -0.294  0.00  0.00    +0.145 HD
ATOM     27  H   UNL     1       4.500  -2.096   0.940  0.00  0.00    +0.145 HD
ENDBRANCH  20  23
ENDBRANCH  15  21
ENDBRANCH   1  15
TORSDOF 4
