REMARK  Name = ZINC33279551
REMARK  9 active torsions:
REMARK  status: ('A' for Active; 'I' for Inactive)
REMARK    1  A    between atoms: C_1  and  C_2
REMARK    2  A    between atoms: C_5  and  N_9
REMARK    3  A    between atoms: C_7  and  C_8
REMARK    4  A    between atoms: C_10  and  C_12
REMARK    5  A    between atoms: C_12  and  N_13
REMARK    6  A    between atoms: N_13  and  S_14
REMARK    7  A    between atoms: S_14  and  C_17
REMARK    8  A    between atoms: C_19  and  C_22
REMARK    9  A    between atoms: C_24  and  C_27
REMARK                            x       y       z     vdW  Elec       q    Type
REMARK                         _______ _______ _______ _____ _____    ______ ____
ROOT
ATOM      1  S   UNL     1      -0.276   0.234  -0.181  0.00  0.00    +0.065 S 
ATOM      2  O   UNL     1       0.874  -0.300   0.459  0.00  0.00    -0.153 OA
ATOM      3  O   UNL     1      -1.596  -0.045   0.267  0.00  0.00    -0.153 OA
ENDROOT
BRANCH   1   4
ATOM      4  C   UNL     1      -0.097   1.986  -0.160  0.00  0.00    +0.143 A 
ATOM      5  C   UNL     1      -1.054   2.938  -0.237  0.00  0.00    +0.048 A 
ATOM      6  C   UNL     1      -0.648   4.270  -0.195  0.00  0.00    +0.031 A 
ATOM      7  C   UNL     1       0.686   4.538  -0.089  0.00  0.00    +0.058 A 
ATOM      8  S   UNL     1       1.395   2.957  -0.040  0.00  0.00    -0.076 S 
BRANCH   6   9
ATOM      9  C   UNL     1      -1.640   5.369  -0.268  0.00  0.00    +0.203 A 
ATOM     10  N   UNL     1      -1.373   6.695  -0.236  0.00  0.00    -0.191 NA
ATOM     11  C   UNL     1      -2.536   7.290  -0.330  0.00  0.00    +0.231 A 
ATOM     12  O   UNL     1      -3.464   6.331  -0.406  0.00  0.00    -0.337 OA
ATOM     13  N   UNL     1      -2.938   5.239  -0.370  0.00  0.00    -0.056 NA
BRANCH  11  14
ATOM     14  C   UNL     1      -2.782   8.777  -0.343  0.00  0.00    +0.078 C 
ATOM     15  C   UNL     1      -4.049   9.198   0.420  0.00  0.00    +0.013 C 
ATOM     16  C   UNL     1      -4.301  10.207  -0.713  0.00  0.00    +0.001 C 
ATOM     17  C   UNL     1      -3.481   9.274  -1.619  0.00  0.00    +0.013 C 
ENDBRANCH  11  14
ENDBRANCH   6   9
ENDBRANCH   1   4
BRANCH   1  18
ATOM     18  N   UNL     1      -0.203  -0.247  -1.764  0.00  0.00    -0.181 NA
ATOM     19  H   UNL     1      -1.128  -0.545  -2.279  0.00  0.00    +0.149 HD
BRANCH  18  20
ATOM     20  C   UNL     1       1.034  -0.067  -2.528  0.00  0.00    +0.201 C 
BRANCH  20  22
ATOM     21  N   UNL     1       2.009  -0.887  -4.648  0.00  0.00    -0.284 N 
ATOM     22  C   UNL     1       0.974  -0.896  -3.785  0.00  0.00    +0.233 C 
ATOM     23  O   UNL     1      -0.006  -1.570  -4.020  0.00  0.00    -0.274 OA
ATOM     24  H   UNL     1       2.860  -0.211  -4.480  0.00  0.00    +0.155 HD
BRANCH  21  29
ATOM     25  C   UNL     1       1.976  -4.340  -9.149  0.00  0.00    +0.044 C 
ATOM     26  C   UNL     1       1.985  -3.423  -7.954  0.00  0.00    -0.047 A 
ATOM     27  C   UNL     1       1.395  -3.827  -6.770  0.00  0.00    +0.005 A 
ATOM     28  C   UNL     1       1.406  -2.991  -5.671  0.00  0.00    +0.023 A 
ATOM     29  C   UNL     1       2.001  -1.739  -5.758  0.00  0.00    +0.034 A 
ATOM     30  C   UNL     1       2.593  -1.337  -6.948  0.00  0.00    +0.027 A 
ATOM     31  C   UNL     1       2.584  -2.180  -8.042  0.00  0.00    -0.046 A 
ATOM     32  C   UNL     1       3.226  -1.744  -9.334  0.00  0.00    +0.044 C 
ENDBRANCH  21  29
ENDBRANCH  20  22
ENDBRANCH  18  20
ENDBRANCH   1  18
TORSDOF 7
