REMARK  Name = ZINC40903494
REMARK  13 active torsions:
REMARK  status: ('A' for Active; 'I' for Inactive)
REMARK    1  A    between atoms: C_1  and  C_2
REMARK    2  A    between atoms: C_2  and  C_3
REMARK    3  A    between atoms: C_5  and  C_8
REMARK    4  A    between atoms: C_11  and  N_15
REMARK    5  A    between atoms: C_18  and  C_21
REMARK    6  A    between atoms: N_23  and  C_24
REMARK    7  A    between atoms: C_24  and  C_25
REMARK    8  A    between atoms: C_25  and  C_26
REMARK    9  A    between atoms: C_26  and  N_27
REMARK   10  A    between atoms: N_27  and  C_28
REMARK   11  A    between atoms: N_27  and  C_30
REMARK   12  A    between atoms: C_28  and  C_29
REMARK   13  A    between atoms: C_30  and  C_31
REMARK                            x       y       z     vdW  Elec       q    Type
REMARK                         _______ _______ _______ _____ _____    ______ ____
ROOT
ATOM      1  N   UNL     1       2.091  -4.352   9.292  0.00  0.00    -0.328 N 
ATOM      2  C   UNL     1       2.060  -3.215  10.221  0.00  0.00    +0.106 C 
ATOM      3  C   UNL     1       0.628  -3.036  10.735  0.00  0.00    +0.031 C 
ATOM      4  C   UNL     1       0.139  -4.355  11.339  0.00  0.00    +0.078 C 
ATOM      5  C   UNL     1       0.134  -5.441  10.261  0.00  0.00    +0.031 C 
ATOM      6  C   UNL     1       1.555  -5.645   9.740  0.00  0.00    +0.106 C 
ENDROOT
BRANCH   1  10
ATOM      7  C   UNL     1       3.655  -3.915   5.454  0.00  0.00    +0.025 A 
ATOM      8  C   UNL     1       2.302  -3.678   5.688  0.00  0.00    +0.013 A 
ATOM      9  C   UNL     1       1.786  -3.824   6.958  0.00  0.00    +0.027 A 
ATOM     10  C   UNL     1       2.615  -4.206   8.006  0.00  0.00    +0.065 A 
ATOM     11  C   UNL     1       3.968  -4.444   7.776  0.00  0.00    +0.145 A 
ATOM     12  C   UNL     1       4.486  -4.305   6.504  0.00  0.00    +0.052 A 
ATOM     13  F   UNL     1       4.772  -4.816   8.796  0.00  0.00    -0.204 F 
BRANCH   7  16
ATOM     14  C   UNL     1       4.304  -3.350   1.959  0.00  0.00    +0.227 A 
ATOM     15  N   UNL     1       3.517  -3.390   2.995  0.00  0.00    -0.191 NA
ATOM     16  C   UNL     1       4.211  -3.759   4.087  0.00  0.00    +0.202 A 
ATOM     17  N   UNL     1       5.460  -3.957   3.742  0.00  0.00    -0.056 NA
ATOM     18  O   UNL     1       5.537  -3.699   2.348  0.00  0.00    -0.338 OA
BRANCH  14  20
ATOM     19  C   UNL     1       4.060  -1.472   0.358  0.00  0.00    +0.014 C 
ATOM     20  C   UNL     1       3.895  -2.980   0.556  0.00  0.00    +0.095 C 
ENDBRANCH  14  20
ENDBRANCH   7  16
ENDBRANCH   1  10
BRANCH   4  21
ATOM     21  C   UNL     1      -1.258  -4.174  11.875  0.00  0.00    +0.216 C 
ATOM     22  O   UNL     1      -1.808  -3.097  11.784  0.00  0.00    -0.276 OA
ATOM     23  N   UNL     1      -1.895  -5.209  12.457  0.00  0.00    -0.315 N 
ATOM     24  H   UNL     1      -1.455  -6.070  12.530  0.00  0.00    +0.149 HD
BRANCH  23  25
ATOM     25  C   UNL     1      -3.253  -5.033  12.979  0.00  0.00    +0.102 C 
BRANCH  25  26
ATOM     26  C   UNL     1      -3.742  -6.351  13.583  0.00  0.00    +0.000 C 
BRANCH  26  27
ATOM     27  C   UNL     1      -5.160  -6.168  14.128  0.00  0.00    -0.077 C 
BRANCH  27  28
ATOM     28  N   UNL     1      -5.629  -7.433  14.707  0.00  0.00    +0.379 N 
ATOM     29  H   UNL     1      -5.555  -8.167  14.019  0.00  0.00    -0.082 HD
BRANCH  28  30
ATOM     30  C   UNL     1      -4.805  -7.772  15.875  0.00  0.00    -0.082 C 
ATOM     31  C   UNL     1      -5.199  -9.157  16.393  0.00  0.00    -0.017 C 
ENDBRANCH  28  30
BRANCH  28  32
ATOM     32  C   UNL     1      -7.031  -7.291  15.122  0.00  0.00    -0.082 C 
ATOM     33  C   UNL     1      -7.909  -7.079  13.887  0.00  0.00    -0.017 C 
ENDBRANCH  28  32
ENDBRANCH  27  28
ENDBRANCH  26  27
ENDBRANCH  25  26
ENDBRANCH  23  25
ENDBRANCH   4  21
TORSDOF 10
