REMARK  Name = ZINC44877431
REMARK  5 active torsions:
REMARK  status: ('A' for Active; 'I' for Inactive)
REMARK    1  A    between atoms: C_4  and  C_7
REMARK    2  A    between atoms: C_7  and  C_8
REMARK    3  A    between atoms: C_8  and  C_10
REMARK    4  A    between atoms: C_8  and  C_14
REMARK    5  A    between atoms: N_11  and  O_12
REMARK                            x       y       z     vdW  Elec       q    Type
REMARK                         _______ _______ _______ _____ _____    ______ ____
ROOT
ATOM      1  C   UNL     1       4.173  -0.966   1.395  0.00  0.00    +0.146 C 
ENDROOT
BRANCH   1   2
ATOM      2  C   UNL     1       5.484  -1.677   1.177  0.00  0.00    +0.226 C 
ATOM      3  O   UNL     1       5.495  -2.863   0.922  0.00  0.00    -0.275 OA
ATOM      4  N   UNL     1       6.643  -0.997   1.266  0.00  0.00    -0.298 N 
ATOM      5  C   UNL     1       6.798   0.458   1.474  0.00  0.00    +0.111 C 
ATOM      6  C   UNL     1       8.338   0.711   1.475  0.00  0.00    +0.008 C 
ATOM      7  C   UNL     1       8.819   0.096   2.827  0.00  0.00    +0.007 C 
ATOM      8  C   UNL     1       8.591  -1.424   2.653  0.00  0.00    +0.023 C 
ATOM      9  C   UNL     1       8.019  -1.566   1.182  0.00  0.00    +0.076 C 
ATOM     10  C   UNL     1       8.783  -0.399   0.455  0.00  0.00    +0.027 C 
ENDBRANCH   1   2
BRANCH   1  11
ATOM     11  C   UNL     1       3.200  -1.900   2.066  0.00  0.00    +0.144 C 
ATOM     12  N   UNL     1       2.412  -2.634   1.352  0.00  0.00    -0.076 NA
ATOM     13  N   UNL     1       3.149  -1.971   3.441  0.00  0.00    -0.343 N 
ATOM     14  H   UNL     1       3.686  -1.367   3.977  0.00  0.00    +0.144 HD
ATOM     15  H   UNL     1       2.577  -2.624   3.872  0.00  0.00    +0.144 HD
BRANCH  12  16
ATOM     16  O   UNL     1       1.498  -3.512   1.983  0.00  0.00    -0.408 OA
ATOM     17  H   UNL     1       0.951  -4.019   1.367  0.00  0.00    +0.328 HD
ENDBRANCH  12  16
ENDBRANCH   1  11
BRANCH   1  18
ATOM     18  C   UNL     1       3.605  -0.520   0.046  0.00  0.00    +0.055 C 
BRANCH  18  22
ATOM     19  C   UNL     1       0.073   1.797   0.682  0.00  0.00    +0.000 A 
ATOM     20  C   UNL     1       1.307   2.418   0.630  0.00  0.00    +0.000 A 
ATOM     21  C   UNL     1       2.450   1.668   0.425  0.00  0.00    +0.003 A 
ATOM     22  C   UNL     1       2.359   0.297   0.271  0.00  0.00    -0.046 A 
ATOM     23  C   UNL     1       1.125  -0.324   0.324  0.00  0.00    +0.003 A 
ATOM     24  C   UNL     1      -0.018   0.426   0.528  0.00  0.00    +0.000 A 
ENDBRANCH  18  22
ENDBRANCH   1  18
TORSDOF 5
