REMARK  Name = ZINC09925954
REMARK  7 active torsions:
REMARK  status: ('A' for Active; 'I' for Inactive)
REMARK    1  A    between atoms: C_1  and  C_2
REMARK    2  A    between atoms: C_8  and  N_9
REMARK    3  A    between atoms: C_8  and  N_60
REMARK    4  A    between atoms: C_16  and  C_19
REMARK    5  A    between atoms: C_16  and  O_32
REMARK    6  A    between atoms: C_19  and  C_20
REMARK    7  A    between atoms: C_20  and  C_22
REMARK                            x       y       z     vdW  Elec       q    Type
REMARK                         _______ _______ _______ _____ _____    ______ ____
ROOT
ATOM      1  N   UNL     1      -6.117   0.756  -1.809  0.00  0.00    -0.285 N 
ATOM      2  C   UNL     1      -6.907   1.656  -1.092  0.00  0.00    +0.041 A 
ATOM      3  C   UNL     1      -8.166   2.184  -1.368  0.00  0.00    +0.024 A 
ATOM      4  C   UNL     1      -8.752   3.072  -0.490  0.00  0.00    +0.002 A 
ATOM      5  C   UNL     1      -8.098   3.444   0.670  0.00  0.00    +0.000 A 
ATOM      6  C   UNL     1      -6.847   2.923   0.951  0.00  0.00    +0.009 A 
ATOM      7  C   UNL     1      -6.259   2.037   0.077  0.00  0.00    +0.014 A 
ATOM      8  C   UNL     1      -4.937   1.305   0.089  0.00  0.00    +0.175 C 
ATOM      9  C   UNL     1      -4.950   0.495  -1.190  0.00  0.00    +0.255 C 
ATOM     10  O   UNL     1      -4.074  -0.247  -1.582  0.00  0.00    -0.272 OA
ENDROOT
BRANCH   8  11
ATOM     11  O   UNL     1      -4.853   0.443   1.226  0.00  0.00    -0.374 OA
ATOM     12  H   UNL     1      -4.036  -0.073   1.268  0.00  0.00    +0.211 HD
ENDBRANCH   8  11
BRANCH   1  13
ATOM     13  C   UNL     1      -6.513   0.163  -3.089  0.00  0.00    +0.039 C 
BRANCH  13  20
ATOM     14  C   UNL     1      -5.969  -1.107  -5.540  0.00  0.00    -0.013 C 
ATOM     15  C   UNL     1      -6.318   0.382  -5.492  0.00  0.00    -0.070 C 
ATOM     16  C   UNL     1      -5.573   1.117  -6.608  0.00  0.00    -0.016 C 
ATOM     17  C   UNL     1      -5.910   2.610  -6.543  0.00  0.00    -0.003 C 
ATOM     18  C   UNL     1      -5.534   3.150  -5.161  0.00  0.00    -0.019 C 
ATOM     19  C   UNL     1      -6.280   2.356  -4.087  0.00  0.00    -0.076 C 
ATOM     20  N   UNL     1      -5.893   0.933  -4.187  0.00  0.00    +0.392 N 
ATOM     21  H   UNL     1      -4.872   0.859  -4.112  0.00  0.00    -0.079 HD
ENDBRANCH  13  20
ENDBRANCH   1  13
BRANCH   8  22
ATOM     22  C   UNL     1      -3.774   2.298   0.083  0.00  0.00    +0.129 C 
BRANCH  22  23
ATOM     23  C   UNL     1      -2.475   1.550  -0.075  0.00  0.00    +0.167 C 
ATOM     24  O   UNL     1      -2.480   0.341  -0.174  0.00  0.00    -0.292 OA
BRANCH  23  25
ATOM     25  C   UNL     1      -1.206   2.284  -0.111  0.00  0.00    +0.025 A 
ATOM     26  C   UNL     1      -1.189   3.676  -0.128  0.00  0.00    +0.012 A 
ATOM     27  C   UNL     1       0.013   4.366  -0.166  0.00  0.00    +0.001 A 
ATOM     28  C   UNL     1       1.212   3.721  -0.184  0.00  0.00    +0.008 A 
ATOM     29  C   UNL     1       1.272   2.317  -0.162  0.00  0.00    -0.017 A 
ATOM     30  C   UNL     1       0.071   1.569  -0.123  0.00  0.00    -0.007 A 
ATOM     31  C   UNL     1       0.126   0.171  -0.102  0.00  0.00    +0.009 A 
ATOM     32  C   UNL     1       1.337  -0.456  -0.119  0.00  0.00    +0.001 A 
ATOM     33  C   UNL     1       2.521   0.276  -0.158  0.00  0.00    +0.001 A 
ATOM     34  C   UNL     1       2.503   1.638  -0.179  0.00  0.00    +0.008 A 
ENDBRANCH  23  25
ENDBRANCH  22  23
ENDBRANCH   8  22
TORSDOF 6
