REMARK  Name = ZINC59461932
REMARK  8 active torsions:
REMARK  status: ('A' for Active; 'I' for Inactive)
REMARK    1  A    between atoms: C_1  and  C_2
REMARK    2  A    between atoms: C_6  and  C_8
REMARK    3  A    between atoms: N_10  and  C_11
REMARK    4  A    between atoms: C_11  and  N_13
REMARK    5  A    between atoms: C_16  and  C_26
REMARK    6  A    between atoms: C_20  and  C_25
REMARK    7  A    between atoms: C_22  and  C_23
REMARK    8  A    between atoms: C_22  and  C_24
REMARK                            x       y       z     vdW  Elec       q    Type
REMARK                         _______ _______ _______ _____ _____    ______ ____
ROOT
ATOM      1  N   UNL     1       0.317  -6.359   3.585  0.00  0.00    -0.273 N 
ATOM      2  C   UNL     1       0.354  -7.154   2.435  0.00  0.00    +0.044 A 
ATOM      3  C   UNL     1       0.124  -6.627   1.178  0.00  0.00    +0.027 A 
ATOM      4  C   UNL     1       0.167  -7.454   0.070  0.00  0.00    -0.049 A 
ATOM      5  C   UNL     1       0.439  -8.804   0.213  0.00  0.00    +0.004 A 
ATOM      6  C   UNL     1       0.671  -9.344   1.463  0.00  0.00    +0.010 A 
ATOM      7  C   UNL     1       0.632  -8.522   2.584  0.00  0.00    -0.001 A 
ATOM      8  C   UNL     1       0.885  -9.051   3.939  0.00  0.00    -0.043 C 
ATOM      9  C   UNL     1       0.549  -8.328   5.000  0.00  0.00    +0.002 C 
ATOM     10  C   UNL     1      -0.097  -6.981   4.849  0.00  0.00    +0.054 C 
ATOM     11  C   UNL     1       0.322  -6.085   6.017  0.00  0.00    +0.036 C 
ATOM     12  C   UNL     1      -1.618  -7.147   4.859  0.00  0.00    +0.036 C 
ATOM     13  C   UNL     1       1.520 -10.406   4.116  0.00  0.00    +0.044 C 
ATOM     14  C   UNL     1      -0.083  -6.882  -1.301  0.00  0.00    +0.044 C 
ENDROOT
BRANCH   1  15
ATOM     15  C   UNL     1       0.659  -5.056   3.535  0.00  0.00    +0.144 C 
ATOM     16  S   UNL     1       0.525  -4.081   4.936  0.00  0.00    -0.018 S 
BRANCH  15  19
ATOM     17  C   UNL     1       1.350  -3.197   2.304  0.00  0.00    +0.250 C 
ATOM     18  O   UNL     1       1.165  -2.487   3.272  0.00  0.00    -0.270 OA
ATOM     19  N   UNL     1       1.107  -4.520   2.382  0.00  0.00    -0.263 N 
ATOM     20  H   UNL     1       1.254  -5.087   1.609  0.00  0.00    +0.157 HD
BRANCH  17  26
ATOM     21  C   UNL     1       2.823   0.782  -0.322  0.00  0.00    +0.044 C 
ATOM     22  C   UNL     1       2.550  -0.697  -0.228  0.00  0.00    -0.050 A 
ATOM     23  C   UNL     1       2.760  -1.509  -1.329  0.00  0.00    +0.003 A 
ATOM     24  C   UNL     1       2.512  -2.868  -1.252  0.00  0.00    +0.001 A 
ATOM     25  C   UNL     1       2.054  -3.423  -0.075  0.00  0.00    +0.013 A 
ATOM     26  C   UNL     1       1.841  -2.610   1.040  0.00  0.00    +0.037 A 
ATOM     27  C   UNL     1       2.098  -1.240   0.956  0.00  0.00    +0.016 A 
ENDBRANCH  17  26
ENDBRANCH  15  19
ENDBRANCH   1  15
TORSDOF 3
