REMARK  Name = ZINC61371060
REMARK  7 active torsions:
REMARK  status: ('A' for Active; 'I' for Inactive)
REMARK    1  A    between atoms: C_1  and  C_2
REMARK    2  A    between atoms: C_2  and  C_3
REMARK    3  A    between atoms: C_2  and  C_4
REMARK    4  A    between atoms: C_4  and  C_6
REMARK    5  A    between atoms: C_4  and  C_10
REMARK    6  A    between atoms: N_7  and  O_8
REMARK    7  A    between atoms: N_12  and  C_13
REMARK                            x       y       z     vdW  Elec       q    Type
REMARK                         _______ _______ _______ _____ _____    ______ ____
ROOT
ATOM      1  C   UNL     1      -1.427  -1.845   0.178  0.00  0.00    +0.224 C 
ATOM      2  O   UNL     1      -1.868  -2.535  -0.717  0.00  0.00    -0.275 OA
ATOM      3  N   UNL     1      -0.983  -2.418   1.315  0.00  0.00    -0.308 N 
ATOM      4  H   UNL     1      -0.559  -1.876   1.998  0.00  0.00    +0.149 HD
ENDROOT
BRANCH   3   5
ATOM      5  C   UNL     1      -1.141  -3.860   1.518  0.00  0.00    +0.104 C 
ATOM      6  C   UNL     1      -1.154  -4.168   3.016  0.00  0.00    +0.027 C 
ATOM      7  C   UNL     1       0.220  -3.873   3.623  0.00  0.00    +0.007 C 
ATOM      8  C   UNL     1       1.219  -4.926   3.118  0.00  0.00    +0.043 C 
ATOM      9  C   UNL     1       1.057  -5.055   1.639  0.00  0.00    -0.005 A 
ATOM     10  C   UNL     1       0.026  -4.599   0.871  0.00  0.00    -0.017 A 
ATOM     11  C   UNL     1       0.109  -4.845  -0.500  0.00  0.00    +0.013 A 
ATOM     12  C   UNL     1       1.173  -5.508  -1.006  0.00  0.00    +0.046 A 
ATOM     13  S   UNL     1       2.143  -5.828   0.470  0.00  0.00    -0.101 S 
ENDBRANCH   3   5
BRANCH   1  14
ATOM     14  C   UNL     1      -1.374  -0.347   0.019  0.00  0.00    +0.144 C 
BRANCH  14  15
ATOM     15  C   UNL     1      -2.445   0.093  -0.945  0.00  0.00    +0.144 C 
ATOM     16  N   UNL     1      -2.161   0.260  -2.194  0.00  0.00    -0.076 NA
ATOM     17  N   UNL     1      -3.727   0.318  -0.494  0.00  0.00    -0.343 N 
ATOM     18  H   UNL     1      -3.941   0.193   0.444  0.00  0.00    +0.144 HD
ATOM     19  H   UNL     1      -4.417   0.602  -1.115  0.00  0.00    +0.144 HD
BRANCH  16  20
ATOM     20  O   UNL     1      -3.168   0.674  -3.100  0.00  0.00    -0.408 OA
ATOM     21  H   UNL     1      -2.860   0.772  -4.011  0.00  0.00    +0.328 HD
ENDBRANCH  16  20
ENDBRANCH  14  15
BRANCH  14  23
ATOM     22  C   UNL     1       0.028   1.574  -0.745  0.00  0.00    +0.008 C 
ATOM     23  C   UNL     1      -0.002   0.061  -0.521  0.00  0.00    +0.002 C 
ATOM     24  C   UNL     1       1.080  -0.328   0.488  0.00  0.00    +0.008 C 
ENDBRANCH  14  23
ENDBRANCH   1  14
TORSDOF 5
