REMARK  Name = ZINC23244785
REMARK  8 active torsions:
REMARK  status: ('A' for Active; 'I' for Inactive)
REMARK    1  A    between atoms: C_1  and  C_2
REMARK    2  A    between atoms: C_5  and  C_8
REMARK    3  A    between atoms: N_13  and  C_15
REMARK    4  A    between atoms: C_15  and  C_16
REMARK    5  A    between atoms: C_16  and  N_17
REMARK    6  A    between atoms: N_20  and  S_23
REMARK    7  A    between atoms: S_23  and  C_26
REMARK    8  A    between atoms: C_28  and  N_33
REMARK                            x       y       z     vdW  Elec       q    Type
REMARK                         _______ _______ _______ _____ _____    ______ ____
ROOT
ATOM      1  N   UNL     1      -0.177   7.283   1.923  0.00  0.00    +0.383 N 
ATOM      2  C   UNL     1       1.168   7.538   1.390  0.00  0.00    -0.061 C 
ATOM      3  C   UNL     1       1.294   9.019   1.018  0.00  0.00    +0.091 C 
ATOM      4  N   UNL     1       0.925   9.828   2.190  0.00  0.00    -0.180 NA
ATOM      5  C   UNL     1      -0.350   9.538   2.863  0.00  0.00    +0.091 C 
ATOM      6  C   UNL     1      -0.411   8.036   3.162  0.00  0.00    -0.061 C 
ATOM      7  H   UNL     1      -0.905   7.633   1.176  0.00  0.00    -0.082 HD
ENDROOT
BRANCH   4   8
ATOM      8  S   UNL     1       1.920  11.034   2.737  0.00  0.00    +0.062 S 
ATOM      9  O   UNL     1       1.731  11.109   4.143  0.00  0.00    -0.153 OA
ATOM     10  O   UNL     1       3.194  10.807   2.150  0.00  0.00    -0.153 OA
BRANCH   8  11
ATOM     11  C   UNL     1       1.319  12.549   2.067  0.00  0.00    +0.126 A 
ATOM     12  C   UNL     1       0.804  13.520   2.905  0.00  0.00    +0.062 A 
ATOM     13  C   UNL     1       0.338  14.710   2.381  0.00  0.00    +0.128 A 
ATOM     14  C   UNL     1       0.377  14.927   1.016  0.00  0.00    +0.034 A 
ATOM     15  C   UNL     1       0.886  13.955   0.176  0.00  0.00    +0.024 A 
ATOM     16  C   UNL     1       1.358  12.765   0.701  0.00  0.00    +0.067 A 
ATOM     17 CL   UNL     1       1.998  11.543  -0.353  0.00  0.00    -0.082 Cl
BRANCH  13  18
ATOM     18  N   UNL     1      -0.208  15.752   3.279  0.00  0.00    +0.056 N 
ATOM     19  O   UNL     1      -0.624  16.799   2.817  0.00  0.00    -0.126 OA
ATOM     20  O   UNL     1      -0.242  15.561   4.482  0.00  0.00    -0.126 OA
ENDBRANCH  13  18
ENDBRANCH   8  11
ENDBRANCH   4   8
BRANCH   1  21
ATOM     21  C   UNL     1      -0.397   5.846   2.131  0.00  0.00    -0.055 C 
BRANCH  21  22
ATOM     22  C   UNL     1      -0.391   5.128   0.780  0.00  0.00    +0.129 C 
BRANCH  22  28
ATOM     23  C   UNL     1       0.280   1.634   1.357  0.00  0.00    +0.092 A 
ATOM     24  C   UNL     1      -1.002   1.036   1.374  0.00  0.00    +0.035 A 
ATOM     25  C   UNL     1      -2.090   1.836   1.183  0.00  0.00    +0.074 A 
ATOM     26  C   UNL     1      -1.869   3.218   0.988  0.00  0.00    +0.267 A 
ATOM     27  O   UNL     1      -2.812   3.973   0.817  0.00  0.00    -0.266 OA
ATOM     28  N   UNL     1      -0.610   3.694   0.988  0.00  0.00    -0.231 N 
ATOM     29  N   UNL     1       0.404   2.926   1.165  0.00  0.00    -0.168 NA
BRANCH  23  34
ATOM     30  C   UNL     1       4.971  -1.614   2.133  0.00  0.00    +0.044 C 
ATOM     31  C   UNL     1       3.744  -0.764   1.929  0.00  0.00    -0.050 A 
ATOM     32  C   UNL     1       3.874   0.598   1.726  0.00  0.00    +0.004 A 
ATOM     33  C   UNL     1       2.753   1.381   1.540  0.00  0.00    +0.010 A 
ATOM     34  C   UNL     1       1.488   0.797   1.556  0.00  0.00    +0.002 A 
ATOM     35  C   UNL     1       1.362  -0.574   1.766  0.00  0.00    +0.010 A 
ATOM     36  C   UNL     1       2.490  -1.349   1.947  0.00  0.00    +0.004 A 
ENDBRANCH  23  34
ENDBRANCH  22  28
ENDBRANCH  21  22
ENDBRANCH   1  21
TORSDOF 7
