REMARK  Name = ZINC14479099
REMARK  5 active torsions:
REMARK  status: ('A' for Active; 'I' for Inactive)
REMARK    1  A    between atoms: C_1  and  C_2
REMARK    2  A    between atoms: C_2  and  N_3
REMARK    3  A    between atoms: C_4  and  C_6
REMARK    4  A    between atoms: C_19  and  C_22
REMARK    5  A    between atoms: C_27  and  C_28
REMARK                            x       y       z     vdW  Elec       q    Type
REMARK                         _______ _______ _______ _____ _____    ______ ____
ROOT
ATOM      1  C   UNL     1      -1.304   2.064   0.019  0.00  0.00    +0.037 A 
ATOM      2  C   UNL     1      -2.507   1.352   0.021  0.00  0.00    +0.015 A 
ATOM      3  C   UNL     1      -3.704   2.026   0.026  0.00  0.00    +0.024 A 
ATOM      4  C   UNL     1      -3.732   3.419   0.034  0.00  0.00    +0.031 A 
ATOM      5  C   UNL     1      -2.525   4.133   0.040  0.00  0.00    -0.019 A 
ATOM      6  C   UNL     1      -1.327   3.461   0.033  0.00  0.00    +0.019 A 
ATOM      7  C   UNL     1      -2.604   5.609   0.071  0.00  0.00    +0.049 C 
ATOM      8  C   UNL     1      -1.529   6.498  -0.466  0.00  0.00    -0.023 C 
ATOM      9  C   UNL     1      -2.079   7.606  -0.947  0.00  0.00    -0.030 C 
ATOM     10  C   UNL     1      -3.599   7.552  -0.779  0.00  0.00    +0.033 C 
ATOM     11  C   UNL     1      -3.853   6.039  -0.757  0.00  0.00    +0.029 C 
ATOM     12  C   UNL     1      -5.051   5.549   0.036  0.00  0.00    +0.105 C 
ATOM     13  N   UNL     1      -4.964   4.073   0.020  0.00  0.00    -0.336 N 
ATOM     14  H   UNL     1      -5.780   3.549   0.000  0.00  0.00    +0.147 HD
ENDROOT
BRANCH  12  15
ATOM     15  C   UNL     1      -4.984   6.059   1.453  0.00  0.00    -0.024 A 
ATOM     16  C   UNL     1      -4.364   5.303   2.431  0.00  0.00    +0.006 A 
ATOM     17  C   UNL     1      -4.303   5.771   3.730  0.00  0.00    +0.000 A 
ATOM     18  C   UNL     1      -4.862   6.994   4.052  0.00  0.00    +0.000 A 
ATOM     19  C   UNL     1      -5.482   7.749   3.074  0.00  0.00    +0.004 A 
ATOM     20  C   UNL     1      -5.538   7.284   1.774  0.00  0.00    -0.045 A 
ATOM     21  C   UNL     1      -6.209   8.110   0.706  0.00  0.00    +0.044 C 
ENDBRANCH  12  15
BRANCH   1  23
ATOM     22  N   UNL     1       0.002  -0.004   0.002  0.00  0.00    -0.312 N 
ATOM     23  C   UNL     1      -0.016   1.344   0.009  0.00  0.00    +0.244 C 
ATOM     24  O   UNL     1       1.028   1.966   0.003  0.00  0.00    -0.270 OA
ATOM     25  H   UNL     1      -0.831  -0.500   0.007  0.00  0.00    +0.149 HD
BRANCH  22  27
ATOM     26  C   UNL     1       1.021  -2.227  -0.020  0.00  0.00    +0.024 C 
ATOM     27  C   UNL     1       1.281  -0.719  -0.014  0.00  0.00    +0.101 C 
ENDBRANCH  22  27
ENDBRANCH   1  23
TORSDOF 3
