REMARK  Name = ZINC28034234
REMARK  10 active torsions:
REMARK  status: ('A' for Active; 'I' for Inactive)
REMARK    1  A    between atoms: C_1  and  C_2
REMARK    2  A    between atoms: C_2  and  C_3
REMARK    3  A    between atoms: C_8  and  N_9
REMARK    4  A    between atoms: C_10  and  C_12
REMARK    5  A    between atoms: C_12  and  N_13
REMARK    6  A    between atoms: C_14  and  C_16
REMARK    7  A    between atoms: C_16  and  S_17
REMARK    8  A    between atoms: S_17  and  C_18
REMARK    9  A    between atoms: N_22  and  C_23
REMARK   10  A    between atoms: C_26  and  C_29
REMARK                            x       y       z     vdW  Elec       q    Type
REMARK                         _______ _______ _______ _____ _____    ______ ____
ROOT
ATOM      1  C   UNL     1       8.713  -0.663   1.693  0.00  0.00    +0.173 C 
ENDROOT
BRANCH   1   3
ATOM      2  N   UNL     1       6.362  -0.515   0.938  0.00  0.00    -0.306 N 
ATOM      3  C   UNL     1       7.257  -0.358   1.933  0.00  0.00    +0.224 C 
ATOM      4  O   UNL     1       6.890   0.029   3.023  0.00  0.00    -0.275 OA
ATOM      5  H   UNL     1       6.655  -0.824   0.066  0.00  0.00    +0.149 HD
BRANCH   2   6
ATOM      6  C   UNL     1       4.947  -0.219   1.171  0.00  0.00    +0.200 C 
BRANCH   6   8
ATOM      7  N   UNL     1       2.833  -0.268  -0.113  0.00  0.00    -0.284 N 
ATOM      8  C   UNL     1       4.165  -0.474  -0.091  0.00  0.00    +0.234 C 
ATOM      9  O   UNL     1       4.734  -0.865  -1.088  0.00  0.00    -0.274 OA
ATOM     10  H   UNL     1       2.388   0.106   0.663  0.00  0.00    +0.155 HD
BRANCH   7  16
ATOM     11  C   UNL     1       0.800  -1.084  -1.129  0.00  0.00    -0.026 A 
ATOM     12  C   UNL     1       0.070  -1.399  -2.258  0.00  0.00    +0.005 A 
ATOM     13  C   UNL     1       0.627  -1.234  -3.513  0.00  0.00    +0.000 A 
ATOM     14  C   UNL     1       1.917  -0.751  -3.641  0.00  0.00    +0.002 A 
ATOM     15  C   UNL     1       2.652  -0.433  -2.516  0.00  0.00    +0.023 A 
ATOM     16  C   UNL     1       2.093  -0.594  -1.255  0.00  0.00    +0.037 A 
BRANCH  11  18
ATOM     17  C   UNL     1      -0.422   0.058   0.702  0.00  0.00    +0.009 C 
ATOM     18  C   UNL     1       0.191  -1.265   0.238  0.00  0.00    +0.033 C 
ENDBRANCH  11  18
ENDBRANCH   7  16
ENDBRANCH   6   8
ENDBRANCH   2   6
ENDBRANCH   1   3
BRANCH   1  19
ATOM     19  S   UNL     1       9.654  -0.355   3.213  0.00  0.00    -0.076 S 
BRANCH  19  20
ATOM     20  C   UNL     1      11.314  -0.752   2.774  0.00  0.00    +0.198 A 
ATOM     21  N   UNL     1      11.723  -1.165   1.599  0.00  0.00    -0.120 NA
ATOM     22  N   UNL     1      13.107  -1.367   1.668  0.00  0.00    -0.112 NA
ATOM     23  C   UNL     1      13.502  -1.071   2.882  0.00  0.00    +0.225 A 
ATOM     24  N   UNL     1      12.404  -0.677   3.599  0.00  0.00    -0.259 N 
ATOM     25  N   UNL     1      14.805  -1.140   3.357  0.00  0.00    -0.299 N 
ATOM     26  C   UNL     1      15.238  -0.813   4.724  0.00  0.00    +0.108 C 
ATOM     27  C   UNL     1      16.767  -1.012   4.780  0.00  0.00    +0.020 C 
ATOM     28  C   UNL     1      17.188  -0.895   3.291  0.00  0.00    +0.020 C 
ATOM     29  C   UNL     1      15.983  -1.560   2.576  0.00  0.00    +0.108 C 
BRANCH  24  30
ATOM     30  C   UNL     1      12.397  -0.272   4.942  0.00  0.00    +0.052 A 
ATOM     31  C   UNL     1      13.055   0.890   5.321  0.00  0.00    +0.026 A 
ATOM     32  C   UNL     1      13.046   1.287   6.644  0.00  0.00    +0.005 A 
ATOM     33  C   UNL     1      12.383   0.527   7.590  0.00  0.00    -0.050 A 
ATOM     34  C   UNL     1      11.727  -0.631   7.216  0.00  0.00    +0.005 A 
ATOM     35  C   UNL     1      11.728  -1.030   5.893  0.00  0.00    +0.026 A 
ATOM     36  C   UNL     1      12.375   0.963   9.033  0.00  0.00    +0.044 C 
ENDBRANCH  24  30
ENDBRANCH  19  20
ENDBRANCH   1  19
TORSDOF 8
