REMARK  Name = ZINC57466336
REMARK  7 active torsions:
REMARK  status: ('A' for Active; 'I' for Inactive)
REMARK    1  A    between atoms: C_1  and  C_2
REMARK    2  A    between atoms: C_4  and  C_23
REMARK    3  A    between atoms: C_6  and  C_8
REMARK    4  A    between atoms: N_10  and  N_11
REMARK    5  A    between atoms: C_18  and  C_22
REMARK    6  A    between atoms: C_19  and  C_20
REMARK    7  A    between atoms: C_19  and  C_21
REMARK                            x       y       z     vdW  Elec       q    Type
REMARK                         _______ _______ _______ _____ _____    ______ ____
ROOT
ATOM      1  C   UNL     1      -1.595  -3.045   3.040  0.00  0.00    +0.263 C 
ATOM      2  O   UNL     1      -2.151  -4.093   3.305  0.00  0.00    -0.268 OA
ATOM      3  N   UNL     1      -0.926  -2.376   4.000  0.00  0.00    -0.203 N 
ATOM      4  H   UNL     1      -0.483  -1.539   3.788  0.00  0.00    +0.178 HD
ENDROOT
BRANCH   3   5
ATOM      5  N   UNL     1      -0.871  -2.888   5.303  0.00  0.00    -0.188 NA
ATOM      6  C   UNL     1      -0.333  -2.201   6.239  0.00  0.00    +0.044 C 
ATOM      7  C   UNL     1      -0.033  -2.653   7.660  0.00  0.00    +0.057 C 
ATOM      8  C   UNL     1       0.611  -1.410   8.348  0.00  0.00    +0.001 C 
ATOM      9  C   UNL     1       2.021  -1.293   7.691  0.00  0.00    +0.005 C 
ATOM     10  C   UNL     1       1.733  -0.863   6.234  0.00  0.00    +0.013 C 
ATOM     11  C   UNL     1       0.155  -0.747   6.164  0.00  0.00    +0.013 C 
ATOM     12  C   UNL     1      -0.167  -0.256   7.622  0.00  0.00    -0.021 C 
ATOM     13  C   UNL     1       0.441   1.118   7.913  0.00  0.00    +0.012 C 
ATOM     14  C   UNL     1      -1.665  -0.291   7.929  0.00  0.00    +0.012 C 
ATOM     15  C   UNL     1      -0.412   0.088   5.014  0.00  0.00    +0.018 C 
ENDBRANCH   3   5
BRANCH   1  21
ATOM     16  C   UNL     1      -0.388   0.498  -0.260  0.00  0.00    +0.044 C 
ATOM     17  C   UNL     1      -1.075  -0.801   0.074  0.00  0.00    -0.049 A 
ATOM     18  C   UNL     1      -1.763  -1.490  -0.909  0.00  0.00    +0.006 A 
ATOM     19  C   UNL     1      -2.396  -2.684  -0.611  0.00  0.00    -0.049 A 
ATOM     20  C   UNL     1      -2.345  -3.195   0.669  0.00  0.00    +0.016 A 
ATOM     21  C   UNL     1      -1.653  -2.504   1.666  0.00  0.00    +0.039 A 
ATOM     22  C   UNL     1      -1.012  -1.303   1.357  0.00  0.00    +0.016 A 
ATOM     23  C   UNL     1      -3.143  -3.428  -1.688  0.00  0.00    +0.044 C 
ENDBRANCH   1  21
TORSDOF 2
