REMARK  Name = ZINC09102572
REMARK  16 active torsions:
REMARK  status: ('A' for Active; 'I' for Inactive)
REMARK    1  A    between atoms: C_1  and  C_2
REMARK    2  A    between atoms: C_3  and  C_32
REMARK    3  A    between atoms: C_4  and  C_31
REMARK    4  A    between atoms: C_7  and  C_8
REMARK    5  A    between atoms: C_8  and  C_10
REMARK    6  A    between atoms: C_10  and  C_12
REMARK    7  A    between atoms: C_10  and  S_13
REMARK    8  A    between atoms: S_13  and  C_14
REMARK    9  A    between atoms: C_17  and  C_26
REMARK   10  A    between atoms: N_18  and  C_19
REMARK   11  A    between atoms: C_26  and  C_28
REMARK   12  A    between atoms: C_26  and  N_61
REMARK   13  A    between atoms: C_29  and  N_61
REMARK   14  A    between atoms: C_30  and  N_61
REMARK   15  A    between atoms: C_32  and  O_34
REMARK   16  A    between atoms: O_34  and  C_35
REMARK                            x       y       z     vdW  Elec       q    Type
REMARK                         _______ _______ _______ _____ _____    ______ ____
ROOT
ATOM      1  C   UNL     1       2.330   0.877   1.406  0.00  0.00    +0.197 A 
ATOM      2  N   UNL     1       1.679   0.047   2.188  0.00  0.00    -0.122 NA
ATOM      3  N   UNL     1       2.456  -0.378   3.119  0.00  0.00    -0.135 NA
ATOM      4  C   UNL     1       3.641   0.150   2.991  0.00  0.00    +0.125 A 
ATOM      5  N   UNL     1       3.606   0.965   1.891  0.00  0.00    -0.275 N 
ENDROOT
BRANCH   5   6
ATOM      6  C   UNL     1       4.659   1.733   1.372  0.00  0.00    +0.050 A 
ATOM      7  C   UNL     1       5.787   1.109   0.857  0.00  0.00    +0.028 A 
ATOM      8  C   UNL     1       6.820   1.867   0.342  0.00  0.00    +0.022 A 
ATOM      9  C   UNL     1       6.737   3.248   0.349  0.00  0.00    +0.041 A 
ATOM     10  C   UNL     1       5.616   3.873   0.868  0.00  0.00    +0.022 A 
ATOM     11  C   UNL     1       4.578   3.119   1.379  0.00  0.00    +0.028 A 
ATOM     12 CL   UNL     1       8.040   4.199  -0.293  0.00  0.00    -0.084 Cl
ENDBRANCH   5   6
BRANCH   4  13
ATOM     13  C   UNL     1       4.830  -0.097   3.884  0.00  0.00    -0.003 C 
ATOM     14  C   UNL     1       5.414  -1.479   3.585  0.00  0.00    -0.005 C 
BRANCH  13  17
ATOM     15  C   UNL     1       5.543  -0.273   6.191  0.00  0.00    -0.096 C 
ATOM     16  C   UNL     1       3.755   1.244   5.589  0.00  0.00    -0.096 C 
ATOM     17  N   UNL     1       4.388  -0.058   5.294  0.00  0.00    +0.382 N 
ATOM     18  H   UNL     1       3.701  -0.806   5.449  0.00  0.00    -0.082 HD
ENDBRANCH  13  17
ENDBRANCH   4  13
BRANCH   1  19
ATOM     19  S   UNL     1       1.685   1.712  -0.005  0.00  0.00    -0.074 S 
BRANCH  19  20
ATOM     20  C   UNL     1      -0.013   1.086   0.008  0.00  0.00    +0.124 C 
ATOM     21  C   UNL     1      -0.729   1.579   1.267  0.00  0.00    +0.028 C 
BRANCH  20  22
ATOM     22  C   UNL     1      -0.742   1.585  -1.213  0.00  0.00    +0.192 C 
ATOM     23  O   UNL     1      -0.381   2.607  -1.760  0.00  0.00    -0.289 OA
BRANCH  22  30
ATOM     24  C   UNL     1      -2.401   2.409  -3.709  0.00  0.00    +0.047 C 
ATOM     25  C   UNL     1      -2.599   1.204  -2.825  0.00  0.00    -0.008 A 
ATOM     26  C   UNL     1      -3.589   0.209  -2.969  0.00  0.00    +0.083 A 
ATOM     27  C   UNL     1      -3.403  -0.704  -1.945  0.00  0.00    +0.028 A 
ATOM     28  N   UNL     1      -2.356  -0.312  -1.205  0.00  0.00    -0.355 N 
ATOM     29  H   UNL     1      -2.011  -0.778  -0.427  0.00  0.00    +0.166 HD
ATOM     30  C   UNL     1      -1.847   0.862  -1.722  0.00  0.00    +0.087 A 
ATOM     31  C   UNL     1      -4.235  -1.938  -1.706  0.00  0.00    +0.064 C 
BRANCH  26  32
ATOM     32  C   UNL     1      -4.627   0.152  -4.013  0.00  0.00    +0.341 C 
ATOM     33  O   UNL     1      -4.407  -0.428  -5.057  0.00  0.00    -0.245 OA
BRANCH  32  34
ATOM     34  O   UNL     1      -5.821   0.743  -3.809  0.00  0.00    -0.464 OA
ATOM     35  C   UNL     1      -6.795   0.647  -4.881  0.00  0.00    +0.280 C 
ENDBRANCH  32  34
ENDBRANCH  26  32
ENDBRANCH  22  30
ENDBRANCH  20  22
ENDBRANCH  19  20
ENDBRANCH   1  19
TORSDOF 9
