REMARK  Name = ZINC35705797
REMARK  12 active torsions:
REMARK  status: ('A' for Active; 'I' for Inactive)
REMARK    1  A    between atoms: C_1  and  C_2
REMARK    2  A    between atoms: C_2  and  C_3
REMARK    3  A    between atoms: C_2  and  C_4
REMARK    4  A    between atoms: C_4  and  N_5
REMARK    5  A    between atoms: C_6  and  C_8
REMARK    6  A    between atoms: C_11  and  C_13
REMARK    7  A    between atoms: C_13  and  N_14
REMARK    8  A    between atoms: N_14  and  C_15
REMARK    9  A    between atoms: N_14  and  C_27
REMARK   10  A    between atoms: C_15  and  C_16
REMARK   11  A    between atoms: C_16  and  C_17
REMARK   12  A    between atoms: C_27  and  C_28
REMARK                            x       y       z     vdW  Elec       q    Type
REMARK                         _______ _______ _______ _____ _____    ______ ____
ROOT
ATOM      1  N   UNL     1       7.804   0.549   0.125  0.00  0.00    -0.289 NA
ENDROOT
BRANCH   1   2
ATOM      2  C   UNL     1       7.181   1.318  -0.960  0.00  0.00    +0.181 C 
BRANCH   2   6
ATOM      3  C   UNL     1       4.733  -0.761  -2.635  0.00  0.00    +0.164 A 
ATOM      4  C   UNL     1       5.822  -0.984  -3.420  0.00  0.00    +0.230 A 
ATOM      5  O   UNL     1       6.829  -0.260  -2.907  0.00  0.00    -0.446 OA
ATOM      6  C   UNL     1       6.370   0.393  -1.831  0.00  0.00    +0.210 A 
ATOM      7  N   UNL     1       5.114   0.107  -1.659  0.00  0.00    -0.208 NA
BRANCH   3   9
ATOM      8  N   UNL     1       2.399  -1.027  -1.956  0.00  0.00    -0.310 N 
ATOM      9  C   UNL     1       3.390  -1.344  -2.812  0.00  0.00    +0.266 C 
ATOM     10  O   UNL     1       3.178  -2.112  -3.731  0.00  0.00    -0.268 OA
ATOM     11  H   UNL     1       2.569  -0.415  -1.223  0.00  0.00    +0.149 HD
BRANCH   8  12
ATOM     12  C   UNL     1       1.065  -1.607  -2.132  0.00  0.00    +0.107 C 
BRANCH  12  14
ATOM     13  C   UNL     1      -0.055   0.422  -1.200  0.00  0.00    +0.009 C 
ATOM     14  C   UNL     1       0.134  -1.087  -1.035  0.00  0.00    -0.000 C 
ATOM     15  C   UNL     1      -1.222  -1.786  -1.144  0.00  0.00    +0.009 C 
ENDBRANCH  12  14
ENDBRANCH   8  12
ENDBRANCH   3   9
ENDBRANCH   2   6
ENDBRANCH   1   2
BRANCH   1  16
ATOM     16  C   UNL     1       8.786   1.364   0.852  0.00  0.00    +0.090 C 
BRANCH  16  17
ATOM     17  C   UNL     1      10.058   1.499   0.012  0.00  0.00    +0.052 C 
BRANCH  17  18
ATOM     18  C   UNL     1      11.112   2.224   0.809  0.00  0.00    -0.021 A 
ATOM     19  C   UNL     1      11.414   3.530   0.730  0.00  0.00    +0.087 A 
ATOM     20  N   UNL     1      12.423   3.829   1.604  0.00  0.00    -0.360 N 
ATOM     21  H   UNL     1      12.812   4.709   1.726  0.00  0.00    +0.165 HD
ATOM     22  C   UNL     1      12.804   2.694   2.285  0.00  0.00    +0.047 A 
ATOM     23  C   UNL     1      11.995   1.641   1.821  0.00  0.00    +0.003 A 
ATOM     24  C   UNL     1      12.156   0.356   2.344  0.00  0.00    +0.010 A 
ATOM     25  C   UNL     1      13.097   0.130   3.308  0.00  0.00    +0.001 A 
ATOM     26  C   UNL     1      13.895   1.166   3.772  0.00  0.00    +0.002 A 
ATOM     27  C   UNL     1      13.760   2.439   3.263  0.00  0.00    +0.026 A 
ENDBRANCH  17  18
ENDBRANCH  16  17
ENDBRANCH   1  16
BRANCH   1  28
ATOM     28  C   UNL     1       6.788   0.010   1.039  0.00  0.00    +0.120 C 
BRANCH  28  29
ATOM     29  C   UNL     1       7.400  -1.074   1.888  0.00  0.00    -0.030 A 
ATOM     30  C   UNL     1       7.481  -2.366   1.404  0.00  0.00    +0.009 A 
ATOM     31  C   UNL     1       8.042  -3.364   2.179  0.00  0.00    +0.050 A 
ATOM     32  C   UNL     1       8.524  -3.071   3.444  0.00  0.00    +0.166 A 
ATOM     33  C   UNL     1       8.443  -1.769   3.932  0.00  0.00    +0.167 A 
ATOM     34  C   UNL     1       7.884  -0.773   3.147  0.00  0.00    +0.054 A 
ATOM     35  O   UNL     1       8.980  -1.739   5.186  0.00  0.00    -0.453 OA
ATOM     36  C   UNL     1       9.018  -3.111   5.621  0.00  0.00    +0.466 C 
ATOM     37  O   UNL     1       9.113  -3.857   4.393  0.00  0.00    -0.453 OA
ENDBRANCH  28  29
ENDBRANCH   1  28
TORSDOF 10
