REMARK  Name = ZINC05047398
REMARK  8 active torsions:
REMARK  status: ('A' for Active; 'I' for Inactive)
REMARK    1  A    between atoms: C_1  and  C_2
REMARK    2  A    between atoms: C_2  and  C_3
REMARK    3  A    between atoms: C_3  and  C_28
REMARK    4  A    between atoms: N_17  and  C_18
REMARK    5  A    between atoms: C_18  and  C_19
REMARK    6  A    between atoms: C_23  and  S_24
REMARK    7  A    between atoms: S_24  and  C_25
REMARK    8  A    between atoms: C_25  and  C_26
REMARK                            x       y       z     vdW  Elec       q    Type
REMARK                         _______ _______ _______ _____ _____    ______ ____
ROOT
ATOM      1  C   UNL     1      -1.169   1.369  -1.859  0.00  0.00    +0.004 C 
ATOM      2  C   UNL     1      -0.152   1.221  -0.731  0.00  0.00    +0.047 C 
ATOM      3  C   UNL     1      -0.766   1.638   0.579  0.00  0.00    -0.037 A 
ATOM      4  C   UNL     1      -0.423   0.993   1.750  0.00  0.00    +0.004 A 
ATOM      5  C   UNL     1      -0.991   1.389   2.949  0.00  0.00    +0.000 A 
ATOM      6  C   UNL     1      -1.899   2.432   2.984  0.00  0.00    +0.001 A 
ATOM      7  C   UNL     1      -2.248   3.087   1.820  0.00  0.00    +0.010 A 
ATOM      8  C   UNL     1      -1.681   2.691   0.610  0.00  0.00    +0.002 A 
ATOM      9  C   UNL     1      -2.036   3.369  -0.653  0.00  0.00    +0.061 A 
ATOM     10  C   UNL     1      -1.787   2.741  -1.841  0.00  0.00    +0.048 A 
ATOM     11  C   UNL     1      -2.113   3.385  -3.047  0.00  0.00    +0.266 A 
ATOM     12  O   UNL     1      -1.887   2.835  -4.111  0.00  0.00    -0.267 OA
ATOM     13  N   UNL     1      -2.676   4.609  -3.028  0.00  0.00    -0.222 N 
ATOM     14  C   UNL     1      -2.930   5.236  -1.835  0.00  0.00    +0.240 A 
ATOM     15  N   UNL     1      -2.608   4.614  -0.641  0.00  0.00    -0.305 N 
ATOM     16  N   UNL     1      -3.476   6.399  -2.098  0.00  0.00    -0.109 NA
ATOM     17  N   UNL     1      -3.575   6.528  -3.489  0.00  0.00    -0.120 NA
ATOM     18  C   UNL     1      -3.088   5.440  -4.035  0.00  0.00    +0.200 A 
ATOM     19  C   UNL     1      -0.467   1.152  -3.202  0.00  0.00    +0.016 C 
ENDROOT
BRANCH   1  21
ATOM     20  C   UNL     1      -1.649  -1.079  -1.737  0.00  0.00    +0.005 C 
ATOM     21  C   UNL     1      -2.268   0.319  -1.689  0.00  0.00    +0.008 C 
ENDBRANCH   1  21
BRANCH  15  22
ATOM     22  C   UNL     1      -2.879   5.285   0.633  0.00  0.00    +0.152 C 
BRANCH  22  23
ATOM     23  C   UNL     1      -4.298   5.003   1.058  0.00  0.00    -0.013 C 
ATOM     24  C   UNL     1      -4.557   4.683   2.301  0.00  0.00    +0.005 C 
ENDBRANCH  22  23
ENDBRANCH  15  22
BRANCH  18  25
ATOM     25  S   UNL     1      -2.983   5.107  -5.762  0.00  0.00    -0.081 S 
BRANCH  25  26
ATOM     26  C   UNL     1      -3.688   6.587  -6.539  0.00  0.00    +0.104 C 
BRANCH  26  27
ATOM     27  C   UNL     1      -3.659   6.430  -8.037  0.00  0.00    -0.023 C 
ATOM     28  C   UNL     1      -4.780   6.364  -8.711  0.00  0.00    +0.005 C 
ENDBRANCH  26  27
ENDBRANCH  25  26
ENDBRANCH  18  25
TORSDOF 6
