REMARK  Name = ZINC06301816
REMARK  9 active torsions:
REMARK  status: ('A' for Active; 'I' for Inactive)
REMARK    1  A    between atoms: C_1  and  C_2
REMARK    2  A    between atoms: C_4  and  C_35
REMARK    3  A    between atoms: C_7  and  C_14
REMARK    4  A    between atoms: C_14  and  C_16
REMARK    5  A    between atoms: C_14  and  N_66
REMARK    6  A    between atoms: N_20  and  C_21
REMARK    7  A    between atoms: C_27  and  N_66
REMARK    8  A    between atoms: C_28  and  C_29
REMARK    9  A    between atoms: C_28  and  N_66
REMARK                            x       y       z     vdW  Elec       q    Type
REMARK                         _______ _______ _______ _____ _____    ______ ____
ROOT
ATOM      1  C   UNL     1      -3.602   6.193  -0.075  0.00  0.00    +0.039 C 
ENDROOT
BRANCH   1   8
ATOM      2  C   UNL     1       2.327   1.065  -1.548  0.00  0.00    +0.044 C 
ATOM      3  C   UNL     1       1.065   1.857  -1.324  0.00  0.00    -0.048 A 
ATOM      4  C   UNL     1      -0.170   1.250  -1.515  0.00  0.00    +0.007 A 
ATOM      5  C   UNL     1      -1.326   1.951  -1.322  0.00  0.00    -0.041 A 
ATOM      6  C   UNL     1      -1.266   3.289  -0.918  0.00  0.00    +0.002 A 
ATOM      7  C   UNL     1      -2.486   4.068  -0.696  0.00  0.00    +0.018 A 
ATOM      8  C   UNL     1      -2.366   5.363  -0.312  0.00  0.00    +0.011 A 
ATOM      9  C   UNL     1      -1.089   5.936  -0.131  0.00  0.00    +0.251 A 
ATOM     10  O   UNL     1      -1.005   7.101   0.215  0.00  0.00    -0.268 OA
ATOM     11  N   UNL     1       0.036   5.228  -0.332  0.00  0.00    -0.322 N 
ATOM     12  H   UNL     1       0.898   5.653  -0.198  0.00  0.00    +0.169 HD
ATOM     13  C   UNL     1      -0.017   3.908  -0.724  0.00  0.00    +0.050 A 
ATOM     14  C   UNL     1       1.147   3.175  -0.932  0.00  0.00    +0.029 A 
ATOM     15  C   UNL     1      -2.660   1.284  -1.538  0.00  0.00    +0.044 C 
ENDBRANCH   1   8
BRANCH   1  16
ATOM     16  C   UNL     1      -3.673   7.292  -1.104  0.00  0.00    +0.143 A 
ATOM     17  N   UNL     1      -2.998   8.415  -1.098  0.00  0.00    -0.115 NA
ATOM     18  N   UNL     1      -3.335   9.088  -2.144  0.00  0.00    -0.023 NA
ATOM     19  N   UNL     1      -4.208   8.423  -2.817  0.00  0.00    -0.044 NA
ATOM     20  N   UNL     1      -4.439   7.308  -2.211  0.00  0.00    -0.227 N 
BRANCH  20  21
ATOM     21  C   UNL     1      -5.364   6.257  -2.645  0.00  0.00    +0.111 C 
ATOM     22  C   UNL     1      -4.938   5.740  -4.020  0.00  0.00    +0.027 C 
ATOM     23  C   UNL     1      -5.904   4.643  -4.473  0.00  0.00    +0.002 C 
ATOM     24  C   UNL     1      -7.321   5.214  -4.559  0.00  0.00    +0.000 C 
ATOM     25  C   UNL     1      -7.746   5.732  -3.183  0.00  0.00    +0.002 C 
ATOM     26  C   UNL     1      -6.780   6.829  -2.731  0.00  0.00    +0.027 C 
ENDBRANCH  20  21
ENDBRANCH   1  16
BRANCH   1  28
ATOM     27  C   UNL     1      -4.700   7.660   1.508  0.00  0.00    -0.094 C 
ATOM     28  N   UNL     1      -3.522   6.800   1.270  0.00  0.00    +0.390 N 
ATOM     29  H   UNL     1      -2.673   7.374   1.327  0.00  0.00    -0.080 HD
BRANCH  28  30
ATOM     30  C   UNL     1      -3.454   5.740   2.299  0.00  0.00    -0.042 C 
BRANCH  30  31
ATOM     31  C   UNL     1      -3.152   6.376   3.631  0.00  0.00    -0.064 A 
ATOM     32  C   UNL     1      -1.841   6.553   4.031  0.00  0.00    +0.002 A 
ATOM     33  C   UNL     1      -1.564   7.141   5.252  0.00  0.00    +0.000 A 
ATOM     34  C   UNL     1      -2.599   7.540   6.077  0.00  0.00    +0.000 A 
ATOM     35  C   UNL     1      -3.910   7.357   5.680  0.00  0.00    +0.000 A 
ATOM     36  C   UNL     1      -4.187   6.775   4.457  0.00  0.00    +0.002 A 
ENDBRANCH  30  31
ENDBRANCH  28  30
ENDBRANCH   1  28
TORSDOF 6
