REMARK  Name = ZINC09729744
REMARK  9 active torsions:
REMARK  status: ('A' for Active; 'I' for Inactive)
REMARK    1  A    between atoms: C_1  and  C_2
REMARK    2  A    between atoms: C_2  and  C_4
REMARK    3  A    between atoms: C_2  and  N_63
REMARK    4  A    between atoms: C_7  and  S_16
REMARK    5  A    between atoms: N_8  and  C_9
REMARK    6  A    between atoms: S_16  and  C_17
REMARK    7  A    between atoms: C_17  and  C_18
REMARK    8  A    between atoms: N_20  and  C_21
REMARK    9  A    between atoms: C_21  and  C_22
REMARK                            x       y       z     vdW  Elec       q    Type
REMARK                         _______ _______ _______ _____ _____    ______ ____
ROOT
ATOM      1  C   UNL     1      12.480  -2.905  -1.623  0.00  0.00    +0.125 A 
ATOM      2  N   UNL     1      11.345  -2.853  -2.261  0.00  0.00    -0.135 NA
ATOM      3  N   UNL     1      10.405  -2.494  -1.462  0.00  0.00    -0.122 NA
ATOM      4  C   UNL     1      10.891  -2.296  -0.259  0.00  0.00    +0.197 A 
ATOM      5  N   UNL     1      12.234  -2.547  -0.324  0.00  0.00    -0.275 N 
ENDROOT
BRANCH   5   6
ATOM      6  C   UNL     1      13.165  -2.459   0.723  0.00  0.00    +0.050 A 
ATOM      7  C   UNL     1      14.182  -1.516   0.670  0.00  0.00    +0.029 A 
ATOM      8  C   UNL     1      15.093  -1.427   1.704  0.00  0.00    +0.040 A 
ATOM      9  C   UNL     1      15.000  -2.286   2.787  0.00  0.00    +0.124 A 
ATOM     10  C   UNL     1      13.989  -3.231   2.838  0.00  0.00    +0.040 A 
ATOM     11  C   UNL     1      13.072  -3.319   1.809  0.00  0.00    +0.029 A 
ATOM     12  F   UNL     1      15.896  -2.201   3.794  0.00  0.00    -0.205 F 
ENDBRANCH   5   6
BRANCH   1  14
ATOM     13  C   UNL     1      14.349  -2.127  -3.055  0.00  0.00    -0.005 C 
ATOM     14  C   UNL     1      13.817  -3.284  -2.207  0.00  0.00    -0.002 C 
BRANCH  14  20
ATOM     15  C   UNL     1      13.060  -5.582  -2.290  0.00  0.00    -0.078 C 
ATOM     16  C   UNL     1      12.782  -6.756  -3.230  0.00  0.00    -0.019 C 
ATOM     17  C   UNL     1      14.095  -7.212  -3.873  0.00  0.00    -0.004 C 
ATOM     18  C   UNL     1      14.727  -6.031  -4.616  0.00  0.00    -0.019 C 
ATOM     19  C   UNL     1      14.949  -4.877  -3.635  0.00  0.00    -0.078 C 
ATOM     20  N   UNL     1      13.645  -4.470  -3.070  0.00  0.00    +0.386 N 
ATOM     21  H   UNL     1      13.008  -4.233  -3.840  0.00  0.00    -0.081 HD
ENDBRANCH  14  20
ENDBRANCH   1  14
BRANCH   4  22
ATOM     22  S   UNL     1       9.986  -1.794   1.167  0.00  0.00    -0.076 S 
BRANCH  22  23
ATOM     23  C   UNL     1       8.326  -1.665   0.457  0.00  0.00    +0.173 C 
BRANCH  23  24
ATOM     24  C   UNL     1       7.355  -1.236   1.526  0.00  0.00    +0.224 C 
ATOM     25  O   UNL     1       7.746  -1.037   2.657  0.00  0.00    -0.275 OA
ATOM     26  N   UNL     1       6.051  -1.073   1.226  0.00  0.00    -0.311 N 
ATOM     27  H   UNL     1       5.738  -1.231   0.322  0.00  0.00    +0.149 HD
BRANCH  26  28
ATOM     28  C   UNL     1       5.107  -0.655   2.265  0.00  0.00    +0.139 C 
BRANCH  28  29
ATOM     29  C   UNL     1       3.725  -0.548   1.674  0.00  0.00    -0.027 A 
ATOM     30  C   UNL     1       2.885  -1.646   1.677  0.00  0.00    +0.009 A 
ATOM     31  C   UNL     1       1.617  -1.553   1.135  0.00  0.00    +0.050 A 
ATOM     32  C   UNL     1       1.183  -0.356   0.589  0.00  0.00    +0.166 A 
ATOM     33  C   UNL     1       2.028   0.751   0.586  0.00  0.00    +0.167 A 
ATOM     34  C   UNL     1       3.298   0.650   1.131  0.00  0.00    +0.054 A 
ATOM     35  O   UNL     1       1.376   1.797  -0.001  0.00  0.00    -0.453 OA
ATOM     36  C   UNL     1      -0.018   1.436   0.010  0.00  0.00    +0.466 C 
ATOM     37  O   UNL     1       0.002  -0.004   0.002  0.00  0.00    -0.453 OA
ENDBRANCH  28  29
ENDBRANCH  26  28
ENDBRANCH  23  24
ENDBRANCH  22  23
ENDBRANCH   4  22
TORSDOF 8
