REMARK  Name = ZINC12635702
REMARK  13 active torsions:
REMARK  status: ('A' for Active; 'I' for Inactive)
REMARK    1  A    between atoms: C_1  and  C_2
REMARK    2  A    between atoms: C_2  and  N_70
REMARK    3  A    between atoms: C_6  and  C_8
REMARK    4  A    between atoms: C_8  and  N_9
REMARK    5  A    between atoms: N_9  and  C_10
REMARK    6  A    between atoms: N_9  and  C_25
REMARK    7  A    between atoms: C_10  and  C_11
REMARK    8  A    between atoms: C_16  and  C_24
REMARK    9  A    between atoms: C_17  and  C_23
REMARK   10  A    between atoms: C_25  and  N_27
REMARK   11  A    between atoms: N_27  and  C_28
REMARK   12  A    between atoms: C_28  and  C_30
REMARK   13  A    between atoms: C_28  and  C_31
REMARK                            x       y       z     vdW  Elec       q    Type
REMARK                         _______ _______ _______ _____ _____    ______ ____
ROOT
ATOM      1  N   UNL     1      -2.403  -0.099  -0.102  0.00  0.00    -0.310 N 
ENDROOT
BRANCH   1   2
ATOM      2  C   UNL     1      -3.063  -0.561  -1.182  0.00  0.00    +0.134 C 
ATOM      3  S   UNL     1      -4.270   0.400  -1.923  0.00  0.00    -0.019 S 
BRANCH   2   4
ATOM      4  N   UNL     1      -2.773  -1.780  -1.678  0.00  0.00    -0.320 N 
ATOM      5  H   UNL     1      -2.090  -2.325  -1.257  0.00  0.00    +0.148 HD
BRANCH   4   6
ATOM      6  C   UNL     1      -3.491  -2.283  -2.852  0.00  0.00    +0.099 C 
ATOM      7  C   UNL     1      -2.814  -1.766  -4.123  0.00  0.00    +0.033 C 
BRANCH   6   8
ATOM      8  C   UNL     1      -3.469  -3.790  -2.847  0.00  0.00    -0.028 A 
ATOM      9  C   UNL     1      -2.320  -4.463  -2.474  0.00  0.00    +0.005 A 
ATOM     10  C   UNL     1      -2.301  -5.845  -2.466  0.00  0.00    +0.000 A 
ATOM     11  C   UNL     1      -3.427  -6.554  -2.840  0.00  0.00    +0.000 A 
ATOM     12  C   UNL     1      -4.574  -5.881  -3.218  0.00  0.00    +0.000 A 
ATOM     13  C   UNL     1      -4.595  -4.499  -3.222  0.00  0.00    +0.005 A 
ENDBRANCH   6   8
ENDBRANCH   4   6
ENDBRANCH   2   4
ENDBRANCH   1   2
BRANCH   1  14
ATOM     14  C   UNL     1      -1.370  -0.921   0.533  0.00  0.00    +0.092 C 
BRANCH  14  18
ATOM     15  C   UNL     1      -3.310  -3.495   2.341  0.00  0.00    -0.078 C 
ATOM     16  C   UNL     1      -1.864  -3.930   2.661  0.00  0.00    -0.020 C 
ATOM     17  C   UNL     1      -0.985  -2.729   2.255  0.00  0.00    -0.016 C 
ATOM     18  C   UNL     1      -1.974  -1.669   1.724  0.00  0.00    -0.051 C 
ATOM     19  N   UNL     1      -3.141  -2.463   1.321  0.00  0.00    +0.382 N 
ATOM     20  H   UNL     1      -2.971  -2.898   0.406  0.00  0.00    -0.081 HD
BRANCH  19  22
ATOM     21  C   UNL     1      -5.466  -2.323   0.468  0.00  0.00    -0.017 C 
ATOM     22  C   UNL     1      -4.358  -1.596   1.234  0.00  0.00    -0.082 C 
ENDBRANCH  19  22
ENDBRANCH  14  18
ENDBRANCH   1  14
BRANCH   1  23
ATOM     23  C   UNL     1      -2.718   1.227   0.438  0.00  0.00    +0.147 C 
BRANCH  23  24
ATOM     24  C   UNL     1      -1.781   2.246  -0.157  0.00  0.00    +0.035 A 
ATOM     25  C   UNL     1      -2.153   2.945  -1.258  0.00  0.00    +0.020 A 
ATOM     26  C   UNL     1      -1.220   3.928  -1.811  0.00  0.00    -0.001 A 
ATOM     27  C   UNL     1      -1.548   4.680  -2.944  0.00  0.00    +0.010 A 
ATOM     28  C   UNL     1      -0.655   5.589  -3.436  0.00  0.00    +0.004 A 
ATOM     29  C   UNL     1       0.575   5.775  -2.820  0.00  0.00    -0.046 A 
ATOM     30  C   UNL     1       0.919   5.046  -1.702  0.00  0.00    -0.024 A 
ATOM     31  C   UNL     1       0.026   4.114  -1.183  0.00  0.00    +0.052 A 
ATOM     32  N   UNL     1       0.344   3.372  -0.066  0.00  0.00    -0.322 N 
ATOM     33  H   UNL     1       1.204   3.501   0.365  0.00  0.00    +0.169 HD
ATOM     34  C   UNL     1      -0.521   2.475   0.438  0.00  0.00    +0.254 A 
ATOM     35  O   UNL     1      -0.208   1.840   1.430  0.00  0.00    -0.268 OA
ATOM     36  C   UNL     1       2.258   5.259  -1.043  0.00  0.00    +0.046 C 
ATOM     37  C   UNL     1       1.544   6.784  -3.380  0.00  0.00    +0.044 C 
ENDBRANCH  23  24
ENDBRANCH   1  23
TORSDOF 9
