REMARK  Name = ZINC09712905
REMARK  6 active torsions:
REMARK  status: ('A' for Active; 'I' for Inactive)
REMARK    1  A    between atoms: C_1  and  C_2
REMARK    2  A    between atoms: C_12  and  C_14
REMARK    3  A    between atoms: C_14  and  S_15
REMARK    4  A    between atoms: S_15  and  C_16
REMARK    5  A    between atoms: C_19  and  C_22
REMARK    6  A    between atoms: C_25  and  N_28
REMARK                            x       y       z     vdW  Elec       q    Type
REMARK                         _______ _______ _______ _____ _____    ______ ____
ROOT
ATOM      1  C   UNL     1      -6.852   6.146   0.070  0.00  0.00    +0.120 A 
ATOM      2  C   UNL     1      -5.623   6.811   0.068  0.00  0.00    +0.039 A 
ATOM      3  C   UNL     1      -4.472   6.047   0.058  0.00  0.00    +0.033 A 
ATOM      4  C   UNL     1      -4.608   4.654   0.051  0.00  0.00    +0.093 A 
ATOM      5  N   UNL     1      -5.818   4.110   0.049  0.00  0.00    -0.148 NA
ATOM      6  N   UNL     1      -6.886   4.821   0.063  0.00  0.00    -0.142 NA
ENDROOT
BRANCH   4   7
ATOM      7  C   UNL     1      -3.404   3.788   0.040  0.00  0.00    +0.002 A 
ATOM      8  C   UNL     1      -3.541   2.401   0.034  0.00  0.00    +0.012 A 
ATOM      9  C   UNL     1      -2.420   1.599   0.023  0.00  0.00    +0.027 A 
ATOM     10  C   UNL     1      -1.154   2.172   0.020  0.00  0.00    +0.047 A 
ATOM     11  C   UNL     1      -1.015   3.554   0.032  0.00  0.00    +0.027 A 
ATOM     12  C   UNL     1      -2.133   4.361   0.037  0.00  0.00    +0.012 A 
BRANCH  10  13
ATOM     13  N   UNL     1      -0.016   1.354   0.009  0.00  0.00    -0.306 N 
ATOM     14  C   UNL     1       1.289   1.774  -0.001  0.00  0.00    +0.112 A 
ATOM     15  C   UNL     1       2.055   0.666  -0.014  0.00  0.00    +0.130 A 
ATOM     16  N   UNL     1       1.245  -0.403  -0.012  0.00  0.00    -0.244 NA
ATOM     17  C   UNL     1       0.002  -0.004   0.002  0.00  0.00    +0.204 A 
ENDBRANCH  10  13
ENDBRANCH   4   7
BRANCH   1  18
ATOM     18  S   UNL     1      -8.354   7.068   0.082  0.00  0.00    -0.095 S 
BRANCH  18  19
ATOM     19  C   UNL     1      -9.648   5.797   0.082  0.00  0.00    +0.172 C 
BRANCH  19  31
ATOM     20  C   UNL     1     -19.138   9.036   0.144  0.00  0.00    +0.044 C 
ATOM     21  C   UNL     1     -17.672   8.684   0.136  0.00  0.00    -0.049 A 
ATOM     22  C   UNL     1     -16.712   9.685   0.136  0.00  0.00    +0.005 A 
ATOM     23  C   UNL     1     -15.373   9.393   0.127  0.00  0.00    +0.029 A 
ATOM     24  C   UNL     1     -14.926   8.051   0.119  0.00  0.00    +0.080 A 
ATOM     25  C   UNL     1     -15.933   7.058   0.119  0.00  0.00    +0.041 A 
ATOM     26  C   UNL     1     -17.272   7.361   0.127  0.00  0.00    +0.020 A 
ATOM     27  S   UNL     1     -14.983   5.557   0.100  0.00  0.00    -0.052 S 
ATOM     28  C   UNL     1     -13.365   6.315   0.103  0.00  0.00    +0.165 A 
ATOM     29  N   UNL     1     -13.655   7.595   0.110  0.00  0.00    -0.225 NA
ATOM     30  N   UNL     1     -12.120   5.706   0.094  0.00  0.00    -0.264 N 
ATOM     31  C   UNL     1     -11.002   6.459   0.092  0.00  0.00    +0.229 C 
ATOM     32  O   UNL     1     -11.085   7.669   0.099  0.00  0.00    -0.275 OA
ATOM     33  H   UNL     1     -12.053   4.739   0.088  0.00  0.00    +0.157 HD
ENDBRANCH  19  31
ENDBRANCH  18  19
ENDBRANCH   1  18
TORSDOF 5
