REMARK  Name = ZINC67388266
REMARK  2 active torsions:
REMARK  status: ('A' for Active; 'I' for Inactive)
REMARK    1  A    between atoms: C_4  and  C_7
REMARK    2  A    between atoms: N_17  and  C_18
REMARK                            x       y       z     vdW  Elec       q    Type
REMARK                         _______ _______ _______ _____ _____    ______ ____
ROOT
ATOM      1  C   UNL     1       3.696  -0.712  -0.036  0.00  0.00    +0.021 C 
ATOM      2  C   UNL     1       3.804  -1.542   1.239  0.00  0.00    +0.010 C 
ATOM      3  C   UNL     1       5.259  -1.749   1.580  0.00  0.00    +0.020 C 
ATOM      4  C   UNL     1       5.770  -3.057   0.948  0.00  0.00    +0.109 C 
ATOM      5  N   UNL     1       5.249  -3.255  -0.418  0.00  0.00    -0.286 N 
ATOM      6  C   UNL     1       5.164  -2.184  -1.386  0.00  0.00    +0.110 C 
ATOM      7  C   UNL     1       3.780  -1.498  -1.277  0.00  0.00    +0.027 C 
ATOM      8  C   UNL     1       4.835  -4.486  -0.779  0.00  0.00    +0.303 C 
ATOM      9  O   UNL     1       4.982  -5.424  -0.020  0.00  0.00    -0.253 OA
ATOM     10  N   UNL     1       4.258  -4.677  -1.982  0.00  0.00    -0.292 N 
ATOM     11  H   UNL     1       4.209  -3.946  -2.618  0.00  0.00    +0.151 HD
ENDROOT
BRANCH  10  12
ATOM     12  C   UNL     1       3.703  -5.988  -2.329  0.00  0.00    +0.106 C 
ATOM     13  C   UNL     1       3.704  -6.149  -3.847  0.00  0.00    +0.027 C 
ATOM     14  C   UNL     1       2.918  -7.419  -4.195  0.00  0.00    +0.008 C 
ATOM     15  C   UNL     1       1.445  -7.170  -3.879  0.00  0.00    +0.054 C 
ATOM     16  C   UNL     1       1.283  -6.634  -2.479  0.00  0.00    +0.024 A 
ATOM     17  C   UNL     1       2.303  -6.095  -1.783  0.00  0.00    -0.008 A 
ATOM     18  C   UNL     1       2.075  -5.602  -0.483  0.00  0.00    +0.012 A 
ATOM     19  C   UNL     1       0.831  -5.676   0.064  0.00  0.00    +0.070 A 
ATOM     20  C   UNL     1      -0.209  -6.251  -0.687  0.00  0.00    +0.249 A 
ATOM     21  O   UNL     1      -1.332  -6.331  -0.216  0.00  0.00    -0.268 OA
ATOM     22  N   UNL     1       0.038  -6.712  -1.922  0.00  0.00    -0.326 N 
ATOM     23  H   UNL     1      -0.685  -7.108  -2.432  0.00  0.00    +0.169 HD
ENDBRANCH  10  12
BRANCH   1  27
ATOM     24  C   UNL     1      -0.039   1.360   0.004  0.00  0.00    +0.000 A 
ATOM     25  C   UNL     1       1.146   2.072   0.000  0.00  0.00    +0.000 A 
ATOM     26  C   UNL     1       2.354   1.401  -0.013  0.00  0.00    +0.004 A 
ATOM     27  C   UNL     1       2.378   0.019  -0.021  0.00  0.00    -0.044 A 
ATOM     28  C   UNL     1       1.193  -0.693  -0.016  0.00  0.00    +0.004 A 
ATOM     29  C   UNL     1      -0.016  -0.022  -0.005  0.00  0.00    +0.000 A 
ENDBRANCH   1  27
TORSDOF 2
