REMARK  Name = ZINC33250911
REMARK  13 active torsions:
REMARK  status: ('A' for Active; 'I' for Inactive)
REMARK    1  A    between atoms: C_1  and  C_2
REMARK    2  A    between atoms: C_2  and  C_3
REMARK    3  A    between atoms: C_3  and  C_5
REMARK    4  A    between atoms: C_3  and  N_6
REMARK    5  A    between atoms: C_7  and  C_9
REMARK    6  A    between atoms: N_14  and  S_16
REMARK    7  A    between atoms: S_16  and  C_19
REMARK    8  A    between atoms: C_20  and  C_35
REMARK    9  A    between atoms: C_23  and  C_24
REMARK   10  A    between atoms: C_25  and  C_26
REMARK   11  A    between atoms: C_27  and  C_34
REMARK   12  A    between atoms: C_29  and  C_33
REMARK   13  A    between atoms: C_31  and  C_32
REMARK                            x       y       z     vdW  Elec       q    Type
REMARK                         _______ _______ _______ _____ _____    ______ ____
ROOT
ATOM      1  S   UNL     1      -2.550   4.688   0.052  0.00  0.00    +0.066 S 
ATOM      2  O   UNL     1      -2.485   5.364   1.300  0.00  0.00    -0.153 OA
ATOM      3  O   UNL     1      -2.509   5.377  -1.190  0.00  0.00    -0.153 OA
ENDROOT
BRANCH   1   8
ATOM      4  C   UNL     1      -0.729   1.579   1.268  0.00  0.00    +0.091 C 
ATOM      5  C   UNL     1      -0.013   1.086   0.008  0.00  0.00    +0.015 C 
ATOM      6  C   UNL     1      -0.752   1.593  -1.232  0.00  0.00    +0.018 C 
ATOM      7  C   UNL     1      -0.741   3.124  -1.238  0.00  0.00    +0.109 C 
ATOM      8  N   UNL     1      -1.296   3.606   0.034  0.00  0.00    -0.176 NA
ATOM      9  C   UNL     1      -0.717   3.111   1.290  0.00  0.00    +0.122 C 
BRANCH   4  11
ATOM     10  N   UNL     1       0.098  -0.276   2.680  0.00  0.00    -0.312 N 
ATOM     11  C   UNL     1      -0.018   1.053   2.488  0.00  0.00    +0.218 C 
ATOM     12  O   UNL     1       0.448   1.825   3.298  0.00  0.00    -0.275 OA
ATOM     13  H   UNL     1      -0.326  -0.977   1.945  0.00  0.00    +0.149 HD
BRANCH  10  14
ATOM     14  C   UNL     1       0.788  -0.788   3.866  0.00  0.00    +0.070 C 
ATOM     15  C   UNL     1       2.293  -0.843   3.597  0.00  0.00    +0.028 C 
BRANCH  14  17
ATOM     16  C   UNL     1      -1.202  -2.120   4.579  0.00  0.00    +0.005 C 
ATOM     17  C   UNL     1       0.276  -2.193   4.188  0.00  0.00    +0.018 C 
ENDBRANCH  14  17
ENDBRANCH  10  14
ENDBRANCH   4  11
ENDBRANCH   1   8
BRANCH   1  18
ATOM     18  C   UNL     1      -4.043   3.754   0.061  0.00  0.00    +0.174 A 
ATOM     19  C   UNL     1      -4.794   3.305  -1.043  0.00  0.00    +0.107 A 
ATOM     20  N   UNL     1      -5.815   2.654  -0.561  0.00  0.00    -0.081 NA
ATOM     21  O   UNL     1      -5.815   2.640   0.648  0.00  0.00    -0.353 OA
ATOM     22  C   UNL     1      -4.752   3.299   1.147  0.00  0.00    +0.187 A 
ATOM     23  C   UNL     1      -4.476   3.530  -2.499  0.00  0.00    +0.071 C 
BRANCH  22  24
ATOM     24  C   UNL     1      -4.417   3.490   2.561  0.00  0.00    +0.051 C 
ATOM     25  C   UNL     1      -5.216   2.980   3.517  0.00  0.00    +0.012 C 
BRANCH  25  26
ATOM     26  C   UNL     1      -4.880   3.172   4.938  0.00  0.00    -0.019 A 
ATOM     27  C   UNL     1      -3.597   2.872   5.403  0.00  0.00    -0.043 A 
ATOM     28  C   UNL     1      -3.288   3.061   6.734  0.00  0.00    +0.007 A 
ATOM     29  C   UNL     1      -4.248   3.534   7.610  0.00  0.00    -0.050 A 
ATOM     30  C   UNL     1      -5.523   3.828   7.158  0.00  0.00    +0.007 A 
ATOM     31  C   UNL     1      -5.845   3.651   5.829  0.00  0.00    -0.043 A 
ATOM     32  C   UNL     1      -7.234   3.971   5.339  0.00  0.00    +0.044 C 
ATOM     33  C   UNL     1      -3.904   3.731   9.064  0.00  0.00    +0.044 C 
ATOM     34  C   UNL     1      -2.551   2.350   4.452  0.00  0.00    +0.044 C 
ENDBRANCH  25  26
ENDBRANCH  22  24
ENDBRANCH   1  18
TORSDOF 7
