REMARK  Name = ZINC36495520
REMARK  16 active torsions:
REMARK  status: ('A' for Active; 'I' for Inactive)
REMARK    1  A    between atoms: C_1  and  C_2
REMARK    2  A    between atoms: C_4  and  C_15
REMARK    3  A    between atoms: C_12  and  C_13
REMARK    4  A    between atoms: C_12  and  C_14
REMARK    5  A    between atoms: N_17  and  C_18
REMARK    6  A    between atoms: N_17  and  C_24
REMARK    7  A    between atoms: C_18  and  C_19
REMARK    8  A    between atoms: C_24  and  C_26
REMARK    9  A    between atoms: C_24  and  C_35
REMARK   10  A    between atoms: C_29  and  O_34
REMARK   11  A    between atoms: C_30  and  O_32
REMARK   12  A    between atoms: O_32  and  C_33
REMARK   13  A    between atoms: N_37  and  C_38
REMARK   14  A    between atoms: C_38  and  C_39
REMARK   15  A    between atoms: C_38  and  C_40
REMARK   16  A    between atoms: C_38  and  C_41
REMARK                            x       y       z     vdW  Elec       q    Type
REMARK                         _______ _______ _______ _____ _____    ______ ____
ROOT
ATOM      1  C   UNL     1      -1.643  -0.985  -2.975  0.00  0.00    +0.220 C 
ATOM      2  O   UNL     1      -2.715  -1.475  -2.692  0.00  0.00    -0.275 OA
ATOM      3  N   UNL     1      -0.666  -1.754  -3.495  0.00  0.00    -0.278 N 
ENDROOT
BRANCH   1   6
ATOM      4  C   UNL     1      -2.893   2.382  -3.501  0.00  0.00    +0.008 C 
ATOM      5  C   UNL     1      -2.718   1.223  -2.526  0.00  0.00    +0.001 C 
ATOM      6  C   UNL     1      -1.403   0.487  -2.748  0.00  0.00    +0.079 C 
ATOM      7  C   UNL     1      -0.399   0.702  -1.621  0.00  0.00    +0.017 C 
ATOM      8  C   UNL     1      -1.083   1.052  -0.299  0.00  0.00    -0.004 C 
ATOM      9  C   UNL     1      -2.490   0.450  -0.153  0.00  0.00    +0.008 C 
ATOM     10  C   UNL     1      -2.925   1.623  -1.070  0.00  0.00    -0.001 C 
ATOM     11  C   UNL     1      -1.810   2.410  -0.386  0.00  0.00    -0.029 C 
ATOM     12  C   UNL     1      -2.206   2.964   0.996  0.00  0.00    +0.011 C 
ATOM     13  C   UNL     1      -1.084   3.469  -1.209  0.00  0.00    +0.011 C 
ENDBRANCH   1   6
BRANCH   3  14
ATOM     14  C   UNL     1       0.677  -1.202  -3.689  0.00  0.00    +0.183 C 
BRANCH  14  15
ATOM     15  C   UNL     1       0.690  -0.336  -4.922  0.00  0.00    +0.122 A 
ATOM     16  C   UNL     1       0.489   0.994  -4.952  0.00  0.00    +0.046 A 
ATOM     17  C   UNL     1       0.588   1.393  -6.304  0.00  0.00    +0.041 A 
ATOM     18  C   UNL     1       0.844   0.283  -7.021  0.00  0.00    +0.195 A 
ATOM     19  O   UNL     1       0.910  -0.760  -6.177  0.00  0.00    -0.466 OA
ENDBRANCH  14  15
ENDBRANCH   3  14
BRANCH   3  20
ATOM     20  C   UNL     1      -0.947  -3.144  -3.865  0.00  0.00    +0.193 C 
BRANCH  20  21
ATOM     21  C   UNL     1      -0.454  -4.063  -2.776  0.00  0.00    -0.015 A 
ATOM     22  C   UNL     1       0.761  -3.819  -2.165  0.00  0.00    +0.010 A 
ATOM     23  C   UNL     1       1.217  -4.659  -1.166  0.00  0.00    +0.049 A 
ATOM     24  C   UNL     1       0.455  -5.748  -0.775  0.00  0.00    +0.158 A 
ATOM     25  C   UNL     1      -0.769  -5.993  -1.391  0.00  0.00    +0.162 A 
ATOM     26  C   UNL     1      -1.222  -5.145  -2.388  0.00  0.00    +0.055 A 
BRANCH  25  27
ATOM     27  O   UNL     1      -1.520  -7.061  -1.010  0.00  0.00    -0.491 OA
ATOM     28  C   UNL     1      -2.766  -7.251  -1.685  0.00  0.00    +0.277 C 
ENDBRANCH  25  27
BRANCH  24  29
ATOM     29  O   UNL     1       0.902  -6.576   0.207  0.00  0.00    -0.503 OA
ATOM     30  H   UNL     1       0.627  -6.315   1.096  0.00  0.00    +0.292 HD
ENDBRANCH  24  29
ENDBRANCH  20  21
BRANCH  20  31
ATOM     31  C   UNL     1      -0.242  -3.472  -5.156  0.00  0.00    +0.238 C 
ATOM     32  O   UNL     1       0.780  -2.891  -5.454  0.00  0.00    -0.273 OA
ATOM     33  N   UNL     1      -0.748  -4.411  -5.980  0.00  0.00    -0.309 N 
ATOM     34  H   UNL     1      -1.565  -4.876  -5.741  0.00  0.00    +0.149 HD
BRANCH  33  35
ATOM     35  C   UNL     1      -0.063  -4.730  -7.235  0.00  0.00    +0.026 C 
ATOM     36  C   UNL     1       1.352  -5.227  -6.932  0.00  0.00    +0.031 C 
ATOM     37  C   UNL     1      -0.839  -5.821  -7.976  0.00  0.00    +0.031 C 
ATOM     38  C   UNL     1       0.013  -3.476  -8.107  0.00  0.00    +0.031 C 
ENDBRANCH  33  35
ENDBRANCH  20  31
ENDBRANCH   3  20
TORSDOF 9
