REMARK  Name = ZINC37100751
REMARK  10 active torsions:
REMARK  status: ('A' for Active; 'I' for Inactive)
REMARK    1  A    between atoms: C_1  and  C_2
REMARK    2  A    between atoms: C_2  and  C_3
REMARK    3  A    between atoms: C_2  and  C_4
REMARK    4  A    between atoms: C_2  and  C_5
REMARK    5  A    between atoms: C_5  and  C_6
REMARK    6  A    between atoms: C_6  and  C_7
REMARK    7  A    between atoms: C_6  and  C_8
REMARK    8  A    between atoms: C_6  and  N_9
REMARK    9  A    between atoms: N_9  and  C_10
REMARK   10  A    between atoms: C_10  and  C_11
REMARK                            x       y       z     vdW  Elec       q    Type
REMARK                         _______ _______ _______ _____ _____    ______ ____
ROOT
ATOM      1  C   UNL     1       3.682   0.308  -2.299  0.00  0.00    -0.046 C 
ENDROOT
BRANCH   1   2
ATOM      2  C   UNL     1       4.386  -0.221  -3.522  0.00  0.00    -0.060 A 
ATOM      3  C   UNL     1       5.131  -1.383  -3.441  0.00  0.00    +0.051 A 
ATOM      4  C   UNL     1       5.779  -1.873  -4.565  0.00  0.00    +0.163 A 
ATOM      5  C   UNL     1       5.676  -1.194  -5.774  0.00  0.00    +0.176 A 
ATOM      6  C   UNL     1       4.928  -0.029  -5.848  0.00  0.00    +0.063 A 
ATOM      7  C   UNL     1       4.280   0.452  -4.725  0.00  0.00    +0.021 A 
ATOM      8 BR   UNL     1       4.787   0.900  -7.489  0.00  0.00    -0.046 Br
ATOM      9  O   UNL     1       6.298  -1.662  -6.890  0.00  0.00    -0.484 OA
ATOM     10  C   UNL     1       7.340  -2.624  -6.692  0.00  0.00    +0.270 C 
ATOM     11  C   UNL     1       6.837  -3.678  -5.695  0.00  0.00    +0.270 C 
ATOM     12  O   UNL     1       6.513  -3.015  -4.468  0.00  0.00    -0.485 OA
ENDBRANCH   1   2
BRANCH   1  13
ATOM     13  N   UNL     1       2.333  -0.268  -2.223  0.00  0.00    +0.385 N 
ATOM     14  H   UNL     1       2.400  -1.273  -2.164  0.00  0.00    -0.085 HD
ATOM     15  H   UNL     1       1.811  -0.013  -3.047  0.00  0.00    -0.085 HD
BRANCH  13  16
ATOM     16  C   UNL     1       1.648   0.248  -1.030  0.00  0.00    -0.073 C 
ATOM     17  C   UNL     1       1.346   1.736  -1.220  0.00  0.00    -0.010 C 
ATOM     18  C   UNL     1       2.545   0.061   0.195  0.00  0.00    -0.010 C 
BRANCH  16  19
ATOM     19  C   UNL     1       0.338  -0.516  -0.825  0.00  0.00    -0.007 C 
BRANCH  19  21
ATOM     20  C   UNL     1       0.519  -1.831  -2.941  0.00  0.00    +0.010 C 
ATOM     21  C   UNL     1      -0.310  -0.793  -2.183  0.00  0.00    -0.039 C 
ATOM     22  C   UNL     1      -0.368   0.504  -2.994  0.00  0.00    +0.010 C 
ATOM     23  C   UNL     1      -1.728  -1.327  -1.972  0.00  0.00    +0.010 C 
ENDBRANCH  19  21
ENDBRANCH  16  19
ENDBRANCH  13  16
ENDBRANCH   1  13
TORSDOF 5
