REMARK  Name = ZINC07147794
REMARK  8 active torsions:
REMARK  status: ('A' for Active; 'I' for Inactive)
REMARK    1  A    between atoms: C_1  and  C_2
REMARK    2  A    between atoms: C_5  and  S_9
REMARK    3  A    between atoms: C_7  and  C_8
REMARK    4  A    between atoms: S_9  and  C_10
REMARK    5  A    between atoms: C_10  and  C_12
REMARK    6  A    between atoms: C_10  and  C_13
REMARK    7  A    between atoms: C_16  and  C_18
REMARK    8  A    between atoms: C_21  and  N_24
REMARK                            x       y       z     vdW  Elec       q    Type
REMARK                         _______ _______ _______ _____ _____    ______ ____
ROOT
ATOM      1  C   UNL     1       5.343   1.663  -0.195  0.00  0.00    +0.231 A 
ATOM      2  N   UNL     1       5.730   0.625  -0.882  0.00  0.00    -0.111 NA
ATOM      3  N   UNL     1       6.979   0.406  -0.663  0.00  0.00    -0.107 NA
ATOM      4  C   UNL     1       7.433   1.298   0.185  0.00  0.00    +0.248 A 
ATOM      5  O   UNL     1       6.404   2.112   0.497  0.00  0.00    -0.419 OA
ENDROOT
BRANCH   4   6
ATOM      6  C   UNL     1       8.815   1.395   0.701  0.00  0.00    +0.039 A 
ATOM      7  C   UNL     1       9.158   2.406   1.599  0.00  0.00    +0.015 A 
ATOM      8  C   UNL     1      10.449   2.488   2.080  0.00  0.00    +0.033 A 
ATOM      9  C   UNL     1      11.403   1.575   1.668  0.00  0.00    +0.126 A 
ATOM     10  C   UNL     1      11.070   0.573   0.774  0.00  0.00    +0.033 A 
ATOM     11  C   UNL     1       9.782   0.478   0.288  0.00  0.00    +0.015 A 
BRANCH   9  12
ATOM     12  N   UNL     1      12.787   1.672   2.184  0.00  0.00    +0.056 N 
ATOM     13  O   UNL     1      13.630   0.871   1.822  0.00  0.00    -0.126 OA
ATOM     14  O   UNL     1      13.083   2.553   2.971  0.00  0.00    -0.126 OA
ENDBRANCH   9  12
ENDBRANCH   4   6
BRANCH   1  15
ATOM     15  C   UNL     1       3.955   2.250  -0.176  0.00  0.00    +0.136 C 
ATOM     16  C   UNL     1       3.711   3.024  -1.473  0.00  0.00    +0.029 C 
BRANCH  15  17
ATOM     17  S   UNL     1       2.736   0.915  -0.030  0.00  0.00    -0.113 S 
BRANCH  17  22
ATOM     18  C   UNL     1      -2.508   3.804   0.738  0.00  0.00    +0.044 C 
ATOM     19  C   UNL     1      -1.199   3.084   0.546  0.00  0.00    -0.047 A 
ATOM     20  C   UNL     1      -0.814   2.677  -0.719  0.00  0.00    +0.005 A 
ATOM     21  C   UNL     1       0.384   2.015  -0.898  0.00  0.00    +0.015 A 
ATOM     22  C   UNL     1       1.205   1.759   0.194  0.00  0.00    +0.009 A 
ATOM     23  C   UNL     1       0.815   2.169   1.463  0.00  0.00    +0.018 A 
ATOM     24  C   UNL     1      -0.387   2.826   1.636  0.00  0.00    -0.046 A 
ATOM     25  C   UNL     1      -0.813   3.267   3.012  0.00  0.00    +0.044 C 
ENDBRANCH  17  22
ENDBRANCH  15  17
ENDBRANCH   1  15
TORSDOF 5
