REMARK  Name = ZINC14465702
REMARK  5 active torsions:
REMARK  status: ('A' for Active; 'I' for Inactive)
REMARK    1  A    between atoms: C_1  and  C_2
REMARK    2  A    between atoms: C_2  and  C_3
REMARK    3  A    between atoms: C_3  and  N_4
REMARK    4  A    between atoms: C_5  and  C_7
REMARK    5  A    between atoms: C_20  and  C_23
REMARK                            x       y       z     vdW  Elec       q    Type
REMARK                         _______ _______ _______ _____ _____    ______ ____
ROOT
ATOM      1  C   UNL     1      -1.555   1.231   0.244  0.00  0.00    +0.037 A 
ATOM      2  C   UNL     1      -1.374   2.617   0.201  0.00  0.00    +0.015 A 
ATOM      3  C   UNL     1      -2.465   3.451   0.142  0.00  0.00    +0.024 A 
ATOM      4  C   UNL     1      -3.756   2.929   0.137  0.00  0.00    +0.031 A 
ATOM      5  C   UNL     1      -3.937   1.538   0.175  0.00  0.00    -0.019 A 
ATOM      6  C   UNL     1      -2.849   0.702   0.233  0.00  0.00    +0.019 A 
ATOM      7  C   UNL     1      -5.325   1.029   0.127  0.00  0.00    +0.049 C 
ATOM      8  C   UNL     1      -5.699  -0.287   0.705  0.00  0.00    -0.023 C 
ATOM      9  C   UNL     1      -6.952  -0.218   1.140  0.00  0.00    -0.030 C 
ATOM     10  C   UNL     1      -7.509   1.188   0.909  0.00  0.00    +0.033 C 
ATOM     11  C   UNL     1      -6.227   2.031   0.907  0.00  0.00    +0.029 C 
ATOM     12  C   UNL     1      -6.233   3.301   0.076  0.00  0.00    +0.105 C 
ATOM     13  N   UNL     1      -4.842   3.803   0.105  0.00  0.00    -0.336 N 
ATOM     14  H   UNL     1      -4.681   4.760   0.101  0.00  0.00    +0.147 HD
ENDROOT
BRANCH  12  15
ATOM     15  C   UNL     1      -6.647   2.995  -1.340  0.00  0.00    -0.027 A 
ATOM     16  C   UNL     1      -5.691   2.675  -2.285  0.00  0.00    +0.007 A 
ATOM     17  C   UNL     1      -6.071   2.389  -3.583  0.00  0.00    +0.020 A 
ATOM     18  C   UNL     1      -7.407   2.433  -3.938  0.00  0.00    +0.041 A 
ATOM     19  C   UNL     1      -8.363   2.758  -2.993  0.00  0.00    +0.020 A 
ATOM     20  C   UNL     1      -7.982   3.039  -1.694  0.00  0.00    +0.007 A 
ATOM     21 CL   UNL     1      -7.884   2.080  -5.570  0.00  0.00    -0.084 Cl
ENDBRANCH  12  15
BRANCH   1  23
ATOM     22  N   UNL     1       0.859   0.846   0.313  0.00  0.00    -0.311 N 
ATOM     23  C   UNL     1      -0.387   0.332   0.308  0.00  0.00    +0.244 C 
ATOM     24  O   UNL     1      -0.548  -0.872   0.351  0.00  0.00    -0.270 OA
ATOM     25  H   UNL     1       0.987   1.807   0.279  0.00  0.00    +0.149 HD
BRANCH  22  26
ATOM     26  C   UNL     1       2.019  -0.047   0.370  0.00  0.00    +0.104 C 
BRANCH  26  28
ATOM     27  C   UNL     1       4.515  -0.147   0.423  0.00  0.00    +0.005 C 
ATOM     28  C   UNL     1       3.303   0.785   0.363  0.00  0.00    +0.015 C 
ENDBRANCH  26  28
ENDBRANCH  22  26
ENDBRANCH   1  23
TORSDOF 4
