REMARK  Name = ZINC52634880
REMARK  8 active torsions:
REMARK  status: ('A' for Active; 'I' for Inactive)
REMARK    1  A    between atoms: C_1  and  C_2
REMARK    2  A    between atoms: C_7  and  N_8
REMARK    3  A    between atoms: N_8  and  C_9
REMARK    4  A    between atoms: C_9  and  C_11
REMARK    5  A    between atoms: C_9  and  C_12
REMARK    6  A    between atoms: N_14  and  C_15
REMARK    7  A    between atoms: C_20  and  C_21
REMARK    8  A    between atoms: C_21  and  C_23
REMARK                            x       y       z     vdW  Elec       q    Type
REMARK                         _______ _______ _______ _____ _____    ______ ____
ROOT
ATOM      1  C   UNL     1       0.635   0.103   4.764  0.00  0.00    +0.237 C 
ATOM      2  O   UNL     1       1.018   1.223   4.498  0.00  0.00    -0.273 OA
ATOM      3  N   UNL     1       0.760  -0.371   6.019  0.00  0.00    -0.283 N 
ATOM      4  H   UNL     1       0.396  -1.241   6.247  0.00  0.00    +0.155 HD
ENDROOT
BRANCH   3   5
ATOM      5  C   UNL     1       1.411   0.386   6.988  0.00  0.00    +0.044 A 
ATOM      6  C   UNL     1       1.297   1.770   6.985  0.00  0.00    +0.024 A 
ATOM      7  C   UNL     1       1.944   2.519   7.947  0.00  0.00    +0.002 A 
ATOM      8  C   UNL     1       2.711   1.900   8.922  0.00  0.00    +0.001 A 
ATOM      9  C   UNL     1       2.837   0.529   8.943  0.00  0.00    +0.013 A 
ATOM     10  C   UNL     1       2.183  -0.246   7.978  0.00  0.00    +0.038 A 
BRANCH  10  11
ATOM     11  C   UNL     1       2.308  -1.708   7.997  0.00  0.00    +0.162 C 
ATOM     12  O   UNL     1       1.823  -2.370   7.103  0.00  0.00    -0.292 OA
ATOM     13  C   UNL     1       3.037  -2.388   9.127  0.00  0.00    +0.091 C 
ENDBRANCH  10  11
ENDBRANCH   3   5
BRANCH   1  14
ATOM     14  C   UNL     1       0.022  -0.758   3.690  0.00  0.00    +0.154 C 
ATOM     15  C   UNL     1      -1.408  -1.128   4.088  0.00  0.00    +0.038 C 
BRANCH  14  16
ATOM     16  N   UNL     1       0.001  -0.019   2.425  0.00  0.00    -0.333 N 
ATOM     17  H   UNL     1      -0.003   0.951   2.429  0.00  0.00    +0.147 HD
BRANCH  16  24
ATOM     18  C   UNL     1      -0.040   1.493   0.016  0.00  0.00    +0.045 C 
ATOM     19  C   UNL     1      -0.035  -0.014   0.012  0.00  0.00    -0.030 A 
ATOM     20  C   UNL     1      -0.045  -0.702  -1.186  0.00  0.00    +0.005 A 
ATOM     21  C   UNL     1      -0.041  -2.085  -1.191  0.00  0.00    +0.000 A 
ATOM     22  C   UNL     1      -0.027  -2.783   0.003  0.00  0.00    +0.002 A 
ATOM     23  C   UNL     1      -0.017  -2.102   1.204  0.00  0.00    +0.023 A 
ATOM     24  C   UNL     1      -0.015  -0.712   1.212  0.00  0.00    +0.031 A 
ENDBRANCH  16  24
ENDBRANCH  14  16
ENDBRANCH   1  14
TORSDOF 5
