REMARK  Name = ZINC14545195
REMARK  5 active torsions:
REMARK  status: ('A' for Active; 'I' for Inactive)
REMARK    1  A    between atoms: C_4  and  C_7
REMARK    2  A    between atoms: C_7  and  C_8
REMARK    3  A    between atoms: C_8  and  C_9
REMARK    4  A    between atoms: N_11  and  C_12
REMARK    5  A    between atoms: C_25  and  C_28
REMARK                            x       y       z     vdW  Elec       q    Type
REMARK                         _______ _______ _______ _____ _____    ______ ____
ROOT
ATOM      1  C   UNL     1      -0.021   1.397   0.003  0.00  0.00    +0.034 A 
ATOM      2  C   UNL     1      -1.236   2.070   0.004  0.00  0.00    +0.025 A 
ATOM      3  C   UNL     1      -1.252   3.450   0.010  0.00  0.00    +0.025 A 
ATOM      4  C   UNL     1      -0.059   4.161   0.005  0.00  0.00    +0.031 A 
ATOM      5  C   UNL     1       1.158   3.497  -0.001  0.00  0.00    -0.018 A 
ATOM      6  C   UNL     1       1.168   2.108  -0.002  0.00  0.00    +0.029 A 
ATOM      7  C   UNL     1       2.466   4.222  -0.007  0.00  0.00    +0.049 C 
ATOM      8  C   UNL     1       3.130   4.172   1.348  0.00  0.00    -0.023 C 
ATOM      9  C   UNL     1       3.751   5.301   1.591  0.00  0.00    -0.030 C 
ATOM     10  C   UNL     1       3.590   6.256   0.424  0.00  0.00    +0.033 C 
ATOM     11  C   UNL     1       2.319   5.727  -0.302  0.00  0.00    +0.029 C 
ATOM     12  C   UNL     1       1.103   6.289   0.440  0.00  0.00    +0.107 C 
ATOM     13  N   UNL     1      -0.095   5.562   0.008  0.00  0.00    -0.336 N 
ATOM     14  H   UNL     1      -0.893   6.039  -0.270  0.00  0.00    +0.147 HD
ENDROOT
BRANCH  12  15
ATOM     15  C   UNL     1       1.292   6.112   1.925  0.00  0.00    -0.002 A 
ATOM     16  C   UNL     1       0.833   5.097   2.673  0.00  0.00    +0.089 A 
ATOM     17  N   UNL     1       1.200   5.276   3.979  0.00  0.00    -0.360 N 
ATOM     18  H   UNL     1       0.983   4.672   4.706  0.00  0.00    +0.165 HD
ATOM     19  C   UNL     1       1.924   6.440   4.106  0.00  0.00    +0.047 A 
ATOM     20  C   UNL     1       2.018   7.012   2.824  0.00  0.00    +0.005 A 
ATOM     21  C   UNL     1       2.700   8.218   2.647  0.00  0.00    +0.010 A 
ATOM     22  C   UNL     1       3.283   8.831   3.721  0.00  0.00    +0.001 A 
ATOM     23  C   UNL     1       3.197   8.268   4.986  0.00  0.00    +0.002 A 
ATOM     24  C   UNL     1       2.524   7.082   5.184  0.00  0.00    +0.026 A 
ENDBRANCH  12  15
BRANCH   1  27
ATOM     25  C   UNL     1      -0.938  -0.695   0.677  0.00  0.00    +0.218 C 
ATOM     26  O   UNL     1      -1.853  -0.107   1.215  0.00  0.00    -0.275 OA
ATOM     27  N   UNL     1       0.002  -0.004   0.002  0.00  0.00    -0.285 N 
ATOM     28  H   UNL     1       0.695  -0.477  -0.485  0.00  0.00    +0.155 HD
BRANCH  25  29
ATOM     29  C   UNL     1      -0.854  -2.197   0.762  0.00  0.00    +0.101 C 
BRANCH  29  30
ATOM     30  C   UNL     1      -2.034  -2.728   1.578  0.00  0.00    +0.044 C 
BRANCH  30  34
ATOM     31  C   UNL     1      -1.796  -6.986   1.822  0.00  0.00    +0.000 A 
ATOM     32  C   UNL     1      -1.184  -6.204   2.783  0.00  0.00    +0.000 A 
ATOM     33  C   UNL     1      -1.261  -4.826   2.704  0.00  0.00    +0.003 A 
ATOM     34  C   UNL     1      -1.950  -4.230   1.664  0.00  0.00    -0.047 A 
ATOM     35  C   UNL     1      -2.565  -5.013   0.705  0.00  0.00    +0.003 A 
ATOM     36  C   UNL     1      -2.484  -6.391   0.781  0.00  0.00    +0.000 A 
ENDBRANCH  30  34
ENDBRANCH  29  30
ENDBRANCH  25  29
ENDBRANCH   1  27
TORSDOF 5
