REMARK  Name = ZINC65503924
REMARK  6 active torsions:
REMARK  status: ('A' for Active; 'I' for Inactive)
REMARK    1  A    between atoms: C_1  and  O_2
REMARK    2  A    between atoms: O_2  and  C_3
REMARK    3  A    between atoms: C_5  and  C_14
REMARK    4  A    between atoms: C_8  and  O_9
REMARK    5  A    between atoms: O_9  and  C_10
REMARK    6  A    between atoms: C_10  and  C_11
REMARK                            x       y       z     vdW  Elec       q    Type
REMARK                         _______ _______ _______ _____ _____    ______ ____
ROOT
ATOM      1  C   UNL     1       2.402   0.381  -4.230  0.00  0.00    +0.066 C 
ATOM      2  C   UNL     1       3.893   0.086  -4.296  0.00  0.00    +0.109 C 
ATOM      3  C   UNL     1       4.566   0.990  -5.283  0.00  0.00    +0.214 C 
ATOM      4  O   UNL     1       5.338   1.831  -4.873  0.00  0.00    -0.276 OA
ATOM      5  N   UNL     1       4.348   0.903  -6.591  0.00  0.00    -0.310 N 
ATOM      6  C   UNL     1       3.609  -0.202  -7.178  0.00  0.00    +0.160 C 
ATOM      7  C   UNL     1       2.154  -0.194  -6.754  0.00  0.00    +0.071 A 
ATOM      8  C   UNL     1       1.710   0.080  -5.518  0.00  0.00    +0.024 A 
ATOM      9  S   UNL     1      -0.062   0.003  -5.726  0.00  0.00    -0.057 S 
ATOM     10  C   UNL     1      -0.077  -0.439  -7.349  0.00  0.00    +0.156 A 
ATOM     11  N   UNL     1       1.192  -0.475  -7.650  0.00  0.00    -0.228 NA
ATOM     12  N   UNL     1      -1.167  -0.699  -8.164  0.00  0.00    -0.338 N 
ATOM     13  H   UNL     1       4.693   1.599  -7.172  0.00  0.00    +0.149 HD
ATOM     14  H   UNL     1      -2.066  -0.632  -7.807  0.00  0.00    +0.144 HD
ATOM     15  H   UNL     1      -1.031  -0.946  -9.092  0.00  0.00    +0.144 HD
ENDROOT
BRANCH   1  18
ATOM     16  C   UNL     1       0.606  -0.608  -1.056  0.00  0.00    +0.163 A 
ATOM     17  C   UNL     1       1.173   0.159  -2.062  0.00  0.00    +0.053 A 
ATOM     18  C   UNL     1       1.787  -0.455  -3.138  0.00  0.00    -0.034 A 
ATOM     19  C   UNL     1       1.837  -1.835  -3.214  0.00  0.00    +0.028 A 
ATOM     20  C   UNL     1       1.273  -2.606  -2.213  0.00  0.00    +0.086 A 
ATOM     21  C   UNL     1       0.662  -1.996  -1.129  0.00  0.00    +0.181 A 
ATOM     22 CL   UNL     1       1.337  -4.338  -2.312  0.00  0.00    -0.080 Cl
BRANCH  16  24
ATOM     23  C   UNL     1      -0.017   1.425   0.010  0.00  0.00    +0.277 C 
ATOM     24  O   UNL     1       0.002  -0.004   0.002  0.00  0.00    -0.491 OA
ENDBRANCH  16  24
BRANCH  21  25
ATOM     25  O   UNL     1       0.112  -2.752  -0.141  0.00  0.00    -0.483 OA
BRANCH  25  26
ATOM     26  C   UNL     1      -1.259  -3.125  -0.296  0.00  0.00    +0.256 C 
BRANCH  26  27
ATOM     27  C   UNL     1      -1.690  -3.954   0.886  0.00  0.00    +0.006 C 
ATOM     28  C   UNL     1      -2.838  -3.713   1.471  0.00  0.00    +0.007 C 
ENDBRANCH  26  27
ENDBRANCH  25  26
ENDBRANCH  21  25
ENDBRANCH   1  18
TORSDOF 5
