REMARK  Name = ZINC66602119
REMARK  8 active torsions:
REMARK  status: ('A' for Active; 'I' for Inactive)
REMARK    1  A    between atoms: C_1  and  C_2
REMARK    2  A    between atoms: C_3  and  C_11
REMARK    3  A    between atoms: N_13  and  N_14
REMARK    4  A    between atoms: C_15  and  C_17
REMARK    5  A    between atoms: C_17  and  C_18
REMARK    6  A    between atoms: C_18  and  C_20
REMARK    7  A    between atoms: C_18  and  N_21
REMARK    8  A    between atoms: C_22  and  C_24
REMARK                            x       y       z     vdW  Elec       q    Type
REMARK                         _______ _______ _______ _____ _____    ______ ____
ROOT
ATOM      1  N   UNL     1       0.197  -0.852  -4.801  0.00  0.00    -0.234 N 
ATOM      2  C   UNL     1       0.306  -1.754  -5.796  0.00  0.00    +0.231 C 
ATOM      3  O   UNL     1       0.324  -2.940  -5.540  0.00  0.00    -0.274 OA
ATOM      4  H   UNL     1       0.182   0.096  -5.005  0.00  0.00    +0.173 HD
ENDROOT
BRANCH   1   7
ATOM      5  C   UNL     1      -0.005  -0.381  -2.476  0.00  0.00    +0.279 C 
ATOM      6  O   UNL     1      -0.118   0.803  -2.738  0.00  0.00    -0.267 OA
ATOM      7  N   UNL     1       0.104  -1.283  -3.471  0.00  0.00    -0.229 N 
ATOM      8  H   UNL     1       0.118  -2.231  -3.267  0.00  0.00    +0.173 HD
BRANCH   5  11
ATOM      9  C   UNL     1      -2.527  -0.782  -0.685  0.00  0.00    +0.068 C 
ATOM     10  C   UNL     1      -1.086  -0.999  -0.301  0.00  0.00    +0.069 A 
ATOM     11  C   UNL     1       0.011  -0.810  -1.125  0.00  0.00    +0.133 A 
ATOM     12  N   UNL     1       1.126  -1.122  -0.368  0.00  0.00    -0.295 N 
ATOM     13  C   UNL     1       2.456  -1.119  -0.651  0.00  0.00    +0.093 A 
ATOM     14  C   UNL     1       3.361  -1.475   0.288  0.00  0.00    +0.018 A 
ATOM     15  C   UNL     1       2.935  -1.854   1.569  0.00  0.00    +0.005 A 
ATOM     16  C   UNL     1       1.604  -1.860   1.861  0.00  0.00    +0.047 A 
ATOM     17  C   UNL     1       0.678  -1.486   0.870  0.00  0.00    +0.138 A 
ATOM     18  N   UNL     1      -0.651  -1.398   0.883  0.00  0.00    -0.232 NA
ENDBRANCH   5  11
ENDBRANCH   1   7
BRANCH   2  19
ATOM     19  C   UNL     1       0.405  -1.290  -7.226  0.00  0.00    +0.119 C 
BRANCH  19  20
ATOM     20  C   UNL     1       0.519  -2.505  -8.150  0.00  0.00    +0.079 C 
ATOM     21  C   UNL     1       0.495  -2.042  -9.607  0.00  0.00    +0.028 C 
BRANCH  20  22
ATOM     22  N   UNL     1       1.777  -3.207  -7.881  0.00  0.00    -0.312 N 
ATOM     23  C   UNL     1       1.890  -4.519  -8.165  0.00  0.00    +0.216 C 
ATOM     24  O   UNL     1       0.951  -5.120  -8.643  0.00  0.00    -0.276 OA
ATOM     25  H   UNL     1       2.528  -2.727  -7.499  0.00  0.00    +0.149 HD
BRANCH  23  26
ATOM     26  C   UNL     1       3.184  -5.241  -7.889  0.00  0.00    +0.075 C 
ATOM     27  C   UNL     1       4.312  -4.590  -8.692  0.00  0.00    +0.013 C 
ATOM     28  C   UNL     1       5.626  -5.323  -8.412  0.00  0.00    +0.001 C 
ATOM     29  C   UNL     1       5.489  -6.790  -8.822  0.00  0.00    +0.000 C 
ATOM     30  C   UNL     1       4.361  -7.441  -8.019  0.00  0.00    +0.001 C 
ATOM     31  C   UNL     1       3.047  -6.708  -8.299  0.00  0.00    +0.013 C 
ENDBRANCH  23  26
ENDBRANCH  20  22
ENDBRANCH  19  20
ENDBRANCH   2  19
TORSDOF 6
