REMARK  Name = ZINC06135175
REMARK  11 active torsions:
REMARK  status: ('A' for Active; 'I' for Inactive)
REMARK    1  A    between atoms: C_1  and  C_2
REMARK    2  A    between atoms: C_2  and  C_3
REMARK    3  A    between atoms: C_10  and  C_15
REMARK    4  A    between atoms: C_15  and  C_17
REMARK    5  A    between atoms: C_15  and  N_71
REMARK    6  A    between atoms: N_21  and  C_22
REMARK    7  A    between atoms: C_22  and  C_23
REMARK    8  A    between atoms: C_22  and  C_24
REMARK    9  A    between atoms: C_22  and  C_25
REMARK   10  A    between atoms: C_25  and  C_26
REMARK   11  A    between atoms: N_29  and  C_32
REMARK                            x       y       z     vdW  Elec       q    Type
REMARK                         _______ _______ _______ _____ _____    ______ ____
ROOT
ATOM      1  C   UNL     1       3.530   0.645  -0.580  0.00  0.00    +0.039 C 
ENDROOT
BRANCH   1   9
ATOM      2  C   UNL     1       5.122   1.336  -6.519  0.00  0.00    -0.047 A 
ATOM      3  C   UNL     1       4.819   0.040  -6.913  0.00  0.00    +0.005 A 
ATOM      4  C   UNL     1       4.332  -0.875  -6.005  0.00  0.00    +0.026 A 
ATOM      5  C   UNL     1       4.138  -0.498  -4.680  0.00  0.00    +0.049 A 
ATOM      6  C   UNL     1       4.446   0.817  -4.285  0.00  0.00    -0.001 A 
ATOM      7  C   UNL     1       4.941   1.729  -5.223  0.00  0.00    +0.013 A 
ATOM      8  C   UNL     1       4.234   1.207  -2.889  0.00  0.00    +0.017 A 
ATOM      9  C   UNL     1       3.755   0.279  -2.024  0.00  0.00    +0.011 A 
ATOM     10  C   UNL     1       3.463  -1.027  -2.472  0.00  0.00    +0.251 A 
ATOM     11  O   UNL     1       3.030  -1.844  -1.678  0.00  0.00    -0.268 OA
ATOM     12  N   UNL     1       3.650  -1.392  -3.752  0.00  0.00    -0.322 N 
ATOM     13  H   UNL     1       3.432  -2.326  -4.035  0.00  0.00    +0.169 HD
BRANCH   2  15
ATOM     14  C   UNL     1       7.183   2.242  -7.559  0.00  0.00    +0.009 C 
ATOM     15  C   UNL     1       5.655   2.319  -7.529  0.00  0.00    +0.032 C 
ENDBRANCH   2  15
ENDBRANCH   1   9
BRANCH   1  21
ATOM     16  C   UNL     1       3.988  -0.023   1.703  0.00  0.00    -0.058 C 
ATOM     17  C   UNL     1       4.699  -1.070   2.563  0.00  0.00    +0.086 C 
ATOM     18  N   UNL     1       6.142  -1.030   2.287  0.00  0.00    -0.331 N 
ATOM     19  C   UNL     1       6.411  -1.301   0.868  0.00  0.00    +0.086 C 
ATOM     20  C   UNL     1       5.700  -0.255   0.007  0.00  0.00    -0.058 C 
ATOM     21  N   UNL     1       4.249  -0.321   0.278  0.00  0.00    +0.391 N 
ATOM     22  H   UNL     1       3.913  -1.268   0.068  0.00  0.00    -0.080 HD
BRANCH  18  23
ATOM     23  C   UNL     1       6.835  -1.925   3.109  0.00  0.00    +0.065 A 
ATOM     24  C   UNL     1       8.221  -1.987   3.056  0.00  0.00    +0.026 A 
ATOM     25  C   UNL     1       8.902  -2.870   3.872  0.00  0.00    +0.002 A 
ATOM     26  C   UNL     1       8.206  -3.697   4.734  0.00  0.00    +0.003 A 
ATOM     27  C   UNL     1       6.826  -3.641   4.787  0.00  0.00    +0.040 A 
ATOM     28  C   UNL     1       6.137  -2.758   3.976  0.00  0.00    +0.144 A 
ATOM     29  F   UNL     1       4.788  -2.704   4.027  0.00  0.00    -0.204 F 
ENDBRANCH  18  23
ENDBRANCH   1  21
BRANCH   1  30
ATOM     30  C   UNL     1       2.057   0.577  -0.268  0.00  0.00    +0.143 A 
ATOM     31  N   UNL     1       1.322  -0.506  -0.198  0.00  0.00    -0.115 NA
ATOM     32  N   UNL     1       0.117  -0.151   0.090  0.00  0.00    -0.023 NA
ATOM     33  N   UNL     1       0.065   1.130   0.206  0.00  0.00    -0.043 NA
ATOM     34  N   UNL     1       1.241   1.615  -0.008  0.00  0.00    -0.225 N 
BRANCH  34  35
ATOM     35  C   UNL     1       1.618   3.030   0.025  0.00  0.00    +0.061 C 
ATOM     36  C   UNL     1       2.638   3.260   1.143  0.00  0.00    +0.036 C 
ATOM     37  C   UNL     1       2.235   3.426  -1.317  0.00  0.00    +0.036 C 
BRANCH  35  38
ATOM     38  C   UNL     1       0.374   3.883   0.286  0.00  0.00    +0.026 C 
ATOM     39  C   UNL     1       0.768   5.361   0.321  0.00  0.00    +0.006 C 
ENDBRANCH  35  38
ENDBRANCH  34  35
ENDBRANCH   1  30
TORSDOF 7
