REMARK  Name = ZINC06281951
REMARK  9 active torsions:
REMARK  status: ('A' for Active; 'I' for Inactive)
REMARK    1  A    between atoms: C_1  and  C_2
REMARK    2  A    between atoms: C_9  and  C_14
REMARK    3  A    between atoms: C_14  and  C_16
REMARK    4  A    between atoms: C_14  and  N_70
REMARK    5  A    between atoms: N_20  and  C_21
REMARK    6  A    between atoms: C_21  and  C_22
REMARK    7  A    between atoms: N_30  and  C_33
REMARK    8  A    between atoms: C_38  and  O_39
REMARK    9  A    between atoms: O_39  and  C_40
REMARK                            x       y       z     vdW  Elec       q    Type
REMARK                         _______ _______ _______ _____ _____    ______ ____
ROOT
ATOM      1  C   UNL     1       1.656   6.649  -1.627  0.00  0.00    +0.039 C 
ENDROOT
BRANCH   1  10
ATOM      2  C   UNL     1       3.648  11.507   3.669  0.00  0.00    +0.044 C 
ATOM      3  C   UNL     1       3.636  11.066   2.228  0.00  0.00    -0.050 A 
ATOM      4  C   UNL     1       4.271  11.839   1.266  0.00  0.00    +0.005 A 
ATOM      5  C   UNL     1       4.272  11.455  -0.057  0.00  0.00    +0.026 A 
ATOM      6  C   UNL     1       3.631  10.279  -0.435  0.00  0.00    +0.049 A 
ATOM      7  C   UNL     1       2.988   9.498   0.543  0.00  0.00    -0.001 A 
ATOM      8  C   UNL     1       3.000   9.908   1.881  0.00  0.00    +0.013 A 
ATOM      9  C   UNL     1       2.317   8.262   0.136  0.00  0.00    +0.017 A 
ATOM     10  C   UNL     1       2.338   7.915  -1.174  0.00  0.00    +0.011 A 
ATOM     11  C   UNL     1       3.002   8.731  -2.115  0.00  0.00    +0.251 A 
ATOM     12  O   UNL     1       3.014   8.398  -3.287  0.00  0.00    -0.268 OA
ATOM     13  N   UNL     1       3.617   9.870  -1.751  0.00  0.00    -0.322 N 
ATOM     14  H   UNL     1       4.060  10.410  -2.424  0.00  0.00    +0.169 HD
ENDBRANCH   1  10
BRANCH   1  20
ATOM     15  C   UNL     1      -0.274   7.975  -2.244  0.00  0.00    -0.058 C 
ATOM     16  C   UNL     1      -1.206   8.334  -3.403  0.00  0.00    +0.086 C 
ATOM     17  N   UNL     1      -1.892   7.120  -3.870  0.00  0.00    -0.331 N 
ATOM     18  C   UNL     1      -0.923   6.111  -4.319  0.00  0.00    +0.086 C 
ATOM     19  C   UNL     1       0.009   5.752  -3.159  0.00  0.00    -0.058 C 
ATOM     20  N   UNL     1       0.708   6.976  -2.714  0.00  0.00    +0.391 N 
ATOM     21  H   UNL     1       1.231   7.369  -3.505  0.00  0.00    -0.080 HD
BRANCH  17  22
ATOM     22  C   UNL     1      -2.808   7.421  -4.885  0.00  0.00    +0.072 A 
ATOM     23  C   UNL     1      -2.820   8.684  -5.459  0.00  0.00    +0.027 A 
ATOM     24  C   UNL     1      -3.723   8.977  -6.464  0.00  0.00    +0.002 A 
ATOM     25  C   UNL     1      -4.621   8.018  -6.892  0.00  0.00    +0.004 A 
ATOM     26  C   UNL     1      -4.619   6.759  -6.321  0.00  0.00    +0.047 A 
ATOM     27  C   UNL     1      -3.714   6.455  -5.317  0.00  0.00    +0.141 A 
BRANCH  27  28
ATOM     28  O   UNL     1      -3.711   5.217  -4.753  0.00  0.00    -0.493 OA
ATOM     29  C   UNL     1      -4.668   4.278  -5.246  0.00  0.00    +0.277 C 
ENDBRANCH  27  28
ENDBRANCH  17  22
ENDBRANCH   1  20
BRANCH   1  30
ATOM     30  C   UNL     1       2.687   5.683  -2.151  0.00  0.00    +0.143 A 
ATOM     31  N   UNL     1       3.312   5.754  -3.301  0.00  0.00    -0.115 NA
ATOM     32  N   UNL     1       4.113   4.747  -3.382  0.00  0.00    -0.023 NA
ATOM     33  N   UNL     1       4.019   4.040  -2.310  0.00  0.00    -0.044 NA
ATOM     34  N   UNL     1       3.146   4.581  -1.530  0.00  0.00    -0.226 N 
BRANCH  34  35
ATOM     35  C   UNL     1       2.735   4.092  -0.211  0.00  0.00    +0.182 C 
BRANCH  35  36
ATOM     36  C   UNL     1       1.566   3.154  -0.365  0.00  0.00    -0.026 A 
ATOM     37  C   UNL     1       1.784   1.800  -0.544  0.00  0.00    +0.005 A 
ATOM     38  C   UNL     1       0.711   0.940  -0.685  0.00  0.00    +0.000 A 
ATOM     39  C   UNL     1      -0.580   1.434  -0.654  0.00  0.00    +0.000 A 
ATOM     40  C   UNL     1      -0.798   2.787  -0.470  0.00  0.00    +0.000 A 
ATOM     41  C   UNL     1       0.275   3.647  -0.328  0.00  0.00    +0.005 A 
ENDBRANCH  35  36
ENDBRANCH  34  35
ENDBRANCH   1  30
TORSDOF 7
