REMARK  Name = ZINC48288032
REMARK  10 active torsions:
REMARK  status: ('A' for Active; 'I' for Inactive)
REMARK    1  A    between atoms: C_1  and  C_2
REMARK    2  A    between atoms: C_2  and  C_3
REMARK    3  A    between atoms: C_3  and  C_4
REMARK    4  A    between atoms: C_4  and  N_5
REMARK    5  A    between atoms: N_5  and  C_6
REMARK    6  A    between atoms: N_5  and  S_7
REMARK    7  A    between atoms: S_7  and  N_10
REMARK    8  A    between atoms: N_10  and  C_11
REMARK    9  A    between atoms: C_11  and  C_12
REMARK   10  A    between atoms: N_21  and  C_24
REMARK                            x       y       z     vdW  Elec       q    Type
REMARK                         _______ _______ _______ _____ _____    ______ ____
ROOT
ATOM      1  C   UNL     1       1.182   0.076  -6.406  0.00  0.00    -0.027 A 
ATOM      2  C   UNL     1       1.020  -0.326  -7.726  0.00  0.00    +0.022 A 
ATOM      3  C   UNL     1       0.640   0.603  -8.674  0.00  0.00    +0.084 A 
ATOM      4  N   UNL     1       0.431   1.863  -8.341  0.00  0.00    -0.350 N 
ATOM      5  C   UNL     1       0.575   2.285  -7.095  0.00  0.00    +0.099 A 
ATOM      6  C   UNL     1       0.950   1.402  -6.087  0.00  0.00    +0.046 A 
ATOM      7  N   UNL     1       0.345   3.621  -6.789  0.00  0.00    -0.314 N 
ATOM      8  C   UNL     1       0.380   4.086  -5.396  0.00  0.00    +0.125 C 
ATOM      9  C   UNL     1       1.388   5.237  -5.288  0.00  0.00    +0.124 C 
ATOM     10  N   UNL     1       1.106   6.210  -6.352  0.00  0.00    -0.327 N 
ATOM     11  C   UNL     1       1.072   5.745  -7.746  0.00  0.00    +0.124 C 
ATOM     12  C   UNL     1       0.069   4.595  -7.854  0.00  0.00    +0.125 C 
ATOM     13  H   UNL     1       0.165   2.495  -9.027  0.00  0.00    +0.166 HD
ENDROOT
BRANCH  10  14
ATOM     14  C   UNL     1       0.875   7.554  -6.045  0.00  0.00    +0.030 A 
ATOM     15  C   UNL     1       0.482   8.438  -7.042  0.00  0.00    +0.026 A 
ATOM     16  C   UNL     1       0.253   9.765  -6.735  0.00  0.00    +0.040 A 
ATOM     17  C   UNL     1       0.415  10.215  -5.436  0.00  0.00    +0.124 A 
ATOM     18  C   UNL     1       0.807   9.335  -4.441  0.00  0.00    +0.040 A 
ATOM     19  C   UNL     1       1.031   8.006  -4.741  0.00  0.00    +0.026 A 
ATOM     20  F   UNL     1       0.191  11.514  -5.139  0.00  0.00    -0.205 F 
ENDBRANCH  10  14
BRANCH   1  21
ATOM     21  C   UNL     1       1.594  -0.911  -5.345  0.00  0.00    +0.142 C 
BRANCH  21  22
ATOM     22  N   UNL     1       0.400  -1.522  -4.756  0.00  0.00    -0.175 NA
ATOM     23  H   UNL     1      -0.471  -1.122  -4.902  0.00  0.00    +0.149 HD
BRANCH  22  24
ATOM     24  S   UNL     1       0.539  -2.895  -3.840  0.00  0.00    +0.097 S 
ATOM     25  O   UNL     1       1.337  -3.803  -4.588  0.00  0.00    -0.141 OA
ATOM     26  O   UNL     1      -0.771  -3.220  -3.396  0.00  0.00    -0.141 OA
BRANCH  24  27
ATOM     27  N   UNL     1       1.412  -2.497  -2.490  0.00  0.00    -0.170 NA
ATOM     28  C   UNL     1       2.872  -2.618  -2.501  0.00  0.00    +0.132 C 
BRANCH  27  29
ATOM     29  C   UNL     1       0.724  -2.025  -1.286  0.00  0.00    +0.110 C 
BRANCH  29  30
ATOM     30  C   UNL     1       0.704  -0.495  -1.277  0.00  0.00    +0.017 C 
BRANCH  30  32
ATOM     31  C   UNL     1      -0.034   1.528  -0.011  0.00  0.00    +0.004 C 
ATOM     32  C   UNL     1      -0.014  -0.002  -0.020  0.00  0.00    -0.002 C 
ENDBRANCH  30  32
ENDBRANCH  29  30
ENDBRANCH  27  29
ENDBRANCH  24  27
ENDBRANCH  22  24
ENDBRANCH  21  22
ENDBRANCH   1  21
TORSDOF 8
