REMARK  Name = ZINC18345479
REMARK  14 active torsions:
REMARK  status: ('A' for Active; 'I' for Inactive)
REMARK    1  A    between atoms: C_1  and  C_2
REMARK    2  A    between atoms: C_2  and  O_3
REMARK    3  A    between atoms: O_3  and  C_4
REMARK    4  A    between atoms: C_4  and  C_6
REMARK    5  A    between atoms: C_7  and  C_19
REMARK    6  A    between atoms: C_12  and  C_14
REMARK    7  A    between atoms: C_19  and  O_20
REMARK    8  A    between atoms: O_20  and  C_21
REMARK    9  A    between atoms: C_21  and  C_23
REMARK   10  A    between atoms: C_23  and  N_24
REMARK   11  A    between atoms: N_24  and  C_25
REMARK   12  A    between atoms: N_24  and  S_26
REMARK   13  A    between atoms: S_26  and  C_29
REMARK   14  A    between atoms: C_32  and  C_35
REMARK                            x       y       z     vdW  Elec       q    Type
REMARK                         _______ _______ _______ _____ _____    ______ ____
ROOT
ATOM      1  C   UNL     1       1.210   1.929  -0.109  0.00  0.00    +0.084 C 
ATOM      2  C   UNL     1       2.391   1.304   0.087  0.00  0.00    +0.061 C 
ATOM      3  N   UNL     1       3.554   2.011   0.190  0.00  0.00    -0.269 N 
ATOM      4  C   UNL     1       3.621   3.346   0.108  0.00  0.00    +0.305 C 
ATOM      5  O   UNL     1       4.704   3.888   0.212  0.00  0.00    -0.252 OA
ATOM      6  N   UNL     1       2.527   4.109  -0.085  0.00  0.00    -0.285 N 
ATOM      7  C   UNL     1       1.221   3.440  -0.216  0.00  0.00    +0.179 C 
ATOM      8  H   UNL     1       4.378   1.520   0.330  0.00  0.00    +0.156 HD
ATOM      9  H   UNL     1       2.598   5.074  -0.141  0.00  0.00    +0.151 HD
ENDROOT
BRANCH   7  10
ATOM     10  C   UNL     1       0.315   3.989   0.856  0.00  0.00    +0.130 A 
ATOM     11  C   UNL     1      -0.951   4.409   0.676  0.00  0.00    +0.047 A 
ATOM     12  C   UNL     1      -1.422   4.839   1.938  0.00  0.00    +0.041 A 
ATOM     13  C   UNL     1      -0.416   4.656   2.813  0.00  0.00    +0.195 A 
ATOM     14  O   UNL     1       0.631   4.135   2.153  0.00  0.00    -0.466 OA
ENDBRANCH   7  10
BRANCH   1  15
ATOM     15  C   UNL     1       0.004   1.197  -0.216  0.00  0.00    +0.339 C 
ATOM     16  O   UNL     1      -0.475   0.971  -1.312  0.00  0.00    -0.245 OA
BRANCH  15  17
ATOM     17  O   UNL     1      -0.618   0.754   0.896  0.00  0.00    -0.462 OA
BRANCH  17  19
ATOM     18  C   UNL     1      -2.389  -0.390   2.077  0.00  0.00    +0.048 C 
ATOM     19  C   UNL     1      -1.834   0.027   0.714  0.00  0.00    +0.229 C 
ENDBRANCH  17  19
ENDBRANCH  15  17
ENDBRANCH   1  15
BRANCH   2  20
ATOM     20  C   UNL     1       2.425  -0.199   0.194  0.00  0.00    +0.283 C 
BRANCH  20  21
ATOM     21  O   UNL     1       3.162  -0.747  -0.931  0.00  0.00    -0.458 OA
BRANCH  21  22
ATOM     22  C   UNL     1       3.286  -2.083  -0.986  0.00  0.00    +0.323 C 
ATOM     23  O   UNL     1       2.795  -2.771  -0.123  0.00  0.00    -0.249 OA
BRANCH  22  24
ATOM     24  C   UNL     1       4.037  -2.724  -2.125  0.00  0.00    +0.229 C 
BRANCH  24  25
ATOM     25  N   UNL     1       4.030  -4.179  -1.956  0.00  0.00    -0.169 NA
ATOM     26  C   UNL     1       5.039  -4.824  -1.113  0.00  0.00    +0.132 C 
BRANCH  25  27
ATOM     27  S   UNL     1       2.881  -5.095  -2.720  0.00  0.00    +0.061 S 
ATOM     28  O   UNL     1       2.759  -6.298  -1.974  0.00  0.00    -0.153 OA
ATOM     29  O   UNL     1       1.775  -4.237  -2.967  0.00  0.00    -0.153 OA
BRANCH  27  30
ATOM     30  C   UNL     1       3.533  -5.543  -4.294  0.00  0.00    +0.105 A 
ATOM     31  C   UNL     1       3.311  -4.730  -5.391  0.00  0.00    +0.029 A 
ATOM     32  C   UNL     1       3.826  -5.079  -6.625  0.00  0.00    +0.005 A 
ATOM     33  C   UNL     1       4.556  -6.245  -6.765  0.00  0.00    -0.050 A 
ATOM     34  C   UNL     1       4.773  -7.060  -5.670  0.00  0.00    +0.005 A 
ATOM     35  C   UNL     1       4.261  -6.709  -4.434  0.00  0.00    +0.029 A 
ATOM     36  C   UNL     1       5.114  -6.627  -8.111  0.00  0.00    +0.044 C 
ENDBRANCH  27  30
ENDBRANCH  25  27
ENDBRANCH  24  25
ENDBRANCH  22  24
ENDBRANCH  21  22
ENDBRANCH  20  21
ENDBRANCH   2  20
TORSDOF 11
