REMARK  Name = ZINC02487614
REMARK  5 active torsions:
REMARK  status: ('A' for Active; 'I' for Inactive)
REMARK    1  A    between atoms: C_3  and  C_13
REMARK    2  A    between atoms: C_5  and  C_6
REMARK    3  A    between atoms: C_6  and  N_7
REMARK    4  A    between atoms: N_15  and  C_16
REMARK    5  A    between atoms: C_17  and  C_27
REMARK                            x       y       z     vdW  Elec       q    Type
REMARK                         _______ _______ _______ _____ _____    ______ ____
ROOT
ATOM      1  C   UNL     1       3.560   0.619  -0.029  0.00  0.00    +0.284 C 
ATOM      2  O   UNL     1       4.194   1.658  -0.029  0.00  0.00    -0.266 OA
ATOM      3  N   UNL     1       4.206  -0.564  -0.041  0.00  0.00    -0.272 N 
ATOM      4  H   UNL     1       3.700  -1.392  -0.041  0.00  0.00    +0.156 HD
ENDROOT
BRANCH   3   5
ATOM      5  C   UNL     1       5.592  -0.598  -0.054  0.00  0.00    +0.090 A 
ATOM      6  C   UNL     1       6.415  -1.704  -0.074  0.00  0.00    +0.084 A 
ATOM      7  C   UNL     1       7.866  -1.485  -0.081  0.00  0.00    -0.018 A 
ATOM      8  C   UNL     1       8.196  -0.181  -0.039  0.00  0.00    -0.004 A 
ATOM      9  S   UNL     1       6.657   0.698  -0.058  0.00  0.00    -0.077 S 
ATOM     10  C   UNL     1       9.565   0.430   0.063  0.00  0.00    +0.043 C 
ATOM     11  C   UNL     1      10.005   0.318   1.534  0.00  0.00    +0.005 C 
ATOM     12  C   UNL     1       9.884  -1.149   1.960  0.00  0.00    +0.000 C 
ATOM     13  C   UNL     1      10.842  -1.913   1.070  0.00  0.00    +0.000 C 
ATOM     14  C   UNL     1      10.265  -2.272  -0.288  0.00  0.00    +0.005 C 
ATOM     15  C   UNL     1       8.801  -2.685  -0.197  0.00  0.00    +0.037 C 
BRANCH   6  16
ATOM     16  C   UNL     1       5.870  -3.028  -0.088  0.00  0.00    +0.102 C 
ATOM     17  N   UNL     1       5.437  -4.079  -0.098  0.00  0.00    -0.191 NA
ENDBRANCH   6  16
ENDBRANCH   3   5
BRANCH   1  20
ATOM     18  C   UNL     1      -0.016   1.347   0.009  0.00  0.00    +0.047 A 
ATOM     19  C   UNL     1       1.319   1.778  -0.001  0.00  0.00    +0.055 A 
ATOM     20  C   UNL     1       2.095   0.654  -0.014  0.00  0.00    +0.190 A 
ATOM     21  O   UNL     1       1.276  -0.418  -0.012  0.00  0.00    -0.453 OA
ATOM     22  C   UNL     1       0.002  -0.004   0.002  0.00  0.00    +0.127 A 
BRANCH  22  23
ATOM     23  C   UNL     1      -1.211  -0.898   0.010  0.00  0.00    +0.217 C 
BRANCH  23  24
ATOM     24  N   UNL     1      -1.618  -1.181  -1.369  0.00  0.00    -0.263 N 
ATOM     25  C   UNL     1      -1.787  -2.405  -1.913  0.00  0.00    +0.124 A 
ATOM     26  C   UNL     1      -2.165  -2.236  -3.201  0.00  0.00    +0.055 A 
ATOM     27  C   UNL     1      -2.230  -0.861  -3.453  0.00  0.00    +0.149 A 
ATOM     28  N   UNL     1      -1.907  -0.228  -2.354  0.00  0.00    -0.178 NA
ATOM     29 BR   UNL     1      -2.539  -3.613  -4.442  0.00  0.00    -0.047 Br
ENDBRANCH  23  24
ENDBRANCH  22  23
ENDBRANCH   1  20
TORSDOF 5
