REMARK  Name = ZINC22831287
REMARK  11 active torsions:
REMARK  status: ('A' for Active; 'I' for Inactive)
REMARK    1  A    between atoms: C_1  and  C_2
REMARK    2  A    between atoms: C_2  and  C_4
REMARK    3  A    between atoms: C_2  and  N_33
REMARK    4  A    between atoms: C_7  and  S_16
REMARK    5  A    between atoms: N_8  and  C_9
REMARK    6  A    between atoms: S_16  and  C_17
REMARK    7  A    between atoms: C_17  and  C_18
REMARK    8  A    between atoms: C_20  and  O_21
REMARK    9  A    between atoms: C_30  and  C_32
REMARK   10  A    between atoms: N_33  and  C_34
REMARK   11  A    between atoms: N_33  and  C_35
REMARK                            x       y       z     vdW  Elec       q    Type
REMARK                         _______ _______ _______ _____ _____    ______ ____
ROOT
ATOM      1  S   UNL     1       1.302  -7.404   0.929  0.00  0.00    -0.081 S 
ENDROOT
BRANCH   1   5
ATOM      2  C   UNL     1       1.057  -9.312   4.326  0.00  0.00    +0.125 A 
ATOM      3  N   UNL     1      -0.194  -9.105   4.026  0.00  0.00    -0.135 NA
ATOM      4  N   UNL     1      -0.283  -8.473   2.910  0.00  0.00    -0.122 NA
ATOM      5  C   UNL     1       0.917  -8.239   2.432  0.00  0.00    +0.196 A 
ATOM      6  N   UNL     1       1.812  -8.772   3.319  0.00  0.00    -0.275 N 
BRANCH   6   7
ATOM      7  C   UNL     1       3.211  -8.765   3.219  0.00  0.00    +0.050 A 
ATOM      8  C   UNL     1       3.904  -9.960   3.079  0.00  0.00    +0.028 A 
ATOM      9  C   UNL     1       5.282  -9.950   2.976  0.00  0.00    +0.022 A 
ATOM     10  C   UNL     1       5.971  -8.751   3.022  0.00  0.00    +0.041 A 
ATOM     11  C   UNL     1       5.283  -7.559   3.167  0.00  0.00    +0.022 A 
ATOM     12  C   UNL     1       3.905  -7.564   3.265  0.00  0.00    +0.028 A 
ATOM     13 CL   UNL     1       7.703  -8.742   2.898  0.00  0.00    -0.084 Cl
ENDBRANCH   6   7
BRANCH   2  15
ATOM     14  C   UNL     1       1.439  -9.101   6.767  0.00  0.00    -0.005 C 
ATOM     15  C   UNL     1       1.577 -10.020   5.551  0.00  0.00    -0.003 C 
BRANCH  15  16
ATOM     16  N   UNL     1       0.800 -11.247   5.774  0.00  0.00    +0.382 N 
ATOM     17  C   UNL     1       1.354 -12.024   6.890  0.00  0.00    -0.096 C 
ATOM     18  C   UNL     1      -0.618 -10.939   5.999  0.00  0.00    -0.096 C 
ATOM     19  H   UNL     1       0.873 -11.862   4.865  0.00  0.00    -0.082 HD
ENDBRANCH  15  16
ENDBRANCH   2  15
ENDBRANCH   1   5
BRANCH   1  20
ATOM     20  C   UNL     1      -0.369  -7.024   0.344  0.00  0.00    +0.113 C 
BRANCH  20  21
ATOM     21  C   UNL     1      -0.286  -6.287  -0.968  0.00  0.00    -0.020 A 
ATOM     22  C   UNL     1      -0.279  -6.960  -2.147  0.00  0.00    +0.092 A 
ATOM     23  C   UNL     1      -0.200  -6.248  -3.361  0.00  0.00    +0.285 A 
ATOM     24  O   UNL     1      -0.132  -4.908  -3.389  0.00  0.00    -0.425 OA
ATOM     25  C   UNL     1      -0.136  -4.178  -2.253  0.00  0.00    +0.141 A 
ATOM     26  C   UNL     1      -0.211  -4.825  -1.005  0.00  0.00    +0.022 A 
ATOM     27  C   UNL     1      -0.215  -4.073   0.175  0.00  0.00    +0.013 A 
ATOM     28  C   UNL     1      -0.140  -2.712   0.112  0.00  0.00    +0.024 A 
ATOM     29  C   UNL     1      -0.071  -2.064  -1.121  0.00  0.00    +0.037 A 
ATOM     30  C   UNL     1      -0.065  -2.794  -2.300  0.00  0.00    +0.070 A 
ATOM     31  N   UNL     1       0.000  -0.672  -1.169  0.00  0.00    -0.286 N 
ATOM     32  C   UNL     1      -0.605  -0.000  -2.168  0.00  0.00    +0.214 C 
ATOM     33  O   UNL     1      -1.141  -0.609  -3.070  0.00  0.00    -0.276 OA
ATOM     34  C   UNL     1      -0.617   1.507  -2.165  0.00  0.00    +0.109 C 
ATOM     35  H   UNL     1       0.550  -0.122  -0.391  0.00  0.00    +0.155 HD
BRANCH  23  36
ATOM     36  O   UNL     1      -0.194  -6.865  -4.412  0.00  0.00    -0.480 OA
ATOM     37  H   UNL     1      -0.133  -6.323  -5.367  0.00  0.00    +0.295 HD
ENDBRANCH  23  36
ENDBRANCH  20  21
ENDBRANCH   1  20
TORSDOF 7
