REMARK  Name = ZINC20755816
REMARK  14 active torsions:
REMARK  status: ('A' for Active; 'I' for Inactive)
REMARK    1  A    between atoms: C_1  and  C_2
REMARK    2  A    between atoms: C_5  and  N_9
REMARK    3  A    between atoms: C_6  and  C_8
REMARK    4  A    between atoms: N_9  and  S_10
REMARK    5  A    between atoms: S_10  and  C_13
REMARK    6  A    between atoms: C_17  and  C_19
REMARK    7  A    between atoms: N_21  and  N_22
REMARK    8  A    between atoms: C_23  and  C_24
REMARK    9  A    between atoms: C_26  and  O_34
REMARK   10  A    between atoms: C_27  and  O_32
REMARK   11  A    between atoms: C_28  and  O_30
REMARK   12  A    between atoms: O_30  and  C_31
REMARK   13  A    between atoms: O_32  and  C_33
REMARK   14  A    between atoms: O_34  and  C_35
REMARK                            x       y       z     vdW  Elec       q    Type
REMARK                         _______ _______ _______ _____ _____    ______ ____
ROOT
ATOM      1  C   UNL     1       3.803   2.060   0.104  0.00  0.00    +0.109 A 
ATOM      2  C   UNL     1       3.834   3.444   0.122  0.00  0.00    +0.029 A 
ATOM      3  C   UNL     1       2.659   4.167   0.217  0.00  0.00    +0.003 A 
ATOM      4  C   UNL     1       1.446   3.513   0.288  0.00  0.00    +0.013 A 
ATOM      5  C   UNL     1       1.408   2.118   0.276  0.00  0.00    +0.040 A 
ATOM      6  C   UNL     1       2.598   1.394   0.180  0.00  0.00    +0.042 A 
ENDROOT
BRANCH   5   7
ATOM      7  C   UNL     1       0.113   1.410   0.358  0.00  0.00    +0.263 C 
ATOM      8  O   UNL     1       0.083   0.195   0.342  0.00  0.00    -0.268 OA
ATOM      9  N   UNL     1      -1.034   2.112   0.445  0.00  0.00    -0.203 N 
ATOM     10  H   UNL     1      -1.006   3.212   0.459  0.00  0.00    +0.178 HD
BRANCH   9  11
ATOM     11  N   UNL     1      -2.262   1.441   0.517  0.00  0.00    -0.187 NA
ATOM     12  C   UNL     1      -3.367   2.117   0.600  0.00  0.00    +0.138 C 
BRANCH  12  13
ATOM     13  C   UNL     1      -4.659   1.411   0.676  0.00  0.00    +0.002 A 
ATOM     14  C   UNL     1      -4.696   0.015   0.652  0.00  0.00    +0.059 A 
ATOM     15  C   UNL     1      -5.910  -0.644   0.728  0.00  0.00    +0.166 A 
ATOM     16  C   UNL     1      -7.093   0.082   0.818  0.00  0.00    +0.204 A 
ATOM     17  C   UNL     1      -7.060   1.472   0.837  0.00  0.00    +0.166 A 
ATOM     18  C   UNL     1      -5.849   2.138   0.766  0.00  0.00    +0.059 A 
BRANCH  17  19
ATOM     19  O   UNL     1      -8.219   2.179   0.924  0.00  0.00    -0.491 OA
ATOM     20  C   UNL     1      -8.111   3.604   0.938  0.00  0.00    +0.277 C 
ENDBRANCH  17  19
BRANCH  16  21
ATOM     21  O   UNL     1      -8.285  -0.570   0.887  0.00  0.00    -0.488 OA
ATOM     22  C   UNL     1      -8.938  -0.861  -0.351  0.00  0.00    +0.277 C 
ENDBRANCH  16  21
BRANCH  15  23
ATOM     23  O   UNL     1      -5.946  -2.004   0.709  0.00  0.00    -0.491 OA
ATOM     24  C   UNL     1      -4.694  -2.686   0.615  0.00  0.00    +0.277 C 
ENDBRANCH  15  23
ENDBRANCH  12  13
ENDBRANCH   9  11
ENDBRANCH   5   7
BRANCH   1  25
ATOM     25  S   UNL     1       5.306   1.149  -0.018  0.00  0.00    +0.072 S 
ATOM     26  O   UNL     1       6.336   1.996   0.473  0.00  0.00    -0.150 OA
ATOM     27  O   UNL     1       5.048  -0.135   0.534  0.00  0.00    -0.150 OA
BRANCH  25  28
ATOM     28  N   UNL     1       5.611   0.919  -1.629  0.00  0.00    -0.216 N 
ATOM     29  H   UNL     1       5.675  -0.101  -2.037  0.00  0.00    +0.174 HD
BRANCH  28  34
ATOM     30  C   UNL     1       6.323   5.388  -5.046  0.00  0.00    +0.044 C 
ATOM     31  C   UNL     1       6.133   4.201  -4.138  0.00  0.00    -0.050 A 
ATOM     32  C   UNL     1       6.594   4.248  -2.835  0.00  0.00    +0.005 A 
ATOM     33  C   UNL     1       6.423   3.162  -2.000  0.00  0.00    +0.025 A 
ATOM     34  C   UNL     1       5.785   2.020  -2.471  0.00  0.00    +0.051 A 
ATOM     35  C   UNL     1       5.328   1.974  -3.781  0.00  0.00    -0.028 A 
ATOM     36  C   UNL     1       5.499   3.067  -4.609  0.00  0.00    +0.008 A 
ATOM     37  C   UNL     1       4.642   0.736  -4.298  0.00  0.00    +0.046 C 
ENDBRANCH  28  34
ENDBRANCH  25  28
ENDBRANCH   1  25
TORSDOF 9
