REMARK  Name = ZINC36818838
REMARK  8 active torsions:
REMARK  status: ('A' for Active; 'I' for Inactive)
REMARK    1  A    between atoms: C_1  and  C_2
REMARK    2  A    between atoms: C_2  and  C_3
REMARK    3  A    between atoms: C_3  and  C_25
REMARK    4  A    between atoms: N_6  and  C_10
REMARK    5  A    between atoms: C_10  and  C_11
REMARK    6  A    between atoms: N_13  and  C_14
REMARK    7  A    between atoms: C_14  and  C_16
REMARK    8  A    between atoms: C_14  and  C_17
REMARK                            x       y       z     vdW  Elec       q    Type
REMARK                         _______ _______ _______ _____ _____    ______ ____
ROOT
ATOM      1  C   UNL     1       0.718  -0.497  -1.257  0.00  0.00    +0.138 C 
ATOM      2  C   UNL     1       0.081   0.093  -2.499  0.00  0.00    +0.251 C 
ATOM      3  O   UNL     1      -1.061  -0.057  -2.878  0.00  0.00    -0.272 OA
ATOM      4  N   UNL     1       1.047   0.819  -3.095  0.00  0.00    -0.215 N 
ATOM      5  C   UNL     1       2.195   0.770  -2.408  0.00  0.00    +0.310 C 
ATOM      6  O   UNL     1       3.210   1.345  -2.748  0.00  0.00    -0.252 OA
ATOM      7  N   UNL     1       2.099   0.013  -1.301  0.00  0.00    -0.281 N 
ATOM      8  H   UNL     1       2.803  -0.163  -0.657  0.00  0.00    +0.152 HD
ENDROOT
BRANCH   1   9
ATOM      9  C   UNL     1       0.707  -2.003  -1.315  0.00  0.00    -0.015 A 
ATOM     10  C   UNL     1      -0.340  -2.709  -0.752  0.00  0.00    +0.009 A 
ATOM     11  C   UNL     1      -0.352  -4.090  -0.806  0.00  0.00    +0.039 A 
ATOM     12  C   UNL     1       0.686  -4.767  -1.424  0.00  0.00    +0.123 A 
ATOM     13  C   UNL     1       1.734  -4.059  -1.988  0.00  0.00    +0.039 A 
ATOM     14  C   UNL     1       1.741  -2.678  -1.938  0.00  0.00    +0.009 A 
ATOM     15  F   UNL     1       0.675  -6.117  -1.477  0.00  0.00    -0.205 F 
ENDBRANCH   1   9
BRANCH   1  17
ATOM     16  C   UNL     1      -0.019   1.526   0.010  0.00  0.00    +0.007 C 
ATOM     17  C   UNL     1       0.002  -0.004   0.002  0.00  0.00    +0.037 C 
ENDBRANCH   1  17
BRANCH   4  18
ATOM     18  C   UNL     1       0.864   1.569  -4.340  0.00  0.00    +0.213 C 
BRANCH  18  19
ATOM     19  C   UNL     1       0.403   2.967  -4.021  0.00  0.00    +0.231 C 
ATOM     20  O   UNL     1       0.243   3.305  -2.867  0.00  0.00    -0.274 OA
ATOM     21  N   UNL     1       0.169   3.843  -5.018  0.00  0.00    -0.307 N 
ATOM     22  H   UNL     1       0.296   3.573  -5.941  0.00  0.00    +0.149 HD
BRANCH  21  23
ATOM     23  C   UNL     1      -0.280   5.203  -4.708  0.00  0.00    +0.102 C 
ATOM     24  C   UNL     1      -1.800   5.213  -4.539  0.00  0.00    +0.033 C 
BRANCH  23  25
ATOM     25  C   UNL     1       0.107   6.128  -5.833  0.00  0.00    -0.009 A 
ATOM     26  C   UNL     1       0.287   5.627  -7.109  0.00  0.00    +0.008 A 
ATOM     27  C   UNL     1       0.642   6.475  -8.141  0.00  0.00    +0.020 A 
ATOM     28  C   UNL     1       0.816   7.826  -7.899  0.00  0.00    +0.042 A 
ATOM     29  C   UNL     1       0.635   8.328  -6.623  0.00  0.00    +0.040 A 
ATOM     30  C   UNL     1       0.275   7.480  -5.591  0.00  0.00    +0.047 A 
ATOM     31 CL   UNL     1       0.042   8.110  -3.990  0.00  0.00    -0.083 Cl
ATOM     32 CL   UNL     1       1.261   8.890  -9.196  0.00  0.00    -0.083 Cl
ENDBRANCH  23  25
ENDBRANCH  21  23
ENDBRANCH  18  19
ENDBRANCH   4  18
TORSDOF 6
