REMARK  Name = ZINC40900545
REMARK  8 active torsions:
REMARK  status: ('A' for Active; 'I' for Inactive)
REMARK    1  A    between atoms: C_1  and  C_2
REMARK    2  A    between atoms: C_5  and  C_8
REMARK    3  A    between atoms: C_8  and  C_9
REMARK    4  A    between atoms: C_9  and  N_10
REMARK    5  A    between atoms: C_11  and  C_13
REMARK    6  A    between atoms: N_18  and  C_20
REMARK    7  A    between atoms: C_23  and  C_27
REMARK    8  A    between atoms: C_29  and  C_32
REMARK                            x       y       z     vdW  Elec       q    Type
REMARK                         _______ _______ _______ _____ _____    ______ ____
ROOT
ATOM      1  C   UNL     1       4.865 -11.153   0.700  0.00  0.00    +0.065 A 
ATOM      2  C   UNL     1       6.196 -11.479   0.468  0.00  0.00    +0.027 A 
ATOM      3  C   UNL     1       6.880 -12.270   1.367  0.00  0.00    +0.013 A 
ATOM      4  C   UNL     1       6.238 -12.741   2.510  0.00  0.00    +0.025 A 
ATOM      5  C   UNL     1       4.903 -12.413   2.743  0.00  0.00    +0.052 A 
ATOM      6  C   UNL     1       4.222 -11.618   1.844  0.00  0.00    +0.145 A 
ATOM      7  F   UNL     1       2.930 -11.295   2.071  0.00  0.00    -0.204 F 
ENDROOT
BRANCH   1  12
ATOM      8  C   UNL     1       2.723  -8.397  -0.059  0.00  0.00    +0.092 C 
ATOM      9  C   UNL     1       2.002  -8.910  -1.308  0.00  0.00    +0.016 C 
ATOM     10  C   UNL     1       1.993 -10.441  -1.300  0.00  0.00    +0.020 C 
ATOM     11  C   UNL     1       3.435 -10.956  -1.328  0.00  0.00    +0.105 C 
ATOM     12  N   UNL     1       4.175 -10.352  -0.211  0.00  0.00    -0.327 N 
ATOM     13  C   UNL     1       4.173  -8.890  -0.071  0.00  0.00    +0.118 C 
BRANCH   8  15
ATOM     14  N   UNL     1       1.527  -6.231  -0.040  0.00  0.00    -0.315 N 
ATOM     15  C   UNL     1       2.703  -6.890  -0.050  0.00  0.00    +0.218 C 
ATOM     16  O   UNL     1       3.745  -6.270  -0.053  0.00  0.00    -0.275 OA
ATOM     17  H   UNL     1       0.694  -6.727  -0.038  0.00  0.00    +0.149 HD
BRANCH  14  18
ATOM     18  C   UNL     1       1.508  -4.767  -0.032  0.00  0.00    +0.109 C 
BRANCH  18  19
ATOM     19  C   UNL     1       0.059  -4.275  -0.021  0.00  0.00    +0.054 C 
BRANCH  19  24
ATOM     20  C   UNL     1      -0.018   1.503   0.010  0.00  0.00    +0.044 C 
ATOM     21  C   UNL     1       0.002  -0.004   0.002  0.00  0.00    -0.050 A 
ATOM     22  C   UNL     1       0.006  -0.689  -1.199  0.00  0.00    +0.003 A 
ATOM     23  C   UNL     1       0.025  -2.071  -1.206  0.00  0.00    +0.004 A 
ATOM     24  C   UNL     1       0.040  -2.768  -0.013  0.00  0.00    -0.046 A 
ATOM     25  C   UNL     1       0.037  -2.084   1.188  0.00  0.00    +0.004 A 
ATOM     26  C   UNL     1       0.023  -0.702   1.195  0.00  0.00    +0.003 A 
ENDBRANCH  19  24
ENDBRANCH  18  19
ENDBRANCH  14  18
ENDBRANCH   8  15
ENDBRANCH   1  12
BRANCH   4  27
ATOM     27  C   UNL     1       6.973 -13.592   3.478  0.00  0.00    +0.202 A 
ATOM     28  N   UNL     1       6.464 -14.109   4.607  0.00  0.00    -0.187 NA
ATOM     29  C   UNL     1       7.382 -14.812   5.231  0.00  0.00    +0.259 A 
ATOM     30  O   UNL     1       8.515 -14.761   4.507  0.00  0.00    -0.332 OA
ATOM     31  N   UNL     1       8.225 -13.966   3.367  0.00  0.00    -0.056 NA
BRANCH  29  32
ATOM     32  C   UNL     1       7.202 -15.533   6.507  0.00  0.00    +0.043 A 
ATOM     33  C   UNL     1       5.965 -15.509   7.156  0.00  0.00    +0.017 A 
ATOM     34  C   UNL     1       5.799 -16.183   8.347  0.00  0.00    +0.050 A 
ATOM     35  C   UNL     1       6.857 -16.887   8.905  0.00  0.00    +0.166 A 
ATOM     36  C   UNL     1       8.094 -16.915   8.261  0.00  0.00    +0.167 A 
ATOM     37  C   UNL     1       8.265 -16.246   7.064  0.00  0.00    +0.062 A 
ATOM     38  O   UNL     1       8.956 -17.667   9.007  0.00  0.00    -0.453 OA
ATOM     39  C   UNL     1       8.355 -17.758  10.312  0.00  0.00    +0.466 C 
ATOM     40  O   UNL     1       6.946 -17.621  10.051  0.00  0.00    -0.453 OA
ENDBRANCH  29  32
ENDBRANCH   4  27
TORSDOF 7
