REMARK  Name = ZINC38576816
REMARK  12 active torsions:
REMARK  status: ('A' for Active; 'I' for Inactive)
REMARK    1  A    between atoms: C_1  and  C_2
REMARK    2  A    between atoms: C_2  and  O_3
REMARK    3  A    between atoms: O_3  and  C_4
REMARK    4  A    between atoms: C_4  and  C_6
REMARK    5  A    between atoms: C_8  and  N_15
REMARK    6  A    between atoms: C_11  and  C_14
REMARK    7  A    between atoms: C_12  and  C_13
REMARK    8  A    between atoms: C_16  and  C_18
REMARK    9  A    between atoms: C_21  and  C_23
REMARK   10  A    between atoms: C_25  and  C_31
REMARK   11  A    between atoms: C_27  and  C_30
REMARK   12  A    between atoms: C_28  and  O_29
REMARK                            x       y       z     vdW  Elec       q    Type
REMARK                         _______ _______ _______ _____ _____    ______ ____
ROOT
ATOM      1  N   UNL     1       0.473  -4.386  -1.578  0.00  0.00    -0.297 N 
ATOM      2  C   UNL     1      -0.145  -5.538  -1.908  0.00  0.00    +0.261 C 
ATOM      3  O   UNL     1       0.207  -6.155  -2.896  0.00  0.00    -0.269 OA
ATOM      4  H   UNL     1       0.193  -3.894  -0.790  0.00  0.00    +0.150 HD
ENDROOT
BRANCH   1   6
ATOM      5  C   UNL     1       1.655  -2.330  -2.350  0.00  0.00    +0.155 C 
ATOM      6  C   UNL     1       1.568  -3.878  -2.408  0.00  0.00    +0.153 C 
ATOM      7  S   UNL     1       1.205  -4.075  -4.203  0.00  0.00    -0.106 S 
ATOM      8  C   UNL     1       0.563  -2.442  -4.525  0.00  0.00    -0.016 C 
ATOM      9  C   UNL     1       0.885  -1.716  -3.474  0.00  0.00    -0.047 C 
ATOM     10  C   UNL     1       0.478  -0.267  -3.407  0.00  0.00    +0.041 C 
ATOM     11  C   UNL     1      -0.192  -1.988  -5.747  0.00  0.00    +0.051 C 
BRANCH   5  12
ATOM     12  C   UNL     1       1.089  -1.850  -1.039  0.00  0.00    +0.317 C 
ATOM     13  O   UNL     1      -0.099  -1.659  -0.928  0.00  0.00    -0.250 OA
BRANCH  12  14
ATOM     14  O   UNL     1       1.904  -1.635   0.006  0.00  0.00    -0.464 OA
BRANCH  14  16
ATOM     15  C   UNL     1       2.377  -0.992   2.287  0.00  0.00    +0.048 C 
ATOM     16  C   UNL     1       1.298  -1.180   1.218  0.00  0.00    +0.229 C 
ENDBRANCH  14  16
ENDBRANCH  12  14
ENDBRANCH   5  12
ENDBRANCH   1   6
BRANCH   2  17
ATOM     17  C   UNL     1      -1.240  -6.046  -1.077  0.00  0.00    +0.131 C 
ATOM     18  N   UNL     1      -1.738  -5.503   0.004  0.00  0.00    -0.148 NA
ATOM     19  N   UNL     1      -2.693  -6.162   0.532  0.00  0.00    -0.153 NA
ATOM     20  C   UNL     1      -3.004  -7.267  -0.107  0.00  0.00    +0.080 C 
ATOM     21  C   UNL     1      -2.050  -7.315  -1.289  0.00  0.00    +0.120 C 
BRANCH  20  22
ATOM     22  C   UNL     1      -4.046  -8.236   0.240  0.00  0.00    +0.040 A 
ATOM     23  C   UNL     1      -4.242  -9.375  -0.553  0.00  0.00    +0.016 A 
ATOM     24  C   UNL     1      -5.223 -10.281  -0.220  0.00  0.00    -0.049 A 
ATOM     25  C   UNL     1      -6.019 -10.074   0.897  0.00  0.00    +0.010 A 
ATOM     26  C   UNL     1      -5.838  -8.957   1.689  0.00  0.00    -0.008 A 
ATOM     27  C   UNL     1      -4.852  -8.034   1.375  0.00  0.00    +0.129 A 
ATOM     28  C   UNL     1      -6.709  -8.744   2.899  0.00  0.00    +0.047 C 
ATOM     29  C   UNL     1      -5.434 -11.506  -1.073  0.00  0.00    +0.044 C 
BRANCH  27  30
ATOM     30  O   UNL     1      -4.670  -6.940   2.155  0.00  0.00    -0.506 OA
ATOM     31  H   UNL     1      -5.198  -6.175   1.888  0.00  0.00    +0.292 HD
ENDBRANCH  27  30
ENDBRANCH  20  22
ENDBRANCH   2  17
TORSDOF 7
