REMARK  Name = ZINC13562349
REMARK  8 active torsions:
REMARK  status: ('A' for Active; 'I' for Inactive)
REMARK    1  A    between atoms: C_1  and  C_2
REMARK    2  A    between atoms: C_7  and  C_35
REMARK    3  A    between atoms: C_10  and  C_12
REMARK    4  A    between atoms: C_12  and  N_13
REMARK    5  A    between atoms: C_24  and  S_25
REMARK    6  A    between atoms: S_25  and  C_26
REMARK    7  A    between atoms: C_26  and  C_27
REMARK    8  A    between atoms: N_29  and  C_30
REMARK                            x       y       z     vdW  Elec       q    Type
REMARK                         _______ _______ _______ _____ _____    ______ ____
ROOT
ATOM      1  N   UNL     1       2.838   3.413  10.010  0.00  0.00    -0.299 N 
ATOM      2  C   UNL     1       1.467   3.243  10.177  0.00  0.00    +0.069 A 
ATOM      3  C   UNL     1       0.633   3.342  11.284  0.00  0.00    +0.028 A 
ATOM      4  C   UNL     1      -0.721   3.113  11.147  0.00  0.00    +0.002 A 
ATOM      5  C   UNL     1      -1.252   2.786   9.911  0.00  0.00    +0.002 A 
ATOM      6  C   UNL     1      -0.432   2.687   8.805  0.00  0.00    +0.028 A 
ATOM      7  C   UNL     1       0.931   2.914   8.932  0.00  0.00    +0.075 A 
ATOM      8  N   UNL     1       1.984   2.886   8.014  0.00  0.00    -0.254 N 
ATOM      9  C   UNL     1       3.139   3.191   8.677  0.00  0.00    +0.238 A 
ATOM     10  N   UNL     1       4.124   3.163   7.809  0.00  0.00    -0.109 NA
ATOM     11  N   UNL     1       3.589   2.827   6.558  0.00  0.00    -0.120 NA
ATOM     12  C   UNL     1       2.296   2.668   6.699  0.00  0.00    +0.198 A 
ENDROOT
BRANCH   1  13
ATOM     13  C   UNL     1       3.795   3.766  11.061  0.00  0.00    +0.221 C 
BRANCH  13  21
ATOM     14  C   UNL     1       5.403   0.150  12.411  0.00  0.00    +0.028 C 
ATOM     15  C   UNL     1       5.888   1.368  13.200  0.00  0.00    +0.073 C 
ATOM     16  C   UNL     1       7.415   1.490  13.076  0.00  0.00    +0.022 C 
ATOM     17  C   UNL     1       7.874   2.783  13.753  0.00  0.00    +0.004 C 
ATOM     18  C   UNL     1       7.236   3.984  13.050  0.00  0.00    +0.022 C 
ATOM     19  C   UNL     1       5.712   3.890  13.171  0.00  0.00    +0.073 C 
ATOM     20  N   UNL     1       5.276   2.586  12.653  0.00  0.00    -0.294 N 
ATOM     21  C   UNL     1       4.328   2.508  11.698  0.00  0.00    +0.236 C 
ATOM     22  O   UNL     1       3.904   1.426  11.350  0.00  0.00    -0.274 OA
ATOM     23  C   UNL     1       5.304   4.021  14.639  0.00  0.00    +0.028 C 
ENDBRANCH  13  21
ENDBRANCH   1  13
BRANCH  12  24
ATOM     24  S   UNL     1       1.159   2.242   5.422  0.00  0.00    -0.076 S 
BRANCH  24  25
ATOM     25  C   UNL     1       2.197   2.100   3.941  0.00  0.00    +0.173 C 
BRANCH  25  26
ATOM     26  C   UNL     1       1.337   1.734   2.758  0.00  0.00    +0.224 C 
ATOM     27  O   UNL     1       0.142   1.584   2.901  0.00  0.00    -0.275 OA
ATOM     28  N   UNL     1       1.896   1.573   1.543  0.00  0.00    -0.312 N 
ATOM     29  H   UNL     1       2.852   1.693   1.429  0.00  0.00    +0.149 HD
BRANCH  28  30
ATOM     30  C   UNL     1       1.061   1.218   0.393  0.00  0.00    +0.073 C 
ATOM     31  C   UNL     1       1.900   0.497  -0.682  0.00  0.00    +0.022 C 
ATOM     32  C   UNL     1       1.383   0.987  -2.046  0.00  0.00    +0.002 C 
ATOM     33  C   UNL     1       0.246   1.988  -1.753  0.00  0.00    +0.002 C 
ATOM     34  C   UNL     1       0.546   2.493  -0.320  0.00  0.00    +0.022 C 
ENDBRANCH  28  30
ENDBRANCH  25  26
ENDBRANCH  24  25
ENDBRANCH  12  24
TORSDOF 6
