REMARK  Name = ZINC13064483
REMARK  11 active torsions:
REMARK  status: ('A' for Active; 'I' for Inactive)
REMARK    1  A    between atoms: C_1  and  C_2
REMARK    2  A    between atoms: C_2  and  C_3
REMARK    3  A    between atoms: C_3  and  C_5
REMARK    4  A    between atoms: C_3  and  N_66
REMARK    5  A    between atoms: N_9  and  C_10
REMARK    6  A    between atoms: C_10  and  C_11
REMARK    7  A    between atoms: C_11  and  O_12
REMARK    8  A    between atoms: O_12  and  C_13
REMARK    9  A    between atoms: C_14  and  C_15
REMARK   10  A    between atoms: C_14  and  N_66
REMARK   11  A    between atoms: C_31  and  N_66
REMARK                            x       y       z     vdW  Elec       q    Type
REMARK                         _______ _______ _______ _____ _____    ______ ____
ROOT
ATOM      1  N   UNL     1       0.883  -0.647  -1.033  0.00  0.00    +0.391 N 
ATOM      2  H   UNL     1       1.735  -0.257  -0.612  0.00  0.00    -0.080 HD
ENDROOT
BRANCH   1   3
ATOM      3  C   UNL     1       0.827  -0.253  -2.456  0.00  0.00    -0.067 C 
ATOM      4  C   UNL     1      -0.527  -0.640  -3.086  0.00  0.00    -0.015 C 
ATOM      5  C   UNL     1      -0.164  -1.079  -4.527  0.00  0.00    -0.002 C 
ATOM      6  C   UNL     1       1.179  -1.826  -4.329  0.00  0.00    -0.002 C 
ATOM      7  C   UNL     1       1.911  -1.006  -3.246  0.00  0.00    -0.015 C 
ENDBRANCH   1   3
BRANCH   1   8
ATOM      8  C   UNL     1      -0.294  -0.116  -0.314  0.00  0.00    +0.003 C 
BRANCH   8   9
ATOM      9  C   UNL     1      -0.634   1.249  -0.855  0.00  0.00    +0.138 A 
ATOM     10  N   UNL     1       0.208   2.216  -1.127  0.00  0.00    -0.115 NA
ATOM     11  N   UNL     1      -0.467   3.220  -1.569  0.00  0.00    -0.023 NA
ATOM     12  N   UNL     1      -1.719   2.919  -1.586  0.00  0.00    -0.044 NA
ATOM     13  N   UNL     1      -1.862   1.711  -1.158  0.00  0.00    -0.229 N 
BRANCH  13  14
ATOM     14  C   UNL     1      -3.124   0.979  -1.023  0.00  0.00    +0.175 C 
BRANCH  14  15
ATOM     15  C   UNL     1      -3.708   1.222   0.370  0.00  0.00    +0.183 C 
BRANCH  15  16
ATOM     16  O   UNL     1      -4.939   0.509   0.502  0.00  0.00    -0.381 OA
ATOM     17  C   UNL     1      -5.571   0.669   1.774  0.00  0.00    +0.194 C 
ENDBRANCH  15  16
ENDBRANCH  14  15
ENDBRANCH  13  14
ENDBRANCH   8   9
BRANCH   8  19
ATOM     18  C   UNL     1       1.146   1.046   1.365  0.00  0.00    +0.002 C 
ATOM     19  C   UNL     1       0.050  -0.004   1.172  0.00  0.00    -0.011 C 
ENDBRANCH   8  19
ENDBRANCH   1   8
BRANCH   1  20
ATOM     20  C   UNL     1       0.923  -2.120  -0.918  0.00  0.00    -0.036 C 
BRANCH  20  21
ATOM     21  C   UNL     1      -0.455  -2.701  -1.108  0.00  0.00    +0.001 A 
ATOM     22  C   UNL     1      -0.805  -3.231  -2.308  0.00  0.00    +0.017 A 
ATOM     23  C   UNL     1      -2.147  -3.792  -2.459  0.00  0.00    +0.002 A 
ATOM     24  C   UNL     1      -2.562  -4.356  -3.671  0.00  0.00    +0.059 A 
ATOM     25  C   UNL     1      -3.835  -4.873  -3.785  0.00  0.00    +0.163 A 
ATOM     26  C   UNL     1      -4.711  -4.836  -2.696  0.00  0.00    +0.164 A 
ATOM     27  C   UNL     1      -4.309  -4.279  -1.494  0.00  0.00    +0.075 A 
ATOM     28  C   UNL     1      -3.031  -3.753  -1.363  0.00  0.00    +0.053 A 
ATOM     29  N   UNL     1      -2.614  -3.194  -0.172  0.00  0.00    -0.322 N 
ATOM     30  H   UNL     1      -3.224  -3.167   0.583  0.00  0.00    +0.169 HD
ATOM     31  C   UNL     1      -1.376  -2.686  -0.042  0.00  0.00    +0.251 A 
ATOM     32  O   UNL     1      -1.042  -2.200   1.025  0.00  0.00    -0.268 OA
ATOM     33  O   UNL     1      -5.967  -5.348  -2.799  0.00  0.00    -0.485 OA
ATOM     34  C   UNL     1      -6.469  -5.561  -4.123  0.00  0.00    +0.270 C 
ATOM     35  C   UNL     1      -5.379  -6.263  -4.944  0.00  0.00    +0.270 C 
ATOM     36  O   UNL     1      -4.225  -5.417  -4.972  0.00  0.00    -0.485 OA
ENDBRANCH  20  21
ENDBRANCH   1  20
TORSDOF 9
