REMARK  Name = ZINC22475481
REMARK  9 active torsions:
REMARK  status: ('A' for Active; 'I' for Inactive)
REMARK    1  A    between atoms: C_1  and  C_2
REMARK    2  A    between atoms: C_3  and  C_12
REMARK    3  A    between atoms: C_5  and  C_7
REMARK    4  A    between atoms: C_12  and  C_13
REMARK    5  A    between atoms: N_15  and  C_16
REMARK    6  A    between atoms: C_19  and  S_22
REMARK    7  A    between atoms: S_22  and  N_25
REMARK    8  A    between atoms: C_27  and  C_34
REMARK    9  A    between atoms: C_30  and  C_33
REMARK                            x       y       z     vdW  Elec       q    Type
REMARK                         _______ _______ _______ _____ _____    ______ ____
ROOT
ATOM      1  C   UNL     1       3.929   4.376   2.489  0.00  0.00    +0.034 A 
ATOM      2  C   UNL     1       3.150   5.449   2.076  0.00  0.00    +0.025 A 
ATOM      3  C   UNL     1       3.730   6.687   1.881  0.00  0.00    +0.030 A 
ATOM      4  C   UNL     1       5.087   6.856   2.084  0.00  0.00    +0.106 A 
ATOM      5  C   UNL     1       5.867   5.788   2.489  0.00  0.00    +0.030 A 
ATOM      6  C   UNL     1       5.292   4.549   2.692  0.00  0.00    +0.025 A 
ENDROOT
BRANCH   1   9
ATOM      7  C   UNL     1       3.796   2.319   3.676  0.00  0.00    +0.223 C 
ATOM      8  O   UNL     1       4.765   2.646   4.328  0.00  0.00    -0.275 OA
ATOM      9  N   UNL     1       3.343   3.122   2.694  0.00  0.00    -0.285 N 
ATOM     10  H   UNL     1       2.512   2.792   2.053  0.00  0.00    +0.155 HD
BRANCH   7  11
ATOM     11  C   UNL     1       3.099   1.014   3.965  0.00  0.00    +0.155 C 
BRANCH  11  14
ATOM     12  C   UNL     1       2.447   1.325   7.005  0.00  0.00    +0.088 C 
ATOM     13  C   UNL     1       3.517   0.447   6.408  0.00  0.00    +0.126 A 
ATOM     14  C   UNL     1       3.799   0.311   5.100  0.00  0.00    +0.092 A 
ATOM     15  N   UNL     1       4.813  -0.559   4.985  0.00  0.00    -0.213 NA
ATOM     16  C   UNL     1       5.160  -0.961   6.188  0.00  0.00    +0.234 A 
ATOM     17  O   UNL     1       4.372  -0.345   7.087  0.00  0.00    -0.440 OA
BRANCH  16  18
ATOM     18  C   UNL     1       6.233  -1.918   6.498  0.00  0.00    +0.074 A 
ATOM     19  C   UNL     1       6.658  -2.382   7.729  0.00  0.00    +0.021 A 
ATOM     20  C   UNL     1       7.691  -3.289   7.766  0.00  0.00    +0.008 A 
ATOM     21  C   UNL     1       8.265  -3.690   6.601  0.00  0.00    +0.046 A 
ATOM     22  S   UNL     1       7.332  -2.777   5.384  0.00  0.00    -0.092 S 
ENDBRANCH  16  18
ENDBRANCH  11  14
ENDBRANCH   7  11
ENDBRANCH   1   9
BRANCH   4  23
ATOM     23  S   UNL     1       5.825   8.435   1.827  0.00  0.00    +0.061 S 
ATOM     24  O   UNL     1       4.790   9.397   1.979  0.00  0.00    -0.153 OA
ATOM     25  O   UNL     1       7.010   8.462   2.610  0.00  0.00    -0.153 OA
BRANCH  23  26
ATOM     26  N   UNL     1       6.303   8.500   0.243  0.00  0.00    -0.176 NA
ATOM     27  C   UNL     1       7.648   8.061  -0.152  0.00  0.00    +0.112 C 
ATOM     28  C   UNL     1       8.327   9.181  -0.937  0.00  0.00    +0.002 C 
ATOM     29  C   UNL     1       7.432   9.596  -2.108  0.00  0.00    +0.009 C 
ATOM     30  C   UNL     1       6.098  10.119  -1.571  0.00  0.00    +0.002 C 
ATOM     31  C   UNL     1       5.392   9.004  -0.794  0.00  0.00    +0.112 C 
ATOM     32  C   UNL     1       5.217  10.563  -2.741  0.00  0.00    +0.009 C 
ATOM     33  C   UNL     1       9.674   8.690  -1.473  0.00  0.00    +0.009 C 
ENDBRANCH  23  26
ENDBRANCH   4  23
TORSDOF 6
