REMARK  Name = ZINC36586233
REMARK  14 active torsions:
REMARK  status: ('A' for Active; 'I' for Inactive)
REMARK    1  A    between atoms: C_1  and  C_2
REMARK    2  A    between atoms: C_2  and  C_3
REMARK    3  A    between atoms: C_3  and  C_4
REMARK    4  A    between atoms: C_4  and  N_5
REMARK    5  A    between atoms: C_6  and  C_8
REMARK    6  A    between atoms: C_8  and  C_10
REMARK    7  A    between atoms: C_8  and  N_13
REMARK    8  A    between atoms: C_11  and  C_12
REMARK    9  A    between atoms: N_13  and  C_24
REMARK   10  A    between atoms: C_14  and  C_16
REMARK   11  A    between atoms: C_17  and  C_18
REMARK   12  A    between atoms: C_24  and  C_25
REMARK   13  A    between atoms: C_24  and  C_26
REMARK   14  A    between atoms: C_24  and  C_27
REMARK                            x       y       z     vdW  Elec       q    Type
REMARK                         _______ _______ _______ _____ _____    ______ ____
ROOT
ATOM      1  N   UNL     1       2.438  -5.589  -3.966  0.00  0.00    -0.271 N 
ATOM      2  C   UNL     1       2.194  -6.106  -5.186  0.00  0.00    +0.293 C 
ATOM      3  O   UNL     1       1.890  -5.373  -6.109  0.00  0.00    -0.260 OA
ENDROOT
BRANCH   1   4
ATOM      4  C   UNL     1       2.916  -6.455  -2.886  0.00  0.00    +0.031 C 
ATOM      5  C   UNL     1       3.185  -5.612  -1.637  0.00  0.00    +0.031 C 
ATOM      6  C   UNL     1       1.854  -7.510  -2.570  0.00  0.00    +0.031 C 
ATOM      7  C   UNL     1       4.209  -7.147  -3.321  0.00  0.00    +0.031 C 
ENDBRANCH   1   4
BRANCH   2   8
ATOM      8  C   UNL     1       2.291  -7.519  -5.397  0.00  0.00    -0.003 C 
ATOM      9  C   UNL     1       2.372  -8.678  -5.571  0.00  0.00    -0.057 C 
BRANCH   9  10
ATOM     10  C   UNL     1       2.469 -10.091  -5.782  0.00  0.00    +0.025 A 
ATOM     11  C   UNL     1       2.812 -10.937  -4.723  0.00  0.00    +0.017 A 
ATOM     12  C   UNL     1       2.904 -12.297  -4.934  0.00  0.00    +0.001 A 
ATOM     13  C   UNL     1       2.658 -12.824  -6.190  0.00  0.00    +0.000 A 
ATOM     14  C   UNL     1       2.318 -11.992  -7.243  0.00  0.00    +0.001 A 
ATOM     15  C   UNL     1       2.216 -10.631  -7.046  0.00  0.00    +0.017 A 
ENDBRANCH   9  10
ENDBRANCH   2   8
BRANCH   1  16
ATOM     16  C   UNL     1       2.226  -4.160  -3.720  0.00  0.00    +0.186 C 
BRANCH  16  18
ATOM     17  N   UNL     1       3.396  -2.051  -4.270  0.00  0.00    -0.314 N 
ATOM     18  C   UNL     1       3.207  -3.359  -4.536  0.00  0.00    +0.238 C 
ATOM     19  O   UNL     1       3.828  -3.891  -5.433  0.00  0.00    -0.273 OA
ATOM     20  H   UNL     1       2.899  -1.626  -3.553  0.00  0.00    +0.149 HD
BRANCH  17  21
ATOM     21  C   UNL     1       4.349  -1.272  -5.063  0.00  0.00    +0.104 C 
BRANCH  21  22
ATOM     22  C   UNL     1       4.372   0.172  -4.560  0.00  0.00    +0.018 C 
BRANCH  22  24
ATOM     23  C   UNL     1       5.391   2.431  -4.884  0.00  0.00    +0.004 C 
ATOM     24  C   UNL     1       5.368   0.986  -5.388  0.00  0.00    -0.002 C 
ENDBRANCH  22  24
ENDBRANCH  21  22
ENDBRANCH  17  21
ENDBRANCH  16  18
BRANCH  16  25
ATOM     25  C   UNL     1       0.821  -3.786  -4.115  0.00  0.00    +0.000 C 
ATOM     26  C   UNL     1       0.029  -3.206  -3.248  0.00  0.00    -0.032 C 
ATOM     27  C   UNL     1       0.503  -2.967  -1.837  0.00  0.00    +0.035 C 
ENDBRANCH  16  25
ENDBRANCH   1  16
TORSDOF 9
