REMARK  Name = ZINC33359340
REMARK  3 active torsions:
REMARK  status: ('A' for Active; 'I' for Inactive)
REMARK    1  A    between atoms: C_1  and  S_2
REMARK    2  A    between atoms: S_2  and  C_3
REMARK    3  A    between atoms: C_9  and  C_11
REMARK                            x       y       z     vdW  Elec       q    Type
REMARK                         _______ _______ _______ _____ _____    ______ ____
ROOT
ATOM      1  C   UNL     1       0.848  -0.411  -1.489  0.00  0.00    +0.169 A 
ATOM      2  N   UNL     1       1.040  -1.719  -1.815  0.00  0.00    -0.302 N 
ATOM      3  H   UNL     1       0.712  -2.420  -1.229  0.00  0.00    +0.171 HD
ATOM      4  C   UNL     1       1.687  -2.038  -2.956  0.00  0.00    +0.252 A 
ATOM      5  O   UNL     1       1.867  -3.205  -3.264  0.00  0.00    -0.268 OA
ATOM      6  C   UNL     1       2.150  -1.000  -3.783  0.00  0.00    +0.093 A 
ATOM      7  C   UNL     1       1.929   0.293  -3.405  0.00  0.00    +0.052 A 
ATOM      8  N   UNL     1       1.281   0.557  -2.273  0.00  0.00    -0.228 NA
ENDROOT
BRANCH   7   9
ATOM      9  C   UNL     1       2.416   1.424  -4.275  0.00  0.00    +0.042 C 
ATOM     10  C   UNL     1       3.392   2.298  -3.481  0.00  0.00    +0.038 C 
ATOM     11  C   UNL     1       3.819   3.487  -4.345  0.00  0.00    +0.160 C 
ATOM     12  O   UNL     1       2.662   4.223  -4.746  0.00  0.00    -0.380 OA
ATOM     13  C   UNL     1       1.736   3.470  -5.532  0.00  0.00    +0.160 C 
ATOM     14  C   UNL     1       1.224   2.280  -4.716  0.00  0.00    +0.038 C 
ENDBRANCH   7   9
BRANCH   1  16
ATOM     15  C   UNL     1      -0.022   1.810   0.012  0.00  0.00    +0.093 C 
ATOM     16  S   UNL     1       0.002  -0.004   0.002  0.00  0.00    -0.091 S 
ENDBRANCH   1  16
TORSDOF 2
