REMARK  Name = ZINC10166095
REMARK  9 active torsions:
REMARK  status: ('A' for Active; 'I' for Inactive)
REMARK    1  A    between atoms: C_1  and  C_2
REMARK    2  A    between atoms: N_8  and  C_9
REMARK    3  A    between atoms: C_9  and  C_10
REMARK    4  A    between atoms: C_15  and  C_25
REMARK    5  A    between atoms: C_17  and  C_21
REMARK    6  A    between atoms: C_18  and  N_20
REMARK    7  A    between atoms: C_21  and  O_23
REMARK    8  A    between atoms: O_23  and  C_24
REMARK    9  A    between atoms: C_28  and  C_31
REMARK                            x       y       z     vdW  Elec       q    Type
REMARK                         _______ _______ _______ _____ _____    ______ ____
ROOT
ATOM      1  C   UNL     1      -1.685  -0.554  -1.126  0.00  0.00    +0.064 C 
ATOM      2  C   UNL     1      -1.478   0.819  -1.713  0.00  0.00    +0.023 A 
ATOM      3  C   UNL     1      -2.172   1.184  -2.812  0.00  0.00    +0.068 A 
ATOM      4  C   UNL     1      -1.978   2.465  -3.370  0.00  0.00    +0.141 A 
ATOM      5  C   UNL     1      -1.082   3.325  -2.771  0.00  0.00    +0.071 A 
ATOM      6  C   UNL     1      -0.389   2.904  -1.629  0.00  0.00    +0.259 A 
ATOM      7  O   UNL     1       0.408   3.655  -1.088  0.00  0.00    -0.267 OA
ATOM      8  N   UNL     1      -0.600   1.673  -1.127  0.00  0.00    -0.305 N 
ATOM      9  C   UNL     1      -0.845   4.700  -3.330  0.00  0.00    +0.100 C 
ATOM     10  C   UNL     1      -1.368   4.784  -4.738  0.00  0.00    +0.105 C 
ATOM     11  C   UNL     1      -2.235   3.859  -5.221  0.00  0.00    +0.195 C 
ATOM     12  O   UNL     1      -2.666   2.830  -4.473  0.00  0.00    -0.441 OA
ENDROOT
BRANCH   9  13
ATOM     13  C   UNL     1      -1.554   5.717  -2.473  0.00  0.00    -0.035 A 
ATOM     14  C   UNL     1      -2.926   5.654  -2.318  0.00  0.00    +0.005 A 
ATOM     15  C   UNL     1      -3.576   6.584  -1.528  0.00  0.00    +0.012 A 
ATOM     16  C   UNL     1      -2.855   7.583  -0.901  0.00  0.00    +0.055 A 
ATOM     17  C   UNL     1      -1.483   7.649  -1.060  0.00  0.00    +0.012 A 
ATOM     18  C   UNL     1      -0.833   6.716  -1.846  0.00  0.00    +0.005 A 
BRANCH  16  19
ATOM     19  C   UNL     1      -3.564   8.600  -0.044  0.00  0.00    +0.417 C 
ATOM     20  F   UNL     1      -3.942   9.691  -0.833  0.00  0.00    -0.166 F 
ATOM     21  F   UNL     1      -4.702   8.018   0.525  0.00  0.00    -0.166 F 
ATOM     22  F   UNL     1      -2.705   9.034   0.972  0.00  0.00    -0.166 F 
ENDBRANCH  16  19
ENDBRANCH   9  13
BRANCH  11  23
ATOM     23  N   UNL     1      -2.684   3.977  -6.509  0.00  0.00    -0.329 N 
ATOM     24  H   UNL     1      -2.089   4.304  -7.202  0.00  0.00    +0.145 HD
ATOM     25  H   UNL     1      -3.597   3.735  -6.729  0.00  0.00    +0.145 HD
ENDBRANCH  11  23
BRANCH  10  26
ATOM     26  C   UNL     1      -0.952   5.837  -5.566  0.00  0.00    +0.341 C 
ATOM     27  O   UNL     1      -1.450   5.978  -6.669  0.00  0.00    -0.245 OA
BRANCH  26  28
ATOM     28  O   UNL     1      -0.000   6.696  -5.140  0.00  0.00    -0.465 OA
ATOM     29  C   UNL     1       0.375   7.745  -6.035  0.00  0.00    +0.280 C 
ENDBRANCH  26  28
ENDBRANCH  10  26
BRANCH   8  30
ATOM     30  C   UNL     1       0.133   1.246   0.068  0.00  0.00    +0.199 C 
BRANCH  30  31
ATOM     31  C   UNL     1       1.440   0.619  -0.342  0.00  0.00    +0.125 A 
ATOM     32  C   UNL     1       2.607   1.268  -0.504  0.00  0.00    +0.046 A 
ATOM     33  C   UNL     1       3.564   0.301  -0.890  0.00  0.00    +0.041 A 
ATOM     34  C   UNL     1       2.924  -0.881  -0.940  0.00  0.00    +0.195 A 
ATOM     35  O   UNL     1       1.640  -0.683  -0.602  0.00  0.00    -0.466 OA
ENDBRANCH  30  31
ENDBRANCH   8  30
TORSDOF 7
