REMARK  Name = ZINC32772199
REMARK  10 active torsions:
REMARK  status: ('A' for Active; 'I' for Inactive)
REMARK    1  A    between atoms: C_1  and  C_2
REMARK    2  A    between atoms: C_2  and  C_4
REMARK    3  A    between atoms: C_2  and  N_7
REMARK    4  A    between atoms: C_4  and  O_5
REMARK    5  A    between atoms: O_5  and  C_6
REMARK    6  A    between atoms: C_8  and  C_23
REMARK    7  A    between atoms: N_12  and  C_13
REMARK    8  A    between atoms: C_17  and  N_19
REMARK    9  A    between atoms: C_20  and  C_22
REMARK   10  A    between atoms: C_26  and  N_29
REMARK                            x       y       z     vdW  Elec       q    Type
REMARK                         _______ _______ _______ _____ _____    ______ ____
ROOT
ATOM      1  N   UNL     1      -0.009   0.072  -0.431  0.00  0.00    -0.316 N 
ATOM      2  C   UNL     1       1.158  -0.639  -0.488  0.00  0.00    +0.058 A 
ATOM      3  C   UNL     1       2.328   0.010  -0.664  0.00  0.00    +0.075 A 
ATOM      4  S   UNL     1       1.799   1.713  -0.759  0.00  0.00    -0.059 S 
ATOM      5  C   UNL     1       0.046   1.440  -0.556  0.00  0.00    +0.152 A 
ATOM      6  N   UNL     1      -0.938   2.320  -0.537  0.00  0.00    -0.336 N 
ATOM      7  H   UNL     1      -1.982   1.976  -0.484  0.00  0.00    +0.168 HD
ENDROOT
BRANCH   6   8
ATOM      8  C   UNL     1      -0.661   3.658  -0.583  0.00  0.00    +0.043 A 
ATOM      9  C   UNL     1      -0.672   4.335  -1.806  0.00  0.00    +0.026 A 
ATOM     10  C   UNL     1      -0.392   5.685  -1.849  0.00  0.00    +0.004 A 
ATOM     11  C   UNL     1      -0.100   6.373  -0.685  0.00  0.00    +0.023 A 
ATOM     12  C   UNL     1      -0.086   5.709   0.536  0.00  0.00    +0.035 A 
ATOM     13  C   UNL     1      -0.370   4.354   0.592  0.00  0.00    +0.049 A 
BRANCH  12  14
ATOM     14  N   UNL     1       0.211   6.410   1.710  0.00  0.00    -0.286 N 
ATOM     15  C   UNL     1       0.875   5.799   2.711  0.00  0.00    +0.214 C 
ATOM     16  O   UNL     1       1.300   4.673   2.558  0.00  0.00    -0.276 OA
ATOM     17  C   UNL     1       1.091   6.514   4.020  0.00  0.00    +0.109 C 
ATOM     18  H   UNL     1      -0.099   7.460   1.817  0.00  0.00    +0.155 HD
ENDBRANCH  12  14
ENDBRANCH   6   8
BRANCH   2  19
ATOM     19  C   UNL     1       1.139  -2.112  -0.357  0.00  0.00    -0.001 A 
ATOM     20  C   UNL     1       0.452  -2.712   0.700  0.00  0.00    +0.012 A 
ATOM     21  C   UNL     1       0.431  -4.085   0.816  0.00  0.00    +0.024 A 
ATOM     22  C   UNL     1       1.101  -4.872  -0.113  0.00  0.00    +0.036 A 
ATOM     23  C   UNL     1       1.790  -4.279  -1.164  0.00  0.00    +0.024 A 
ATOM     24  C   UNL     1       1.811  -2.906  -1.288  0.00  0.00    +0.012 A 
BRANCH  22  25
ATOM     25  N   UNL     1       1.083  -6.266   0.011  0.00  0.00    -0.271 N 
ATOM     26  C   UNL     1       0.490  -6.989   1.142  0.00  0.00    +0.114 C 
ATOM     27  C   UNL     1       0.309  -8.444   0.649  0.00  0.00    +0.029 C 
ATOM     28  C   UNL     1       1.402  -8.544  -0.440  0.00  0.00    +0.098 C 
ATOM     29  C   UNL     1       1.611  -7.114  -0.889  0.00  0.00    +0.220 C 
ATOM     30  O   UNL     1       2.172  -6.782  -1.911  0.00  0.00    -0.275 OA
ENDBRANCH  22  25
ENDBRANCH   2  19
BRANCH   1  32
ATOM     31  C   UNL     1      -1.570  -1.517  -1.440  0.00  0.00    +0.033 C 
ATOM     32  C   UNL     1      -1.291  -0.610  -0.240  0.00  0.00    +0.112 C 
BRANCH  32  33
ATOM     33  C   UNL     1      -2.408   0.429  -0.116  0.00  0.00    +0.184 C 
BRANCH  33  34
ATOM     34  O   UNL     1      -2.220   1.190   1.079  0.00  0.00    -0.381 OA
ATOM     35  C   UNL     1      -3.279   2.109   1.356  0.00  0.00    +0.194 C 
ENDBRANCH  33  34
ENDBRANCH  32  33
ENDBRANCH   1  32
TORSDOF 7
