REMARK  Name = ZINC63571690
REMARK  7 active torsions:
REMARK  status: ('A' for Active; 'I' for Inactive)
REMARK    1  A    between atoms: C_1  and  C_2
REMARK    2  A    between atoms: C_5  and  C_8
REMARK    3  A    between atoms: N_25  and  C_26
REMARK    4  A    between atoms: C_26  and  C_27
REMARK    5  A    between atoms: C_27  and  C_28
REMARK    6  A    between atoms: C_28  and  C_29
REMARK    7  A    between atoms: C_28  and  C_30
REMARK                            x       y       z     vdW  Elec       q    Type
REMARK                         _______ _______ _______ _____ _____    ______ ____
ROOT
ATOM      1  C   UNL     1       0.058  -4.278  -0.020  0.00  0.00    +0.134 C 
ATOM      2  C   UNL     1      -1.320  -4.813   0.387  0.00  0.00    +0.131 C 
ATOM      3  C   UNL     1      -1.485  -4.505   1.869  0.00  0.00    -0.035 C 
ATOM      4  C   UNL     1      -2.604  -3.799   1.984  0.00  0.00    -0.001 A 
ATOM      5  C   UNL     1      -3.317  -3.277   3.160  0.00  0.00    +0.010 A 
ATOM      6  C   UNL     1      -4.452  -2.572   2.910  0.00  0.00    +0.001 A 
ATOM      7  C   UNL     1      -4.944  -2.339   1.622  0.00  0.00    +0.002 A 
ATOM      8  C   UNL     1      -4.356  -2.785   0.483  0.00  0.00    +0.026 A 
ATOM      9  C   UNL     1      -3.156  -3.543   0.618  0.00  0.00    +0.043 A 
ATOM     10  N   UNL     1      -2.402  -4.112  -0.306  0.00  0.00    -0.375 N 
ATOM     11  C   UNL     1      -0.460  -4.909   2.900  0.00  0.00    +0.052 C 
ATOM     12  C   UNL     1       0.905  -4.420   2.383  0.00  0.00    +0.114 C 
ATOM     13  N   UNL     1       1.040  -4.763   0.962  0.00  0.00    -0.276 N 
ATOM     14  C   UNL     1       2.070  -5.529   0.553  0.00  0.00    +0.303 C 
ATOM     15  O   UNL     1       2.240  -5.737  -0.632  0.00  0.00    -0.253 OA
ATOM     16  N   UNL     1       2.912  -6.066   1.459  0.00  0.00    -0.299 N 
ATOM     17  H   UNL     1       2.733  -5.963   2.407  0.00  0.00    +0.150 HD
ATOM     18  H   UNL     1      -2.530  -4.074  -1.267  0.00  0.00    +0.160 HD
ENDROOT
BRANCH   1  23
ATOM     19  C   UNL     1      -0.016   1.500  -0.029  0.00  0.00    +0.044 C 
ATOM     20  C   UNL     1       0.003  -0.006  -0.027  0.00  0.00    -0.050 A 
ATOM     21  C   UNL     1       0.269  -0.696  -1.195  0.00  0.00    +0.004 A 
ATOM     22  C   UNL     1       0.287  -2.078  -1.193  0.00  0.00    +0.006 A 
ATOM     23  C   UNL     1       0.039  -2.771  -0.022  0.00  0.00    -0.025 A 
ATOM     24  C   UNL     1      -0.226  -2.081   1.146  0.00  0.00    +0.006 A 
ATOM     25  C   UNL     1      -0.239  -0.699   1.145  0.00  0.00    +0.004 A 
ENDBRANCH   1  23
BRANCH  16  26
ATOM     26  C   UNL     1       4.096  -6.803   1.012  0.00  0.00    +0.106 C 
BRANCH  26  27
ATOM     27  C   UNL     1       4.875  -7.303   2.230  0.00  0.00    +0.022 C 
BRANCH  27  28
ATOM     28  C   UNL     1       6.112  -8.073   1.763  0.00  0.00    -0.016 C 
ATOM     29  C   UNL     1       6.957  -8.466   2.977  0.00  0.00    +0.007 C 
ATOM     30  C   UNL     1       5.675  -9.335   1.016  0.00  0.00    +0.007 C 
ENDBRANCH  27  28
ENDBRANCH  26  27
ENDBRANCH  16  26
TORSDOF 4
