REMARK  Name = ZINC11677345
REMARK  7 active torsions:
REMARK  status: ('A' for Active; 'I' for Inactive)
REMARK    1  A    between atoms: C_1  and  C_2
REMARK    2  A    between atoms: C_2  and  C_4
REMARK    3  A    between atoms: C_2  and  S_15
REMARK    4  A    between atoms: N_6  and  C_7
REMARK    5  A    between atoms: S_15  and  C_16
REMARK    6  A    between atoms: N_20  and  C_21
REMARK    7  A    between atoms: C_21  and  C_22
REMARK                            x       y       z     vdW  Elec       q    Type
REMARK                         _______ _______ _______ _____ _____    ______ ____
ROOT
ATOM      1  C   UNL     1       1.587   2.467  -1.399  0.00  0.00    +0.029 C 
ATOM      2  C   UNL     1       1.280   1.979   0.018  0.00  0.00    +0.137 C 
ENDROOT
BRANCH   2   3
ATOM      3  C   UNL     1      -0.015   1.208   0.015  0.00  0.00    +0.230 C 
ATOM      4  O   UNL     1       0.001  -0.004   0.004  0.00  0.00    -0.274 OA
ATOM      5  N   UNL     1      -1.191   1.867   0.018  0.00  0.00    -0.284 N 
ATOM      6  H   UNL     1      -1.205   2.834   0.092  0.00  0.00    +0.155 HD
BRANCH   5   7
ATOM      7  C   UNL     1      -2.392   1.155  -0.086  0.00  0.00    +0.048 A 
ATOM      8  C   UNL     1      -2.510  -0.099   0.499  0.00  0.00    +0.025 A 
ATOM      9  C   UNL     1      -3.696  -0.799   0.395  0.00  0.00    +0.017 A 
ATOM     10  C   UNL     1      -4.766  -0.253  -0.291  0.00  0.00    +0.019 A 
ATOM     11  C   UNL     1      -4.651   0.996  -0.876  0.00  0.00    +0.032 A 
ATOM     12  C   UNL     1      -3.469   1.704  -0.770  0.00  0.00    +0.040 A 
ATOM     13 BR   UNL     1      -3.316   3.414  -1.562  0.00  0.00    -0.048 Br
ATOM     14 BR   UNL     1      -6.388  -1.215  -0.431  0.00  0.00    -0.050 Br
ENDBRANCH   5   7
ENDBRANCH   2   3
BRANCH   2  15
ATOM     15  S   UNL     1       2.620   0.904   0.589  0.00  0.00    -0.072 S 
BRANCH  15  16
ATOM     16  C   UNL     1       3.944   2.066   0.639  0.00  0.00    +0.210 A 
ATOM     17  N   UNL     1       3.876   3.343   0.329  0.00  0.00    -0.101 NA
ATOM     18  N   UNL     1       5.022   3.903   0.475  0.00  0.00    -0.022 NA
ATOM     19  N   UNL     1       5.892   3.044   0.882  0.00  0.00    -0.043 NA
ATOM     20  N   UNL     1       5.221   1.815   1.011  0.00  0.00    -0.213 N 
BRANCH  20  21
ATOM     21  C   UNL     1       5.785   0.536   1.450  0.00  0.00    +0.222 C 
BRANCH  21  22
ATOM     22  C   UNL     1       6.307  -0.220   0.255  0.00  0.00    +0.126 A 
ATOM     23  C   UNL     1       7.553  -0.137  -0.245  0.00  0.00    +0.046 A 
ATOM     24  C   UNL     1       7.607  -1.010  -1.356  0.00  0.00    +0.041 A 
ATOM     25  C   UNL     1       6.389  -1.568  -1.473  0.00  0.00    +0.195 A 
ATOM     26  O   UNL     1       5.605  -1.085  -0.495  0.00  0.00    -0.466 OA
ENDBRANCH  21  22
ENDBRANCH  20  21
ENDBRANCH  15  16
ENDBRANCH   2  15
TORSDOF 6
