REMARK  Name = ZINC04394809
REMARK  2 active torsions:
REMARK  status: ('A' for Active; 'I' for Inactive)
REMARK    1  A    between atoms: C_1  and  N_2
REMARK    2  A    between atoms: C_5  and  C_7
REMARK                            x       y       z     vdW  Elec       q    Type
REMARK                         _______ _______ _______ _____ _____    ______ ____
ROOT
ATOM      1  C   UNL     1       2.382   1.328  -0.014  0.00  0.00    +0.188 C 
ATOM      2  N   UNL     1       1.104   2.080   0.003  0.00  0.00    -0.223 NA
ATOM      3  N   UNL     1      -0.016   1.343   0.009  0.00  0.00    -0.267 N 
ATOM      4  C   UNL     1       0.002  -0.004   0.002  0.00  0.00    +0.122 C 
ATOM      5  S   UNL     1      -1.327  -1.083   0.009  0.00  0.00    -0.027 S 
ATOM      6  S   UNL     1       1.745  -0.395  -0.017  0.00  0.00    -0.075 S 
ATOM      7  H   UNL     1       1.080   2.768  -0.735  0.00  0.00    +0.146 HD
ATOM      8  H   UNL     1      -0.999   1.837   0.021  0.00  0.00    +0.167 HD
ENDROOT
BRANCH   1  13
ATOM      9  C   UNL     1       4.455   3.694  -3.925  0.00  0.00    +0.172 C 
ATOM     10  N   UNL     1       4.089   2.636  -2.980  0.00  0.00    -0.273 N 
ATOM     11  C   UNL     1       4.487   1.347  -3.038  0.00  0.00    +0.128 A 
ATOM     12  C   UNL     1       3.934   0.697  -1.987  0.00  0.00    +0.084 A 
ATOM     13  C   UNL     1       3.172   1.621  -1.263  0.00  0.00    +0.110 A 
ATOM     14  N   UNL     1       3.260   2.781  -1.861  0.00  0.00    -0.172 NA
ATOM     15 CL   UNL     1       4.135  -0.984  -1.605  0.00  0.00    -0.080 Cl
ENDBRANCH   1  13
TORSDOF 1
