REMARK  Name = ZINC36032531
REMARK  8 active torsions:
REMARK  status: ('A' for Active; 'I' for Inactive)
REMARK    1  A    between atoms: C_1  and  C_2
REMARK    2  A    between atoms: C_2  and  C_3
REMARK    3  A    between atoms: C_2  and  C_4
REMARK    4  A    between atoms: C_4  and  C_5
REMARK    5  A    between atoms: N_9  and  C_25
REMARK    6  A    between atoms: C_17  and  C_19
REMARK    7  A    between atoms: C_25  and  C_26
REMARK    8  A    between atoms: C_30  and  C_32
REMARK                            x       y       z     vdW  Elec       q    Type
REMARK                         _______ _______ _______ _____ _____    ______ ____
ROOT
ATOM      1  C   UNL     1      -1.103  -1.829  -0.781  0.00  0.00    +0.019 C 
ATOM      2  C   UNL     1      -2.393  -2.409  -0.241  0.00  0.00    +0.201 C 
ATOM      3  O   UNL     1      -2.935  -2.088   0.795  0.00  0.00    -0.277 OA
ATOM      4  N   UNL     1      -2.839  -3.342  -1.109  0.00  0.00    -0.309 N 
ATOM      5  C   UNL     1      -1.908  -3.446  -2.236  0.00  0.00    +0.006 C 
ATOM      6  N   UNL     1      -1.079  -2.221  -2.211  0.00  0.00    +0.401 N 
ATOM      7  C   UNL     1      -2.679  -3.523  -3.552  0.00  0.00    +0.025 C 
ATOM      8  C   UNL     1      -3.561  -4.776  -3.552  0.00  0.00    +0.108 C 
ATOM      9  N   UNL     1      -2.720  -5.946  -3.265  0.00  0.00    -0.298 N 
ATOM     10  C   UNL     1      -1.883  -5.937  -2.058  0.00  0.00    +0.108 C 
ATOM     11  C   UNL     1      -1.015  -4.674  -2.071  0.00  0.00    +0.025 C 
ATOM     12  C   UNL     1      -2.717  -7.009  -4.094  0.00  0.00    +0.247 C 
ATOM     13  O   UNL     1      -3.338  -6.967  -5.139  0.00  0.00    -0.270 OA
ATOM     14  H   UNL     1      -1.491  -1.501  -2.785  0.00  0.00    -0.082 HD
ATOM     15  H   UNL     1      -0.136  -2.421  -2.510  0.00  0.00    -0.082 HD
ENDROOT
BRANCH  12  16
ATOM     16  C   UNL     1      -1.959  -8.226  -3.733  0.00  0.00    +0.037 A 
ATOM     17  C   UNL     1      -1.948  -8.679  -2.413  0.00  0.00    +0.013 A 
ATOM     18  C   UNL     1      -1.239  -9.816  -2.083  0.00  0.00    +0.001 A 
ATOM     19  C   UNL     1      -0.539 -10.505  -3.058  0.00  0.00    +0.000 A 
ATOM     20  C   UNL     1      -0.545 -10.061  -4.368  0.00  0.00    +0.001 A 
ATOM     21  C   UNL     1      -1.255  -8.929  -4.712  0.00  0.00    +0.013 A 
ENDBRANCH  12  16
BRANCH   1  22
ATOM     22  C   UNL     1      -1.106  -0.305  -0.646  0.00  0.00    -0.004 C 
BRANCH  22  24
ATOM     23  C   UNL     1       0.176   1.783  -1.131  0.00  0.00    +0.007 C 
ATOM     24  C   UNL     1       0.226   0.254  -1.149  0.00  0.00    -0.018 C 
ATOM     25  C   UNL     1       1.358  -0.231  -0.242  0.00  0.00    +0.007 C 
ENDBRANCH  22  24
ENDBRANCH   1  22
BRANCH   4  26
ATOM     26  C   UNL     1      -4.064  -4.129  -0.948  0.00  0.00    +0.141 C 
BRANCH  26  27
ATOM     27  C   UNL     1      -5.256  -3.285  -1.319  0.00  0.00    -0.030 A 
ATOM     28  C   UNL     1      -6.130  -2.854  -0.339  0.00  0.00    +0.005 A 
ATOM     29  C   UNL     1      -7.223  -2.080  -0.680  0.00  0.00    +0.001 A 
ATOM     30  C   UNL     1      -7.442  -1.736  -2.001  0.00  0.00    +0.012 A 
ATOM     31  C   UNL     1      -6.567  -2.165  -2.981  0.00  0.00    +0.055 A 
ATOM     32  C   UNL     1      -5.471  -2.936  -2.639  0.00  0.00    +0.017 A 
BRANCH  31  33
ATOM     33  C   UNL     1      -6.805  -1.791  -4.421  0.00  0.00    +0.417 C 
ATOM     34  F   UNL     1      -7.963  -1.012  -4.515  0.00  0.00    -0.166 F 
ATOM     35  F   UNL     1      -5.712  -1.060  -4.900  0.00  0.00    -0.166 F 
ATOM     36  F   UNL     1      -6.961  -2.952  -5.186  0.00  0.00    -0.166 F 
ENDBRANCH  31  33
ENDBRANCH  26  27
ENDBRANCH   4  26
TORSDOF 6
