REMARK  Name = ZINC32856417
REMARK  15 active torsions:
REMARK  status: ('A' for Active; 'I' for Inactive)
REMARK    1  A    between atoms: C_1  and  C_2
REMARK    2  A    between atoms: C_2  and  O_3
REMARK    3  A    between atoms: O_3  and  C_4
REMARK    4  A    between atoms: C_4  and  C_6
REMARK    5  A    between atoms: C_10  and  N_11
REMARK    6  A    between atoms: C_12  and  C_14
REMARK    7  A    between atoms: C_14  and  O_15
REMARK    8  A    between atoms: O_15  and  C_16
REMARK    9  A    between atoms: C_19  and  C_24
REMARK   10  A    between atoms: C_21  and  O_22
REMARK   11  A    between atoms: O_22  and  C_23
REMARK   12  A    between atoms: C_26  and  C_32
REMARK   13  A    between atoms: C_26  and  C_33
REMARK   14  A    between atoms: C_28  and  C_30
REMARK   15  A    between atoms: C_28  and  C_31
REMARK                            x       y       z     vdW  Elec       q    Type
REMARK                         _______ _______ _______ _____ _____    ______ ____
ROOT
ATOM      1  C   UNL     1       5.573  -4.056  -0.076  0.00  0.00    +0.091 A 
ATOM      2  C   UNL     1       6.994  -4.328  -0.096  0.00  0.00    -0.024 A 
ATOM      3  C   UNL     1       7.798  -3.240  -0.092  0.00  0.00    -0.016 A 
ATOM      4  S   UNL     1       6.685  -1.864  -0.072  0.00  0.00    -0.079 S 
ATOM      5  C   UNL     1       5.179  -2.722  -0.064  0.00  0.00    +0.086 A 
ATOM      6  C   UNL     1       9.292  -3.236  -0.094  0.00  0.00    -0.041 C 
ATOM      7  N   UNL     1       9.834  -4.574  -0.304  0.00  0.00    +0.389 N 
ATOM      8  C   UNL     1       8.963  -5.579  -0.893  0.00  0.00    -0.069 C 
ATOM      9  C   UNL     1       7.639  -5.708  -0.130  0.00  0.00    +0.024 C 
ATOM     10  C   UNL     1       8.670  -5.261  -2.362  0.00  0.00    -0.010 C 
ATOM     11  C   UNL     1       9.676  -6.942  -0.836  0.00  0.00    -0.010 C 
ATOM     12  C   UNL     1       9.798  -2.277  -1.181  0.00  0.00    -0.005 C 
ATOM     13  C   UNL     1       9.777  -2.708   1.269  0.00  0.00    -0.005 C 
ATOM     14  H   UNL     1      10.701  -4.517  -0.979  0.00  0.00    -0.084 HD
ATOM     15  H   UNL     1      10.148  -4.999   0.661  0.00  0.00    -0.084 HD
ENDROOT
BRANCH   5  16
ATOM     16  N   UNL     1       3.893  -2.205  -0.049  0.00  0.00    -0.277 N 
ATOM     17  C   UNL     1       3.703  -0.871  -0.039  0.00  0.00    +0.255 C 
ATOM     18  O   UNL     1       4.657  -0.122  -0.044  0.00  0.00    -0.272 OA
ATOM     19  H   UNL     1       3.028  -2.884  -0.044  0.00  0.00    +0.155 HD
BRANCH  17  20
ATOM     20  C   UNL     1       2.304  -0.309  -0.022  0.00  0.00    +0.325 C 
BRANCH  20  21
ATOM     21  O   UNL     1       2.365   1.118  -0.015  0.00  0.00    -0.479 OA
BRANCH  21  22
ATOM     22  C   UNL     1       1.182   1.785   0.000  0.00  0.00    +0.163 A 
ATOM     23  C   UNL     1      -0.013   1.076   0.008  0.00  0.00    +0.050 A 
ATOM     24  C   UNL     1      -1.215   1.746   0.017  0.00  0.00    +0.015 A 
ATOM     25  C   UNL     1      -1.236   3.146   0.031  0.00  0.00    +0.018 A 
ATOM     26  C   UNL     1      -0.031   3.860   0.024  0.00  0.00    +0.060 A 
ATOM     27  C   UNL     1       1.170   3.180   0.008  0.00  0.00    +0.162 A 
BRANCH  27  28
ATOM     28  O   UNL     1       2.342   3.870   0.001  0.00  0.00    -0.491 OA
ATOM     29  C   UNL     1       2.255   5.296   0.009  0.00  0.00    +0.277 C 
ENDBRANCH  27  28
BRANCH  25  30
ATOM     30  C   UNL     1      -2.517   3.864   0.047  0.00  0.00    +0.258 C 
ATOM     31  O   UNL     1      -3.559   3.244   0.054  0.00  0.00    -0.296 OA
ENDBRANCH  25  30
ENDBRANCH  21  22
ENDBRANCH  20  21
ENDBRANCH  17  20
ENDBRANCH   5  16
BRANCH   1  32
ATOM     32  C   UNL     1       4.579  -5.132  -0.063  0.00  0.00    +0.342 C 
ATOM     33  O   UNL     1       4.149  -5.575  -1.111  0.00  0.00    -0.245 OA
BRANCH  32  34
ATOM     34  O   UNL     1       4.141  -5.631   1.111  0.00  0.00    -0.461 OA
BRANCH  34  36
ATOM     35  C   UNL     1       2.782  -7.131   2.466  0.00  0.00    +0.048 C 
ATOM     36  C   UNL     1       3.156  -6.696   1.047  0.00  0.00    +0.229 C 
ENDBRANCH  34  36
ENDBRANCH  32  34
ENDBRANCH   1  32
TORSDOF 9
