REMARK  Name = ZINC00371511
REMARK  5 active torsions:
REMARK  status: ('A' for Active; 'I' for Inactive)
REMARK    1  A    between atoms: C_1  and  C_2
REMARK    2  A    between atoms: C_5  and  C_22
REMARK    3  A    between atoms: C_6  and  C_8
REMARK    4  A    between atoms: C_14  and  C_16
REMARK    5  A    between atoms: C_19  and  C_21
REMARK                            x       y       z     vdW  Elec       q    Type
REMARK                         _______ _______ _______ _____ _____    ______ ____
ROOT
ATOM      1  C   UNL     1      -0.962   3.487   0.539  0.00  0.00    +0.080 A 
ATOM      2  C   UNL     1       0.295   3.983   0.748  0.00  0.00    +0.076 A 
ATOM      3  S   UNL     1       1.215   2.468   0.983  0.00  0.00    -0.060 S 
ATOM      4  C   UNL     1      -0.157   1.340   0.782  0.00  0.00    +0.165 A 
ATOM      5  N   UNL     1      -1.154   2.176   0.557  0.00  0.00    -0.225 NA
ATOM      6  N   UNL     1      -0.170  -0.047   0.840  0.00  0.00    -0.258 N 
ATOM      7  C   UNL     1       0.972  -0.722   1.079  0.00  0.00    +0.285 C 
ATOM      8  O   UNL     1       2.014  -0.116   1.243  0.00  0.00    -0.266 OA
ATOM      9  H   UNL     1      -1.001  -0.530   0.709  0.00  0.00    +0.157 HD
ENDROOT
BRANCH   1  15
ATOM     10  C   UNL     1      -2.788   8.126   0.282  0.00  0.00    +0.044 C 
ATOM     11  C   UNL     1      -2.980   6.636   0.166  0.00  0.00    -0.050 A 
ATOM     12  C   UNL     1      -4.219   6.124  -0.175  0.00  0.00    +0.003 A 
ATOM     13  C   UNL     1      -4.402   4.758  -0.284  0.00  0.00    +0.004 A 
ATOM     14  C   UNL     1      -3.347   3.897  -0.059  0.00  0.00    -0.041 A 
ATOM     15  C   UNL     1      -2.098   4.407   0.290  0.00  0.00    +0.004 A 
ATOM     16  C   UNL     1      -1.919   5.785   0.399  0.00  0.00    +0.013 A 
ATOM     17  C   UNL     1      -3.547   2.408  -0.185  0.00  0.00    +0.044 C 
ENDBRANCH   1  15
BRANCH   7  18
ATOM     18  C   UNL     1       0.958  -2.186   1.140  0.00  0.00    +0.190 A 
ATOM     19  C   UNL     1       2.037  -2.990   1.373  0.00  0.00    +0.055 A 
ATOM     20  C   UNL     1       1.569  -4.313   1.346  0.00  0.00    +0.045 A 
ATOM     21  C   UNL     1       0.241  -4.260   1.101  0.00  0.00    +0.103 A 
ATOM     22  O   UNL     1      -0.124  -2.977   0.983  0.00  0.00    -0.455 OA
ATOM     23  C   UNL     1      -0.678  -5.448   0.986  0.00  0.00    +0.086 C 
ENDBRANCH   7  18
TORSDOF 2
