REMARK  Name = ZINC58470925
REMARK  6 active torsions:
REMARK  status: ('A' for Active; 'I' for Inactive)
REMARK    1  A    between atoms: C_4  and  N_7
REMARK    2  A    between atoms: C_10  and  C_13
REMARK    3  A    between atoms: C_13  and  O_14
REMARK    4  A    between atoms: O_14  and  C_15
REMARK    5  A    between atoms: C_15  and  C_17
REMARK    6  A    between atoms: C_20  and  N_23
REMARK                            x       y       z     vdW  Elec       q    Type
REMARK                         _______ _______ _______ _____ _____    ______ ____
ROOT
ATOM      1  O   UNL     1       5.282  -6.411   0.431  0.00  0.00    -0.455 OA
ENDROOT
BRANCH   1   2
ATOM      2  C   UNL     1       6.228  -7.365   0.535  0.00  0.00    +0.340 C 
ATOM      3  O   UNL     1       7.403  -7.056   0.561  0.00  0.00    -0.245 OA
BRANCH   2   4
ATOM      4  C   UNL     1       5.838  -8.784   0.619  0.00  0.00    +0.059 A 
ATOM      5  C   UNL     1       4.486  -9.142   0.584  0.00  0.00    +0.017 A 
ATOM      6  C   UNL     1       4.127 -10.463   0.661  0.00  0.00    +0.025 A 
ATOM      7  C   UNL     1       5.105 -11.447   0.774  0.00  0.00    +0.051 A 
ATOM      8  C   UNL     1       6.452 -11.094   0.809  0.00  0.00    +0.025 A 
ATOM      9  C   UNL     1       6.818  -9.775   0.727  0.00  0.00    +0.017 A 
BRANCH   7  10
ATOM     10  N   UNL     1       4.737 -12.785   0.854  0.00  0.00    -0.207 N 
ATOM     11  C   UNL     1       3.451 -13.326   1.328  0.00  0.00    +0.133 C 
ATOM     12  C   UNL     1       3.129 -14.663   0.634  0.00  0.00    +0.045 C 
ATOM     13  C   UNL     1       4.457 -15.477   0.690  0.00  0.00    +0.190 C 
ATOM     14  S   UNL     1       5.663 -14.115   0.422  0.00  0.00    +0.046 S 
ATOM     15  O   UNL     1       5.939 -13.951  -0.963  0.00  0.00    -0.155 OA
ATOM     16  O   UNL     1       6.710 -14.175   1.380  0.00  0.00    -0.155 OA
ENDBRANCH   7  10
ENDBRANCH   2   4
ENDBRANCH   1   2
BRANCH   1  17
ATOM     17  C   UNL     1       5.732  -5.057   0.355  0.00  0.00    +0.288 C 
BRANCH  17  21
ATOM     18  N   UNL     1       3.620  -0.649  -0.036  0.00  0.00    -0.294 N 
ATOM     19  C   UNL     1       3.644  -2.033   0.061  0.00  0.00    +0.163 A 
ATOM     20  N   UNL     1       4.689  -2.828   0.158  0.00  0.00    -0.226 NA
ATOM     21  C   UNL     1       4.542  -4.138   0.244  0.00  0.00    +0.088 A 
ATOM     22  C   UNL     1       3.276  -4.619   0.227  0.00  0.00    +0.075 A 
ATOM     23  S   UNL     1       2.345  -3.102   0.090  0.00  0.00    -0.060 S 
ATOM     24  H   UNL     1       4.450  -0.155  -0.128  0.00  0.00    +0.154 HD
BRANCH  18  28
ATOM     25  C   UNL     1      -0.013   1.383   0.065  0.00  0.00    +0.000 A 
ATOM     26  C   UNL     1       0.154   0.232   0.813  0.00  0.00    +0.002 A 
ATOM     27  C   UNL     1       1.358  -0.445   0.781  0.00  0.00    +0.023 A 
ATOM     28  C   UNL     1       2.401   0.032  -0.003  0.00  0.00    +0.033 A 
ATOM     29  C   UNL     1       2.229   1.189  -0.752  0.00  0.00    +0.023 A 
ATOM     30  C   UNL     1       1.023   1.861  -0.716  0.00  0.00    +0.002 A 
ENDBRANCH  18  28
ENDBRANCH  17  21
ENDBRANCH   1  17
TORSDOF 6
