REMARK  Name = ZINC13125401
REMARK  7 active torsions:
REMARK  status: ('A' for Active; 'I' for Inactive)
REMARK    1  A    between atoms: C_1  and  C_2
REMARK    2  A    between atoms: C_2  and  O_3
REMARK    3  A    between atoms: O_3  and  C_4
REMARK    4  A    between atoms: C_7  and  C_11
REMARK    5  A    between atoms: C_8  and  O_10
REMARK    6  A    between atoms: C_12  and  C_17
REMARK    7  A    between atoms: C_20  and  C_22
REMARK                            x       y       z     vdW  Elec       q    Type
REMARK                         _______ _______ _______ _____ _____    ______ ____
ROOT
ATOM      1  C   UNL     1       1.135  -6.038   1.753  0.00  0.00    +0.078 A 
ATOM      2  C   UNL     1       0.557  -6.811   2.751  0.00  0.00    +0.046 A 
ATOM      3  C   UNL     1       0.926  -8.146   2.513  0.00  0.00    +0.144 A 
ATOM      4  N   UNL     1       1.677  -8.186   1.444  0.00  0.00    -0.181 NA
ATOM      5  N   UNL     1       1.825  -6.889   0.940  0.00  0.00    -0.276 N 
ATOM      6  H   UNL     1       2.331  -6.638   0.151  0.00  0.00    +0.189 HD
ENDROOT
BRANCH   1  10
ATOM      7  C   UNL     1       0.802  -1.824   1.306  0.00  0.00    +0.124 A 
ATOM      8  C   UNL     1       0.258  -2.670   0.348  0.00  0.00    +0.046 A 
ATOM      9  C   UNL     1       0.363  -4.037   0.489  0.00  0.00    +0.017 A 
ATOM     10  C   UNL     1       1.020  -4.574   1.598  0.00  0.00    +0.042 A 
ATOM     11  C   UNL     1       1.569  -3.720   2.563  0.00  0.00    +0.129 A 
ATOM     12  C   UNL     1       1.461  -2.349   2.408  0.00  0.00    +0.091 A 
BRANCH  11  13
ATOM     13  O   UNL     1       2.209  -4.235   3.644  0.00  0.00    -0.506 OA
ATOM     14  H   UNL     1       3.158  -4.371   3.512  0.00  0.00    +0.292 HD
ENDBRANCH  11  13
BRANCH   7  15
ATOM     15  O   UNL     1       0.693  -0.477   1.160  0.00  0.00    -0.492 OA
BRANCH  15  17
ATOM     16  C   UNL     1      -0.019   1.526   0.010  0.00  0.00    +0.048 C 
ATOM     17  C   UNL     1       0.002  -0.004   0.002  0.00  0.00    +0.225 C 
ENDBRANCH  15  17
ENDBRANCH   7  15
ENDBRANCH   1  10
BRANCH   2  18
ATOM     18  C   UNL     1      -0.293  -6.319   3.863  0.00  0.00    +0.082 A 
ATOM     19  C   UNL     1      -0.812  -7.168   4.803  0.00  0.00    +0.075 A 
ATOM     20  S   UNL     1      -1.708  -6.014   5.830  0.00  0.00    -0.080 S 
ATOM     21  C   UNL     1      -1.339  -4.608   4.982  0.00  0.00    +0.076 A 
ATOM     22  N   UNL     1      -0.584  -5.033   4.001  0.00  0.00    -0.244 NA
ATOM     23  C   UNL     1      -1.771  -3.196   5.282  0.00  0.00    +0.073 C 
ENDBRANCH   2  18
TORSDOF 5
