REMARK  Name = ZINC13064602
REMARK  11 active torsions:
REMARK  status: ('A' for Active; 'I' for Inactive)
REMARK    1  A    between atoms: C_1  and  C_2
REMARK    2  A    between atoms: C_2  and  C_3
REMARK    3  A    between atoms: C_3  and  C_5
REMARK    4  A    between atoms: C_3  and  N_72
REMARK    5  A    between atoms: N_9  and  C_10
REMARK    6  A    between atoms: C_16  and  C_17
REMARK    7  A    between atoms: C_16  and  N_72
REMARK    8  A    between atoms: C_23  and  C_24
REMARK    9  A    between atoms: C_23  and  N_72
REMARK   10  A    between atoms: C_28  and  C_37
REMARK   11  A    between atoms: C_29  and  C_36
REMARK                            x       y       z     vdW  Elec       q    Type
REMARK                         _______ _______ _______ _____ _____    ______ ____
ROOT
ATOM      1  N   UNL     1      -5.470   4.077  -1.736  0.00  0.00    +0.392 N 
ATOM      2  H   UNL     1      -4.897   4.472  -2.491  0.00  0.00    -0.080 HD
ENDROOT
BRANCH   1   3
ATOM      3  C   UNL     1      -6.790   4.743  -1.737  0.00  0.00    +0.003 C 
BRANCH   3   4
ATOM      4  C   UNL     1      -6.602   6.183  -2.141  0.00  0.00    +0.138 A 
ATOM      5  N   UNL     1      -5.644   6.987  -1.749  0.00  0.00    -0.115 NA
ATOM      6  N   UNL     1      -5.828   8.130  -2.314  0.00  0.00    -0.023 NA
ATOM      7  N   UNL     1      -6.882   8.078  -3.051  0.00  0.00    -0.044 NA
ATOM      8  N   UNL     1      -7.388   6.894  -2.971  0.00  0.00    -0.228 N 
BRANCH   8   9
ATOM      9  C   UNL     1      -8.591   6.413  -3.655  0.00  0.00    +0.111 C 
ATOM     10  C   UNL     1      -8.352   6.413  -5.167  0.00  0.00    +0.027 C 
ATOM     11  C   UNL     1      -9.609   5.911  -5.881  0.00  0.00    +0.002 C 
ATOM     12  C   UNL     1     -10.786   6.831  -5.550  0.00  0.00    +0.000 C 
ATOM     13  C   UNL     1     -11.024   6.831  -4.039  0.00  0.00    +0.002 C 
ATOM     14  C   UNL     1      -9.768   7.333  -3.324  0.00  0.00    +0.027 C 
ENDBRANCH   8   9
ENDBRANCH   3   4
BRANCH   3  16
ATOM     15  C   UNL     1      -7.735   3.228   0.011  0.00  0.00    +0.002 C 
ATOM     16  C   UNL     1      -7.420   4.683  -0.344  0.00  0.00    -0.011 C 
ENDBRANCH   3  16
ENDBRANCH   1   3
BRANCH   1  17
ATOM     17  C   UNL     1      -5.636   2.627  -1.968  0.00  0.00    -0.042 C 
BRANCH  17  18
ATOM     18  C   UNL     1      -6.053   2.409  -3.400  0.00  0.00    -0.064 A 
ATOM     19  C   UNL     1      -7.390   2.260  -3.715  0.00  0.00    +0.002 A 
ATOM     20  C   UNL     1      -7.773   2.066  -5.029  0.00  0.00    +0.000 A 
ATOM     21  C   UNL     1      -6.817   2.009  -6.026  0.00  0.00    +0.000 A 
ATOM     22  C   UNL     1      -5.479   2.153  -5.710  0.00  0.00    +0.000 A 
ATOM     23  C   UNL     1      -5.097   2.353  -4.397  0.00  0.00    +0.002 A 
ENDBRANCH  17  18
ENDBRANCH   1  17
BRANCH   1  24
ATOM     24  C   UNL     1      -4.789   4.308  -0.445  0.00  0.00    -0.036 C 
BRANCH  24  25
ATOM     25  C   UNL     1      -3.343   3.905  -0.581  0.00  0.00    +0.001 A 
ATOM     26  C   UNL     1      -2.408   4.837  -0.888  0.00  0.00    +0.017 A 
ATOM     27  C   UNL     1      -1.013   4.412  -1.018  0.00  0.00    -0.001 A 
ATOM     28  C   UNL     1      -0.006   5.325  -1.350  0.00  0.00    +0.013 A 
ATOM     29  C   UNL     1       1.286   4.896  -1.464  0.00  0.00    -0.047 A 
ATOM     30  C   UNL     1       1.609   3.563  -1.254  0.00  0.00    -0.046 A 
ATOM     31  C   UNL     1       0.633   2.646  -0.927  0.00  0.00    +0.030 A 
ATOM     32  C   UNL     1      -0.690   3.058  -0.810  0.00  0.00    +0.049 A 
ATOM     33  N   UNL     1      -1.687   2.161  -0.490  0.00  0.00    -0.322 N 
ATOM     34  H   UNL     1      -1.463   1.229  -0.343  0.00  0.00    +0.169 HD
ATOM     35  C   UNL     1      -2.966   2.560  -0.377  0.00  0.00    +0.251 A 
ATOM     36  O   UNL     1      -3.822   1.740  -0.092  0.00  0.00    -0.268 OA
ATOM     37  C   UNL     1       3.041   3.113  -1.386  0.00  0.00    +0.044 C 
ATOM     38  C   UNL     1       2.370   5.880  -1.821  0.00  0.00    +0.044 C 
ENDBRANCH  24  25
ENDBRANCH   1  24
TORSDOF 8
