REMARK  Name = ZINC44728490
REMARK  6 active torsions:
REMARK  status: ('A' for Active; 'I' for Inactive)
REMARK    1  A    between atoms: C_1  and  C_2
REMARK    2  A    between atoms: C_11  and  C_12
REMARK    3  A    between atoms: C_12  and  C_13
REMARK    4  A    between atoms: C_13  and  N_14
REMARK    5  A    between atoms: C_15  and  C_17
REMARK    6  A    between atoms: C_28  and  C_30
REMARK                            x       y       z     vdW  Elec       q    Type
REMARK                         _______ _______ _______ _____ _____    ______ ____
ROOT
ATOM      1  C   UNL     1       2.723  -7.936   4.230  0.00  0.00    +0.100 C 
ATOM      2  C   UNL     1       1.862  -8.841   3.319  0.00  0.00    +0.121 C 
ATOM      3  N   UNL     1       2.824  -9.422   2.352  0.00  0.00    -0.296 N 
ATOM      4  C   UNL     1       4.033  -9.708   3.161  0.00  0.00    +0.115 C 
ATOM      5  C   UNL     1       4.146  -8.511   4.126  0.00  0.00    -0.004 C 
ATOM      6  C   UNL     1       4.627  -8.980   5.496  0.00  0.00    -0.010 C 
ATOM      7  C   UNL     1       6.065  -9.493   5.379  0.00  0.00    -0.082 C 
ATOM      8  N   UNL     1       6.930  -8.420   4.875  0.00  0.00    +0.379 N 
ATOM      9  C   UNL     1       6.517  -8.039   3.519  0.00  0.00    -0.082 C 
ATOM     10  C   UNL     1       5.098  -7.464   3.558  0.00  0.00    -0.010 C 
ATOM     11  C   UNL     1       2.640  -9.640   1.035  0.00  0.00    +0.248 C 
ATOM     12  O   UNL     1       1.620  -9.261   0.492  0.00  0.00    -0.270 OA
ATOM     13  H   UNL     1       6.859  -7.619   5.485  0.00  0.00    -0.086 HD
ATOM     14  H   UNL     1       7.886  -8.741   4.857  0.00  0.00    -0.086 HD
ENDROOT
BRANCH  11  15
ATOM     15  C   UNL     1       3.672 -10.337   0.256  0.00  0.00    +0.052 A 
ATOM     16  C   UNL     1       4.412 -11.334   0.807  0.00  0.00    +0.059 A 
ATOM     17  S   UNL     1       5.450 -11.842  -0.408  0.00  0.00    -0.096 S 
ATOM     18  C   UNL     1       4.957 -10.755  -1.717  0.00  0.00    +0.020 A 
ATOM     19  C   UNL     1       3.931  -9.982  -1.141  0.00  0.00    +0.001 A 
ATOM     20  C   UNL     1       3.322  -9.008  -1.956  0.00  0.00    +0.010 A 
ATOM     21  C   UNL     1       3.725  -8.841  -3.257  0.00  0.00    +0.001 A 
ATOM     22  C   UNL     1       4.735  -9.619  -3.803  0.00  0.00    +0.001 A 
ATOM     23  C   UNL     1       5.358 -10.575  -3.024  0.00  0.00    +0.015 A 
ENDBRANCH  11  15
BRANCH   1  25
ATOM     24  N   UNL     1       2.815  -5.493   4.606  0.00  0.00    -0.315 N 
ATOM     25  C   UNL     1       2.694  -6.514   3.734  0.00  0.00    +0.218 C 
ATOM     26  O   UNL     1       2.563  -6.287   2.550  0.00  0.00    -0.275 OA
ATOM     27  H   UNL     1       2.920  -5.675   5.553  0.00  0.00    +0.149 HD
BRANCH  24  28
ATOM     28  C   UNL     1       2.787  -4.110   4.124  0.00  0.00    +0.109 C 
BRANCH  28  29
ATOM     29  C   UNL     1       2.942  -3.154   5.308  0.00  0.00    +0.056 C 
BRANCH  29  40
ATOM     30  C   UNL     1       1.750   2.669   3.310  0.00  0.00    +0.046 C 
ATOM     31  C   UNL     1       1.269   1.325   3.793  0.00  0.00    -0.027 A 
ATOM     32  C   UNL     1      -0.080   1.077   3.918  0.00  0.00    +0.005 A 
ATOM     33  C   UNL     1      -0.536  -0.157   4.362  0.00  0.00    +0.001 A 
ATOM     34  C   UNL     1       0.348  -1.148   4.683  0.00  0.00    +0.010 A 
ATOM     35  C   UNL     1       1.720  -0.919   4.563  0.00  0.00    +0.003 A 
ATOM     36  C   UNL     1       2.187   0.328   4.109  0.00  0.00    +0.050 A 
ATOM     37  N   UNL     1       3.562   0.264   4.087  0.00  0.00    -0.360 N 
ATOM     38  H   UNL     1       4.149   0.987   3.817  0.00  0.00    +0.165 HD
ATOM     39  C   UNL     1       3.977  -0.972   4.503  0.00  0.00    +0.087 A 
ATOM     40  C   UNL     1       2.913  -1.731   4.813  0.00  0.00    -0.021 A 
ENDBRANCH  29  40
ENDBRANCH  28  29
ENDBRANCH  24  28
ENDBRANCH   1  25
TORSDOF 5
