REMARK  Name = ZINC36704447
REMARK  9 active torsions:
REMARK  status: ('A' for Active; 'I' for Inactive)
REMARK    1  A    between atoms: C_1  and  C_2
REMARK    2  A    between atoms: C_2  and  O_3
REMARK    3  A    between atoms: O_3  and  C_4
REMARK    4  A    between atoms: C_4  and  C_6
REMARK    5  A    between atoms: C_10  and  N_11
REMARK    6  A    between atoms: C_12  and  C_14
REMARK    7  A    between atoms: N_19  and  S_20
REMARK    8  A    between atoms: S_20  and  C_23
REMARK    9  A    between atoms: N_30  and  C_33
REMARK                            x       y       z     vdW  Elec       q    Type
REMARK                         _______ _______ _______ _____ _____    ______ ____
ROOT
ATOM      1  N   UNL     1      -3.036  -2.524   2.499  0.00  0.00    -0.278 N 
ATOM      2  C   UNL     1      -3.812  -2.868   3.546  0.00  0.00    +0.236 C 
ATOM      3  O   UNL     1      -4.913  -3.339   3.357  0.00  0.00    -0.274 OA
ATOM      4  H   UNL     1      -2.155  -2.147   2.651  0.00  0.00    +0.155 HD
ENDROOT
BRANCH   1   9
ATOM      5  C   UNL     1      -2.842  -2.416   0.016  0.00  0.00    +0.091 A 
ATOM      6  C   UNL     1      -3.547  -2.713  -1.215  0.00  0.00    -0.025 A 
ATOM      7  C   UNL     1      -4.779  -3.242  -1.038  0.00  0.00    -0.021 A 
ATOM      8  S   UNL     1      -4.976  -3.336   0.716  0.00  0.00    -0.079 S 
ATOM      9  C   UNL     1      -3.497  -2.709   1.205  0.00  0.00    +0.086 A 
ATOM     10  C   UNL     1      -5.733  -3.641  -2.119  0.00  0.00    -0.036 C 
ATOM     11  N   UNL     1      -5.287  -3.024  -3.381  0.00  0.00    +0.381 N 
ATOM     12  C   UNL     1      -3.861  -3.306  -3.592  0.00  0.00    -0.074 C 
ATOM     13  C   UNL     1      -3.010  -2.481  -2.621  0.00  0.00    +0.018 C 
ATOM     14  C   UNL     1      -6.065  -3.576  -4.498  0.00  0.00    -0.096 C 
ATOM     15  H   UNL     1      -5.429  -2.026  -3.336  0.00  0.00    -0.082 HD
BRANCH   5  16
ATOM     16  C   UNL     1      -1.497  -1.838   0.006  0.00  0.00    +0.342 C 
ATOM     17  O   UNL     1      -0.523  -2.566  -0.007  0.00  0.00    -0.245 OA
BRANCH  16  18
ATOM     18  O   UNL     1      -1.339  -0.499   0.012  0.00  0.00    -0.461 OA
BRANCH  18  20
ATOM     19  C   UNL     1      -0.019   1.526   0.010  0.00  0.00    +0.048 C 
ATOM     20  C   UNL     1       0.002  -0.004   0.002  0.00  0.00    +0.229 C 
ENDBRANCH  18  20
ENDBRANCH  16  18
ENDBRANCH   5  16
ENDBRANCH   1   9
BRANCH   2  21
ATOM     21  C   UNL     1      -3.311  -2.666   4.953  0.00  0.00    +0.166 C 
ATOM     22  C   UNL     1      -3.051  -1.166   5.209  0.00  0.00    +0.031 C 
ATOM     23  C   UNL     1      -4.350  -0.706   5.923  0.00  0.00    +0.019 C 
ATOM     24  C   UNL     1      -4.700  -1.957   6.768  0.00  0.00    +0.110 C 
ATOM     25  N   UNL     1      -4.332  -3.106   5.915  0.00  0.00    -0.164 NA
BRANCH  25  26
ATOM     26  S   UNL     1      -4.963  -4.633   6.022  0.00  0.00    +0.068 S 
ATOM     27  O   UNL     1      -6.237  -4.504   6.637  0.00  0.00    -0.152 OA
ATOM     28  O   UNL     1      -4.790  -5.234   4.746  0.00  0.00    -0.152 OA
BRANCH  26  29
ATOM     29  C   UNL     1      -3.951  -5.538   7.146  0.00  0.00    +0.144 A 
ATOM     30  C   UNL     1      -4.076  -5.671   8.489  0.00  0.00    +0.038 A 
ATOM     31  C   UNL     1      -3.154  -6.440   9.175  0.00  0.00    +0.030 A 
ATOM     32  C   UNL     1      -2.151  -7.037   8.483  0.00  0.00    +0.080 A 
ATOM     33  S   UNL     1      -2.500  -6.522   6.810  0.00  0.00    -0.057 S 
ATOM     34 CL   UNL     1      -0.867  -8.046   9.072  0.00  0.00    -0.076 Cl
ENDBRANCH  26  29
ENDBRANCH  25  26
ENDBRANCH   2  21
TORSDOF 7
