REMARK  Name = ZINC65203458
REMARK  8 active torsions:
REMARK  status: ('A' for Active; 'I' for Inactive)
REMARK    1  A    between atoms: C_1  and  C_2
REMARK    2  A    between atoms: C_2  and  C_3
REMARK    3  A    between atoms: C_2  and  S_17
REMARK    4  A    between atoms: N_5  and  N_6
REMARK    5  A    between atoms: N_9  and  C_10
REMARK    6  A    between atoms: C_10  and  C_11
REMARK    7  A    between atoms: C_11  and  C_12
REMARK    8  A    between atoms: S_17  and  C_18
REMARK                            x       y       z     vdW  Elec       q    Type
REMARK                         _______ _______ _______ _____ _____    ______ ____
ROOT
ATOM      1  C   UNL     1      -1.733  -0.371  -0.407  0.00  0.00    +0.242 C 
ATOM      2  O   UNL     1      -2.117  -0.621  -1.530  0.00  0.00    -0.273 OA
ATOM      3  N   UNL     1      -2.598  -0.416   0.626  0.00  0.00    -0.232 N 
ATOM      4  H   UNL     1      -2.291  -0.216   1.524  0.00  0.00    +0.173 HD
ENDROOT
BRANCH   3   5
ATOM      5  N   UNL     1      -3.940  -0.751   0.403  0.00  0.00    -0.218 N 
ATOM      6  C   UNL     1      -4.804  -0.796   1.436  0.00  0.00    +0.316 C 
ATOM      7  O   UNL     1      -5.969  -1.088   1.242  0.00  0.00    -0.251 OA
ATOM      8  N   UNL     1      -4.378  -0.519   2.684  0.00  0.00    -0.298 N 
ATOM      9  H   UNL     1      -4.247  -0.951  -0.495  0.00  0.00    +0.174 HD
ATOM     10  H   UNL     1      -3.449  -0.287   2.839  0.00  0.00    +0.150 HD
BRANCH   8  11
ATOM     11  C   UNL     1      -5.318  -0.568   3.807  0.00  0.00    +0.111 C 
BRANCH  11  12
ATOM     12  C   UNL     1      -4.584  -0.214   5.102  0.00  0.00    +0.061 C 
BRANCH  12  13
ATOM     13  C   UNL     1      -5.550  -0.264   6.257  0.00  0.00    -0.009 A 
ATOM     14  C   UNL     1      -5.864  -1.308   7.062  0.00  0.00    +0.011 A 
ATOM     15  C   UNL     1      -6.790  -1.121   8.072  0.00  0.00    +0.008 A 
ATOM     16  C   UNL     1      -7.357   0.100   8.226  0.00  0.00    +0.045 A 
ATOM     17  S   UNL     1      -6.573   1.038   6.924  0.00  0.00    -0.102 S 
ENDBRANCH  12  13
ENDBRANCH  11  12
ENDBRANCH   8  11
ENDBRANCH   3   5
BRANCH   1  19
ATOM     18  C   UNL     1      -0.159   1.509  -0.040  0.00  0.00    +0.029 C 
ATOM     19  C   UNL     1      -0.290  -0.010  -0.166  0.00  0.00    +0.135 C 
BRANCH  19  20
ATOM     20  S   UNL     1       0.718  -0.591  -1.558  0.00  0.00    -0.113 S 
BRANCH  20  21
ATOM     21  C   UNL     1       0.672  -2.346  -1.415  0.00  0.00    +0.009 A 
ATOM     22  C   UNL     1       0.059  -2.940  -0.318  0.00  0.00    +0.015 A 
ATOM     23  C   UNL     1       0.025  -4.316  -0.209  0.00  0.00    +0.001 A 
ATOM     24  C   UNL     1       0.601  -5.103  -1.190  0.00  0.00    +0.000 A 
ATOM     25  C   UNL     1       1.213  -4.516  -2.282  0.00  0.00    +0.001 A 
ATOM     26  C   UNL     1       1.245  -3.141  -2.401  0.00  0.00    +0.015 A 
ENDBRANCH  20  21
ENDBRANCH  19  20
ENDBRANCH   1  19
TORSDOF 7
