REMARK  Name = ZINC04029447
REMARK  11 active torsions:
REMARK  status: ('A' for Active; 'I' for Inactive)
REMARK    1  A    between atoms: C_1  and  C_2
REMARK    2  A    between atoms: C_2  and  C_3
REMARK    3  A    between atoms: C_3  and  C_4
REMARK    4  A    between atoms: C_4  and  O_5
REMARK    5  A    between atoms: O_5  and  C_6
REMARK    6  A    between atoms: C_9  and  C_12
REMARK    7  A    between atoms: C_13  and  C_14
REMARK    8  A    between atoms: C_14  and  C_16
REMARK    9  A    between atoms: C_19  and  O_25
REMARK   10  A    between atoms: O_25  and  C_26
REMARK   11  A    between atoms: C_30  and  N_60
REMARK                            x       y       z     vdW  Elec       q    Type
REMARK                         _______ _______ _______ _____ _____    ______ ____
ROOT
ATOM      1  C   UNL     1      -0.995   5.631   1.678  0.00  0.00    +0.071 A 
ATOM      2  C   UNL     1       0.117   4.944   2.189  0.00  0.00    -0.030 A 
ATOM      3  C   UNL     1       0.213   3.584   2.030  0.00  0.00    -0.015 A 
ATOM      4  C   UNL     1      -0.787   2.891   1.346  0.00  0.00    +0.167 A 
ATOM      5  C   UNL     1      -1.891   3.559   0.835  0.00  0.00    +0.208 A 
ATOM      6  C   UNL     1      -2.002   4.934   0.999  0.00  0.00    +0.181 A 
ATOM      7  O   UNL     1      -3.160   5.354   0.417  0.00  0.00    -0.452 OA
ATOM      8  C   UNL     1      -3.959   4.167   0.251  0.00  0.00    +0.467 C 
ATOM      9  O   UNL     1      -2.985   3.113   0.147  0.00  0.00    -0.449 OA
ATOM     10  C   UNL     1       1.377   2.800   2.578  0.00  0.00    -0.039 C 
ATOM     11  C   UNL     1       2.052   4.797   3.746  0.00  0.00    -0.074 C 
ATOM     12  C   UNL     1       1.180   5.736   2.906  0.00  0.00    +0.018 C 
ATOM     13  C   UNL     1       3.605   2.953   3.508  0.00  0.00    -0.096 C 
ATOM     14  N   UNL     1       2.504   3.704   2.863  0.00  0.00    +0.381 N 
ATOM     15  H   UNL     1       2.845   4.104   1.981  0.00  0.00    -0.082 HD
ENDROOT
BRANCH   1  16
ATOM     16  C   UNL     1      -1.103   7.091   1.857  0.00  0.00    +0.190 C 
ATOM     17  O   UNL     1      -0.229   7.699   2.447  0.00  0.00    -0.287 OA
BRANCH  16  19
ATOM     18  C   UNL     1      -2.360   9.146   1.489  0.00  0.00    +0.012 C 
ATOM     19  C   UNL     1      -2.261   7.808   1.325  0.00  0.00    +0.052 C 
BRANCH  18  23
ATOM     20  C   UNL     1      -5.718  11.227  -0.054  0.00  0.00    +0.121 A 
ATOM     21  C   UNL     1      -4.721  11.924   0.620  0.00  0.00    +0.046 A 
ATOM     22  C   UNL     1      -3.629  11.253   1.123  0.00  0.00    +0.011 A 
ATOM     23  C   UNL     1      -3.524   9.867   0.955  0.00  0.00    -0.025 A 
ATOM     24  C   UNL     1      -4.528   9.171   0.271  0.00  0.00    +0.011 A 
ATOM     25  C   UNL     1      -5.618   9.851  -0.224  0.00  0.00    +0.046 A 
BRANCH  20  26
ATOM     26  O   UNL     1      -6.792  11.894  -0.548  0.00  0.00    -0.492 OA
BRANCH  26  27
ATOM     27  C   UNL     1      -7.780  11.117  -1.229  0.00  0.00    +0.229 C 
BRANCH  27  28
ATOM     28  C   UNL     1      -8.906  12.034  -1.711  0.00  0.00    +0.041 C 
BRANCH  28  30
ATOM     29  C   UNL     1     -11.089  12.120  -2.923  0.00  0.00    +0.004 C 
ATOM     30  C   UNL     1      -9.963  11.203  -2.441  0.00  0.00    -0.000 C 
ENDBRANCH  28  30
ENDBRANCH  27  28
ENDBRANCH  26  27
ENDBRANCH  20  26
ENDBRANCH  18  23
ENDBRANCH  16  19
ENDBRANCH   1  16
BRANCH   4  31
ATOM     31  O   UNL     1      -0.682   1.547   1.184  0.00  0.00    -0.491 OA
ATOM     32  C   UNL     1      -0.013   1.086   0.008  0.00  0.00    +0.277 C 
ENDBRANCH   4  31
TORSDOF 8
