REMARK  Name = ZINC04386982
REMARK  3 active torsions:
REMARK  status: ('A' for Active; 'I' for Inactive)
REMARK    1  A    between atoms: C_1  and  S_2
REMARK    2  A    between atoms: S_2  and  C_3
REMARK    3  A    between atoms: C_15  and  C_17
REMARK                            x       y       z     vdW  Elec       q    Type
REMARK                         _______ _______ _______ _____ _____    ______ ____
ROOT
ATOM      1  C   UNL     1       0.879  -0.373   1.486  0.00  0.00    +0.171 A 
ATOM      2  N   UNL     1       1.081  -1.690   1.766  0.00  0.00    -0.302 N 
ATOM      3  H   UNL     1       0.745  -2.371   1.163  0.00  0.00    +0.171 HD
ATOM      4  C   UNL     1       1.748  -2.050   2.884  0.00  0.00    +0.258 A 
ATOM      5  O   UNL     1       1.936  -3.227   3.147  0.00  0.00    -0.267 OA
ATOM      6  C   UNL     1       2.221  -1.045   3.734  0.00  0.00    +0.065 A 
ATOM      7  C   UNL     1       1.991   0.280   3.404  0.00  0.00    +0.137 A 
ATOM      8  N   UNL     1       1.328   0.577   2.282  0.00  0.00    -0.208 NA
ATOM      9  N   UNL     1       2.452   1.289   4.234  0.00  0.00    -0.270 N 
ATOM     10  C   UNL     1       2.789   1.027   5.509  0.00  0.00    +0.219 C 
ATOM     11  O   UNL     1       3.206   1.922   6.213  0.00  0.00    -0.275 OA
ATOM     12  C   UNL     1       2.655  -0.361   6.074  0.00  0.00    +0.109 C 
ATOM     13  C   UNL     1       2.970  -1.394   4.991  0.00  0.00    +0.069 C 
ATOM     14  H   UNL     1       2.533   2.192   3.891  0.00  0.00    +0.156 HD
ENDROOT
BRANCH  13  15
ATOM     15  C   UNL     1       4.450  -1.393   4.711  0.00  0.00    -0.003 A 
ATOM     16  C   UNL     1       5.347  -1.677   5.725  0.00  0.00    +0.046 A 
ATOM     17  C   UNL     1       6.706  -1.675   5.467  0.00  0.00    +0.020 A 
ATOM     18  C   UNL     1       7.169  -1.390   4.196  0.00  0.00    +0.003 A 
ATOM     19  C   UNL     1       6.273  -1.106   3.182  0.00  0.00    +0.020 A 
ATOM     20  C   UNL     1       4.913  -1.113   3.437  0.00  0.00    +0.046 A 
ATOM     21 CL   UNL     1       3.789  -0.765   2.162  0.00  0.00    -0.083 Cl
ATOM     22 CL   UNL     1       4.767  -2.034   7.322  0.00  0.00    -0.083 Cl
ENDBRANCH  13  15
BRANCH   1  24
ATOM     23  C   UNL     1      -0.014   1.886   0.057  0.00  0.00    +0.093 C 
ATOM     24  S   UNL     1       0.006   0.072   0.022  0.00  0.00    -0.091 S 
ENDBRANCH   1  24
TORSDOF 2
