REMARK  Name = ZINC38701315
REMARK  14 active torsions:
REMARK  status: ('A' for Active; 'I' for Inactive)
REMARK    1  A    between atoms: C_1  and  C_2
REMARK    2  A    between atoms: C_2  and  C_3
REMARK    3  A    between atoms: C_3  and  C_4
REMARK    4  A    between atoms: C_4  and  C_5
REMARK    5  A    between atoms: C_5  and  O_6
REMARK    6  A    between atoms: O_6  and  C_7
REMARK    7  A    between atoms: C_10  and  C_13
REMARK    8  A    between atoms: C_18  and  O_27
REMARK    9  A    between atoms: C_22  and  N_26
REMARK   10  A    between atoms: C_23  and  C_24
REMARK   11  A    between atoms: O_27  and  C_28
REMARK   12  A    between atoms: C_28  and  C_30
REMARK   13  A    between atoms: C_31  and  C_40
REMARK   14  A    between atoms: C_35  and  C_39
REMARK                            x       y       z     vdW  Elec       q    Type
REMARK                         _______ _______ _______ _____ _____    ______ ____
ROOT
ATOM      1  C   UNL     1       4.016  -6.500  -6.911  0.00  0.00    +0.098 C 
ATOM      2  C   UNL     1       3.003  -7.344  -7.638  0.00  0.00    +0.008 A 
ATOM      3  C   UNL     1       2.010  -6.729  -8.379  0.00  0.00    +0.012 A 
ATOM      4  C   UNL     1       1.073  -7.487  -9.053  0.00  0.00    +0.047 A 
ATOM      5  C   UNL     1       1.125  -8.872  -8.986  0.00  0.00    +0.136 A 
ATOM      6  C   UNL     1       2.117  -9.492  -8.244  0.00  0.00    +0.093 A 
ATOM      7  C   UNL     1       3.059  -8.727  -7.568  0.00  0.00    +0.138 A 
ATOM      8  O   UNL     1       4.024  -9.349  -6.846  0.00  0.00    -0.441 OA
ATOM      9  C   UNL     1       5.144  -8.685  -6.514  0.00  0.00    +0.199 C 
ATOM     10  C   UNL     1       5.204  -7.336  -6.525  0.00  0.00    +0.098 C 
ENDROOT
BRANCH   1  14
ATOM     11  C   UNL     1       2.231  -4.862  -3.391  0.00  0.00    +0.121 A 
ATOM     12  C   UNL     1       2.726  -4.019  -4.376  0.00  0.00    +0.046 A 
ATOM     13  C   UNL     1       3.303  -4.551  -5.513  0.00  0.00    +0.008 A 
ATOM     14  C   UNL     1       3.387  -5.922  -5.670  0.00  0.00    -0.034 A 
ATOM     15  C   UNL     1       2.893  -6.764  -4.691  0.00  0.00    +0.008 A 
ATOM     16  C   UNL     1       2.321  -6.237  -3.549  0.00  0.00    +0.046 A 
BRANCH  11  17
ATOM     17  O   UNL     1       1.663  -4.341  -2.272  0.00  0.00    -0.492 OA
BRANCH  17  18
ATOM     18  C   UNL     1       1.604  -2.916  -2.177  0.00  0.00    +0.229 C 
BRANCH  18  19
ATOM     19  C   UNL     1       0.937  -2.520  -0.858  0.00  0.00    +0.041 C 
BRANCH  19  20
ATOM     20  C   UNL     1       0.874  -0.995  -0.757  0.00  0.00    +0.003 C 
BRANCH  20  22
ATOM     21  C   UNL     1       0.144   0.927   0.663  0.00  0.00    +0.004 C 
ATOM     22  C   UNL     1       0.207  -0.599   0.562  0.00  0.00    -0.003 C 
ENDBRANCH  20  22
ENDBRANCH  19  20
ENDBRANCH  18  19
ENDBRANCH  17  18
ENDBRANCH  11  17
ENDBRANCH   1  14
BRANCH   9  23
ATOM     23  N   UNL     1       6.259  -9.400  -6.152  0.00  0.00    -0.328 N 
ATOM     24  H   UNL     1       6.230 -10.370  -6.139  0.00  0.00    +0.145 HD
ATOM     25  H   UNL     1       7.075  -8.936  -5.910  0.00  0.00    +0.145 HD
ENDBRANCH   9  23
BRANCH  10  26
ATOM     26  C   UNL     1       6.428  -6.689  -6.159  0.00  0.00    +0.101 C 
ATOM     27  N   UNL     1       7.399  -6.176  -5.868  0.00  0.00    -0.191 NA
ENDBRANCH  10  26
BRANCH   5  28
ATOM     28  O   UNL     1       0.203  -9.620  -9.648  0.00  0.00    -0.420 OA
BRANCH  28  29
ATOM     29  C   UNL     1      -0.703 -10.301  -8.917  0.00  0.00    +0.380 C 
ATOM     30  O   UNL     1      -0.746 -10.154  -7.711  0.00  0.00    -0.241 OA
BRANCH  29  31
ATOM     31  C   UNL     1      -1.637 -11.221  -9.578  0.00  0.00    +0.216 A 
ATOM     32  C   UNL     1      -2.592 -11.953  -8.946  0.00  0.00    +0.010 A 
ATOM     33  C   UNL     1      -3.276 -12.714  -9.991  0.00  0.00    +0.024 A 
ATOM     34  C   UNL     1      -4.328 -13.633  -9.995  0.00  0.00    +0.012 A 
ATOM     35  C   UNL     1      -4.742 -14.182 -11.176  0.00  0.00    +0.004 A 
ATOM     36  C   UNL     1      -4.125 -13.833 -12.369  0.00  0.00    -0.047 A 
ATOM     37  C   UNL     1      -3.085 -12.929 -12.386  0.00  0.00    +0.050 A 
ATOM     38  C   UNL     1      -2.646 -12.357 -11.197  0.00  0.00    +0.137 A 
ATOM     39  O   UNL     1      -1.682 -11.462 -10.905  0.00  0.00    -0.448 OA
ATOM     40  C   UNL     1      -4.596 -14.450 -13.661  0.00  0.00    +0.044 C 
ATOM     41  C   UNL     1      -2.887 -11.976  -7.468  0.00  0.00    +0.048 C 
ENDBRANCH  29  31
ENDBRANCH  28  29
ENDBRANCH   5  28
TORSDOF 11
