REMARK  Name = ZINC15930144
REMARK  8 active torsions:
REMARK  status: ('A' for Active; 'I' for Inactive)
REMARK    1  A    between atoms: C_1  and  C_2
REMARK    2  A    between atoms: C_5  and  N_8
REMARK    3  A    between atoms: C_12  and  N_13
REMARK    4  A    between atoms: N_13  and  C_14
REMARK    5  A    between atoms: C_17  and  S_20
REMARK    6  A    between atoms: S_20  and  N_23
REMARK    7  A    between atoms: N_23  and  C_24
REMARK    8  A    between atoms: C_29  and  C_30
REMARK                            x       y       z     vdW  Elec       q    Type
REMARK                         _______ _______ _______ _____ _____    ______ ____
ROOT
ATOM      1  N   UNL     1      -0.080  -6.347   3.734  0.00  0.00    -0.320 N 
ATOM      2  H   UNL     1      -0.238  -5.394   3.824  0.00  0.00    +0.152 HD
ENDROOT
BRANCH   1   7
ATOM      3  N   UNL     1      -0.488  -3.993   0.309  0.00  0.00    -0.190 N 
ATOM      4  C   UNL     1      -0.297  -4.684   1.451  0.00  0.00    +0.265 C 
ATOM      5  O   UNL     1      -0.098  -4.108   2.504  0.00  0.00    -0.269 OA
ATOM      6  C   UNL     1      -0.337  -6.156   1.390  0.00  0.00    +0.113 C 
ATOM      7  C   UNL     1      -0.151  -6.931   2.520  0.00  0.00    +0.090 C 
ATOM      8  C   UNL     1      -0.586  -6.766   0.071  0.00  0.00    +0.258 C 
ATOM      9  O   UNL     1      -0.633  -7.975  -0.059  0.00  0.00    -0.270 OA
ATOM     10  N   UNL     1      -0.759  -5.948  -0.987  0.00  0.00    -0.235 N 
ATOM     11  C   UNL     1      -0.715  -4.615  -0.857  0.00  0.00    +0.320 C 
ATOM     12  O   UNL     1      -0.884  -3.934  -1.849  0.00  0.00    -0.251 OA
ATOM     13  H   UNL     1      -0.923  -6.334  -1.862  0.00  0.00    +0.159 HD
BRANCH   3  18
ATOM     14  C   UNL     1      -0.354   1.679   0.446  0.00  0.00    +0.044 C 
ATOM     15  C   UNL     1      -0.390   0.173   0.409  0.00  0.00    -0.050 A 
ATOM     16  C   UNL     1      -1.526  -0.480  -0.033  0.00  0.00    +0.005 A 
ATOM     17  C   UNL     1      -1.562  -1.861  -0.067  0.00  0.00    +0.024 A 
ATOM     18  C   UNL     1      -0.455  -2.592   0.342  0.00  0.00    +0.046 A 
ATOM     19  C   UNL     1       0.684  -1.934   0.785  0.00  0.00    +0.024 A 
ATOM     20  C   UNL     1       0.716  -0.553   0.812  0.00  0.00    +0.005 A 
ENDBRANCH   3  18
ENDBRANCH   1   7
BRANCH   1  21
ATOM     21  C   UNL     1       0.221  -7.114   4.863  0.00  0.00    +0.031 A 
ATOM     22  C   UNL     1       0.454  -8.478   4.735  0.00  0.00    +0.025 A 
ATOM     23  C   UNL     1       0.751  -9.234   5.852  0.00  0.00    +0.030 A 
ATOM     24  C   UNL     1       0.817  -8.635   7.097  0.00  0.00    +0.109 A 
ATOM     25  C   UNL     1       0.586  -7.277   7.227  0.00  0.00    +0.030 A 
ATOM     26  C   UNL     1       0.294  -6.515   6.114  0.00  0.00    +0.025 A 
BRANCH  24  27
ATOM     27  S   UNL     1       1.195  -9.603   8.519  0.00  0.00    +0.072 S 
ATOM     28  O   UNL     1       0.660  -8.908   9.637  0.00  0.00    -0.150 OA
ATOM     29  O   UNL     1       0.832 -10.941   8.209  0.00  0.00    -0.150 OA
BRANCH  27  30
ATOM     30  N   UNL     1       2.842  -9.589   8.697  0.00  0.00    -0.216 N 
ATOM     31  H   UNL     1       3.340 -10.420   8.662  0.00  0.00    +0.174 HD
BRANCH  30  32
ATOM     32  C   UNL     1       3.512  -8.380   8.898  0.00  0.00    +0.051 A 
ATOM     33  C   UNL     1       2.921  -7.372   9.649  0.00  0.00    +0.025 A 
ATOM     34  C   UNL     1       3.587  -6.179   9.846  0.00  0.00    +0.002 A 
ATOM     35  C   UNL     1       4.841  -5.986   9.297  0.00  0.00    +0.000 A 
ATOM     36  C   UNL     1       5.433  -6.987   8.548  0.00  0.00    +0.005 A 
ATOM     37  C   UNL     1       4.774  -8.185   8.352  0.00  0.00    -0.028 A 
ATOM     38  C   UNL     1       5.423  -9.278   7.542  0.00  0.00    +0.046 C 
ENDBRANCH  30  32
ENDBRANCH  27  30
ENDBRANCH  24  27
ENDBRANCH   1  21
TORSDOF 6
