REMARK  Name = ZINC16436217
REMARK  15 active torsions:
REMARK  status: ('A' for Active; 'I' for Inactive)
REMARK    1  A    between atoms: C_1  and  C_2
REMARK    2  A    between atoms: C_2  and  C_3
REMARK    3  A    between atoms: C_3  and  C_4
REMARK    4  A    between atoms: C_4  and  N_5
REMARK    5  A    between atoms: N_5  and  C_6
REMARK    6  A    between atoms: C_6  and  C_7
REMARK    7  A    between atoms: N_9  and  C_10
REMARK    8  A    between atoms: C_12  and  C_23
REMARK    9  A    between atoms: N_14  and  C_15
REMARK   10  A    between atoms: C_18  and  C_22
REMARK   11  A    between atoms: C_20  and  C_21
REMARK   12  A    between atoms: C_23  and  C_24
REMARK   13  A    between atoms: C_23  and  C_25
REMARK   14  A    between atoms: C_23  and  C_26
REMARK   15  A    between atoms: N_29  and  C_30
REMARK                            x       y       z     vdW  Elec       q    Type
REMARK                         _______ _______ _______ _____ _____    ______ ____
ROOT
ATOM      1  C   UNL     1      -1.280  -0.291   0.088  0.00  0.00    +0.236 C 
ATOM      2  O   UNL     1      -2.280   0.387   0.196  0.00  0.00    -0.274 OA
ATOM      3  N   UNL     1      -0.076   0.299  -0.046  0.00  0.00    -0.269 N 
ATOM      4  H   UNL     1       0.724  -0.243  -0.132  0.00  0.00    +0.156 HD
ENDROOT
BRANCH   3   5
ATOM      5  C   UNL     1       0.020   1.690  -0.060  0.00  0.00    +0.129 A 
ATOM      6  C   UNL     1      -1.019   2.570  -0.058  0.00  0.00    +0.069 A 
ATOM      7  C   UNL     1      -0.487   3.862  -0.072  0.00  0.00    +0.071 A 
ATOM      8  N   UNL     1       0.819   3.774  -0.092  0.00  0.00    -0.169 NA
ATOM      9  N   UNL     1       1.170   2.418  -0.085  0.00  0.00    -0.218 N 
BRANCH   9  10
ATOM     10  C   UNL     1       2.474   1.902  -0.102  0.00  0.00    +0.070 A 
ATOM     11  C   UNL     1       2.851   0.936   0.821  0.00  0.00    +0.028 A 
ATOM     12  C   UNL     1       4.135   0.426   0.799  0.00  0.00    +0.005 A 
ATOM     13  C   UNL     1       5.046   0.885  -0.134  0.00  0.00    -0.050 A 
ATOM     14  C   UNL     1       4.675   1.851  -1.051  0.00  0.00    +0.008 A 
ATOM     15  C   UNL     1       3.391   2.361  -1.037  0.00  0.00    -0.025 A 
ATOM     16  C   UNL     1       2.987   3.414  -2.036  0.00  0.00    +0.046 C 
ATOM     17  C   UNL     1       6.447   0.331  -0.152  0.00  0.00    +0.044 C 
ENDBRANCH   9  10
BRANCH   7  18
ATOM     18  C   UNL     1      -1.283   5.142  -0.071  0.00  0.00    +0.006 C 
ATOM     19  C   UNL     1      -1.847   5.390   1.329  0.00  0.00    +0.017 C 
ATOM     20  C   UNL     1      -0.375   6.307  -0.469  0.00  0.00    +0.017 C 
ATOM     21  C   UNL     1      -2.434   5.027  -1.072  0.00  0.00    +0.017 C 
ENDBRANCH   7  18
ENDBRANCH   3   5
BRANCH   1  22
ATOM     22  C   UNL     1      -1.384  -1.795   0.104  0.00  0.00    +0.205 C 
BRANCH  22  23
ATOM     23  N   UNL     1      -2.787  -2.186   0.259  0.00  0.00    -0.277 N 
ATOM     24  C   UNL     1      -3.560  -2.369  -0.830  0.00  0.00    +0.307 C 
ATOM     25  O   UNL     1      -3.093  -2.209  -1.941  0.00  0.00    -0.252 OA
ATOM     26  N   UNL     1      -4.851  -2.728  -0.688  0.00  0.00    -0.267 N 
ATOM     27  H   UNL     1      -5.240  -2.799   0.198  0.00  0.00    +0.156 HD
BRANCH  26  28
ATOM     28  C   UNL     1      -5.632  -2.999  -1.819  0.00  0.00    +0.070 A 
ATOM     29  C   UNL     1      -5.311  -2.424  -3.040  0.00  0.00    +0.026 A 
ATOM     30  C   UNL     1      -6.079  -2.697  -4.155  0.00  0.00    +0.002 A 
ATOM     31  C   UNL     1      -7.175  -3.535  -4.054  0.00  0.00    +0.003 A 
ATOM     32  C   UNL     1      -7.502  -4.106  -2.838  0.00  0.00    +0.040 A 
ATOM     33  C   UNL     1      -6.734  -3.841  -1.719  0.00  0.00    +0.145 A 
ATOM     34  F   UNL     1      -7.054  -4.399  -0.531  0.00  0.00    -0.204 F 
ENDBRANCH  26  28
BRANCH  23  35
ATOM     35  C   UNL     1      -3.351  -2.377   1.597  0.00  0.00    +0.110 C 
BRANCH  35  36
ATOM     36  C   UNL     1      -3.930  -1.054   2.102  0.00  0.00    +0.019 C 
BRANCH  36  38
ATOM     37  C   UNL     1      -5.097   0.069   4.004  0.00  0.00    +0.004 C 
ATOM     38  C   UNL     1      -4.518  -1.254   3.500  0.00  0.00    -0.002 C 
ENDBRANCH  36  38
ENDBRANCH  35  36
ENDBRANCH  23  35
ENDBRANCH  22  23
ENDBRANCH   1  22
TORSDOF 9
