REMARK  Name = ZINC12412671
REMARK  8 active torsions:
REMARK  status: ('A' for Active; 'I' for Inactive)
REMARK    1  A    between atoms: C_1  and  C_2
REMARK    2  A    between atoms: C_5  and  C_19
REMARK    3  A    between atoms: N_9  and  N_10
REMARK    4  A    between atoms: C_11  and  C_13
REMARK    5  A    between atoms: C_19  and  C_32
REMARK    6  A    between atoms: C_21  and  C_24
REMARK    7  A    between atoms: C_27  and  O_30
REMARK    8  A    between atoms: O_30  and  C_31
REMARK                            x       y       z     vdW  Elec       q    Type
REMARK                         _______ _______ _______ _____ _____    ______ ____
ROOT
ATOM      1  C   UNL     1      -0.569  -4.198  -0.898  0.00  0.00    +0.045 C 
ATOM      2  C   UNL     1      -0.456  -2.703  -0.741  0.00  0.00    -0.032 C 
ATOM      3  C   UNL     1      -1.456  -2.022  -0.202  0.00  0.00    -0.021 C 
ATOM      4  C   UNL     1      -1.431  -0.535  -0.016  0.00  0.00    +0.035 C 
ATOM      5  C   UNL     1       0.002  -0.004   0.002  0.00  0.00    +0.045 C 
ATOM      6  C   UNL     1       0.736  -0.501  -1.252  0.00  0.00    +0.065 C 
ATOM      7  C   UNL     1       0.766  -2.014  -1.185  0.00  0.00    +0.062 C 
ATOM      8  N   UNL     1       1.834  -2.681  -1.510  0.00  0.00    -0.184 NA
ENDROOT
BRANCH   5   9
ATOM      9  C   UNL     1      -0.019   1.526   0.010  0.00  0.00    +0.145 C 
ATOM     10  C   UNL     1      -0.818   2.062   1.222  0.00  0.00    +0.110 C 
ATOM     11  C   UNL     1      -1.530   3.268   0.639  0.00  0.00    +0.091 C 
ATOM     12  N   UNL     1      -1.469   3.191  -0.649  0.00  0.00    -0.088 NA
ATOM     13  O   UNL     1      -0.785   2.038  -1.099  0.00  0.00    -0.387 OA
ATOM     14  C   UNL     1       1.403   2.090  -0.000  0.00  0.00    +0.059 C 
BRANCH  11  15
ATOM     15  C   UNL     1      -2.179   4.345   1.411  0.00  0.00    -0.000 A 
ATOM     16  C   UNL     1      -2.177   4.305   2.807  0.00  0.00    +0.013 A 
ATOM     17  C   UNL     1      -2.780   5.316   3.524  0.00  0.00    +0.046 A 
ATOM     18  C   UNL     1      -3.399   6.367   2.860  0.00  0.00    +0.120 A 
ATOM     19  C   UNL     1      -3.408   6.408   1.472  0.00  0.00    +0.046 A 
ATOM     20  C   UNL     1      -2.802   5.405   0.747  0.00  0.00    +0.013 A 
BRANCH  18  21
ATOM     21  O   UNL     1      -3.997   7.359   3.571  0.00  0.00    -0.495 OA
ATOM     22  C   UNL     1      -3.951   7.254   4.995  0.00  0.00    +0.277 C 
ENDBRANCH  18  21
ENDBRANCH  11  15
ENDBRANCH   5   9
BRANCH   8  23
ATOM     23  N   UNL     1       2.984  -2.000  -1.930  0.00  0.00    -0.203 N 
ATOM     24  C   UNL     1       4.091  -2.691  -2.267  0.00  0.00    +0.263 C 
ATOM     25  O   UNL     1       4.092  -3.905  -2.205  0.00  0.00    -0.268 OA
ATOM     26  H   UNL     1       2.983  -1.031  -1.979  0.00  0.00    +0.178 HD
BRANCH  24  27
ATOM     27  C   UNL     1       5.304  -1.972  -2.710  0.00  0.00    +0.038 A 
ATOM     28  C   UNL     1       5.304  -0.578  -2.787  0.00  0.00    +0.013 A 
ATOM     29  C   UNL     1       6.442   0.086  -3.197  0.00  0.00    +0.001 A 
ATOM     30  C   UNL     1       7.577  -0.626  -3.541  0.00  0.00    +0.000 A 
ATOM     31  C   UNL     1       7.581  -2.008  -3.472  0.00  0.00    +0.001 A 
ATOM     32  C   UNL     1       6.452  -2.685  -3.059  0.00  0.00    +0.013 A 
ENDBRANCH  24  27
ENDBRANCH   8  23
TORSDOF 5
