REMARK  Name = ZINC12697665
REMARK  5 active torsions:
REMARK  status: ('A' for Active; 'I' for Inactive)
REMARK    1  A    between atoms: C_4  and  S_7
REMARK    2  A    between atoms: S_7  and  N_10
REMARK    3  A    between atoms: C_13  and  C_16
REMARK    4  A    between atoms: N_18  and  N_19
REMARK    5  A    between atoms: C_20  and  C_22
REMARK                            x       y       z     vdW  Elec       q    Type
REMARK                         _______ _______ _______ _____ _____    ______ ____
ROOT
ATOM      1  C   UNL     1      -1.187   1.624   0.017  0.00  0.00    +0.232 C 
ATOM      2  O   UNL     1      -1.204   2.837   0.023  0.00  0.00    -0.274 OA
ATOM      3  N   UNL     1      -0.011   0.966   0.007  0.00  0.00    -0.234 N 
ATOM      4  H   UNL     1       0.002  -0.004   0.002  0.00  0.00    +0.173 HD
ENDROOT
BRANCH   1   8
ATOM      5  N   UNL     1      -4.987   0.096  -1.056  0.00  0.00    -0.177 NA
ATOM      6  C   UNL     1      -4.972   1.044   0.066  0.00  0.00    +0.110 C 
ATOM      7  C   UNL     1      -3.658   1.831   0.029  0.00  0.00    +0.030 C 
ATOM      8  C   UNL     1      -2.482   0.853   0.018  0.00  0.00    +0.079 C 
ATOM      9  C   UNL     1      -2.556  -0.023  -1.235  0.00  0.00    +0.030 C 
ATOM     10  C   UNL     1      -3.857  -0.831  -1.212  0.00  0.00    +0.110 C 
BRANCH   5  11
ATOM     11  S   UNL     1      -6.253   0.071  -2.123  0.00  0.00    +0.061 S 
ATOM     12  O   UNL     1      -6.273  -1.228  -2.699  0.00  0.00    -0.153 OA
ATOM     13  O   UNL     1      -7.371   0.619  -1.439  0.00  0.00    -0.153 OA
BRANCH  11  17
ATOM     14  C   UNL     1      -5.242   2.952  -5.465  0.00  0.00    +0.000 A 
ATOM     15  C   UNL     1      -4.868   1.624  -5.561  0.00  0.00    +0.002 A 
ATOM     16  C   UNL     1      -5.176   0.745  -4.540  0.00  0.00    +0.028 A 
ATOM     17  C   UNL     1      -5.859   1.192  -3.424  0.00  0.00    +0.105 A 
ATOM     18  C   UNL     1      -6.237   2.519  -3.331  0.00  0.00    +0.028 A 
ATOM     19  C   UNL     1      -5.924   3.400  -4.350  0.00  0.00    +0.002 A 
ENDBRANCH  11  17
ENDBRANCH   5  11
ENDBRANCH   1   8
BRANCH   3  20
ATOM     20  N   UNL     1       1.193   1.683  -0.000  0.00  0.00    -0.230 N 
ATOM     21  C   UNL     1       2.369   1.025  -0.015  0.00  0.00    +0.267 C 
ATOM     22  O   UNL     1       2.385  -0.192  -0.022  0.00  0.00    -0.268 OA
ATOM     23  H   UNL     1       1.179   2.653   0.005  0.00  0.00    +0.173 HD
BRANCH  21  24
ATOM     24  C   UNL     1       3.628   1.775  -0.023  0.00  0.00    +0.076 A 
ATOM     25  C   UNL     1       4.923   1.304  -0.032  0.00  0.00    +0.024 A 
ATOM     26  C   UNL     1       5.967   2.235  -0.061  0.00  0.00    -0.036 A 
ATOM     27  C   UNL     1       5.627   3.534  -0.015  0.00  0.00    -0.006 A 
ATOM     28  S   UNL     1       3.890   3.537  -0.015  0.00  0.00    -0.088 S 
ATOM     29  C   UNL     1       6.437   4.802   0.102  0.00  0.00    +0.043 C 
ATOM     30  C   UNL     1       7.937   4.520   0.209  0.00  0.00    +0.005 C 
ATOM     31  C   UNL     1       8.540   4.208  -1.151  0.00  0.00    +0.000 C 
ATOM     32  C   UNL     1       7.629   3.379  -2.030  0.00  0.00    +0.000 C 
ATOM     33  C   UNL     1       7.841   1.911  -1.636  0.00  0.00    +0.005 C 
ATOM     34  C   UNL     1       7.393   1.718  -0.188  0.00  0.00    +0.036 C 
ENDBRANCH  21  24
ENDBRANCH   3  20
TORSDOF 5
