REMARK  Name = ZINC63818055
REMARK  7 active torsions:
REMARK  status: ('A' for Active; 'I' for Inactive)
REMARK    1  A    between atoms: C_6  and  C_11
REMARK    2  A    between atoms: C_11  and  C_12
REMARK    3  A    between atoms: C_12  and  N_13
REMARK    4  A    between atoms: C_14  and  C_16
REMARK    5  A    between atoms: C_19  and  C_23
REMARK    6  A    between atoms: C_23  and  C_24
REMARK    7  A    between atoms: N_26  and  C_27
REMARK                            x       y       z     vdW  Elec       q    Type
REMARK                         _______ _______ _______ _____ _____    ______ ____
ROOT
ATOM      1  C   UNL     1       5.842  -5.585  -2.674  0.00  0.00    +0.297 C 
ATOM      2  N   UNL     1       7.188  -5.665  -2.062  0.00  0.00    -0.265 NA
ATOM      3  C   UNL     1       7.226  -6.938  -1.311  0.00  0.00    +0.158 C 
ATOM      4  N   UNL     1       5.895  -7.561  -1.505  0.00  0.00    -0.181 NA
ATOM      5  O   UNL     1       5.008  -6.425  -1.845  0.00  0.00    -0.270 OA
ATOM      6  H   UNL     1       7.908  -5.640  -2.769  0.00  0.00    +0.126 HD
ATOM      7  H   UNL     1       5.918  -8.236  -2.255  0.00  0.00    +0.156 HD
ENDROOT
BRANCH   1   9
ATOM      8  N   UNL     1       5.028  -3.575  -1.483  0.00  0.00    -0.312 N 
ATOM      9  C   UNL     1       5.341  -4.163  -2.654  0.00  0.00    +0.259 C 
ATOM     10  O   UNL     1       5.218  -3.549  -3.693  0.00  0.00    -0.271 OA
ATOM     11  H   UNL     1       5.125  -4.067  -0.652  0.00  0.00    +0.149 HD
BRANCH   8  12
ATOM     12  C   UNL     1       4.540  -2.194  -1.464  0.00  0.00    +0.108 C 
BRANCH  12  13
ATOM     13  C   UNL     1       4.261  -1.772  -0.020  0.00  0.00    +0.052 C 
BRANCH  13  19
ATOM     14  C   UNL     1       0.025   1.429   0.042  0.00  0.00    +0.040 A 
ATOM     15  C   UNL     1       1.153   2.168   0.044  0.00  0.00    +0.029 A 
ATOM     16  C   UNL     1       2.428   1.536   0.029  0.00  0.00    +0.043 A 
ATOM     17  N   UNL     1       3.644   2.025   0.027  0.00  0.00    -0.380 N 
ATOM     18  C   UNL     1       4.596   0.909   0.009  0.00  0.00    +0.144 C 
ATOM     19  C   UNL     1       3.759  -0.351  -0.000  0.00  0.00    -0.040 C 
ATOM     20  C   UNL     1       2.470   0.056   0.013  0.00  0.00    +0.002 A 
ATOM     21  C   UNL     1       1.197  -0.675   0.012  0.00  0.00    +0.048 A 
ATOM     22  C   UNL     1       0.038   0.025   0.026  0.00  0.00    +0.124 A 
ATOM     23  F   UNL     1      -1.136  -0.644   0.026  0.00  0.00    -0.205 F 
ATOM     24  H   UNL     1       3.876   2.966   0.036  0.00  0.00    +0.160 HD
ENDBRANCH  13  19
ENDBRANCH  12  13
ENDBRANCH   8  12
ENDBRANCH   1   9
BRANCH   3  25
ATOM     25  C   UNL     1       8.322  -7.848  -1.869  0.00  0.00    +0.132 C 
BRANCH  25  26
ATOM     26  C   UNL     1       8.347  -9.139  -1.093  0.00  0.00    +0.220 C 
ATOM     27  O   UNL     1       7.564  -9.315  -0.183  0.00  0.00    -0.275 OA
ATOM     28  N   UNL     1       9.238 -10.099  -1.410  0.00  0.00    -0.283 N 
ATOM     29  H   UNL     1       9.809  -9.993  -2.187  0.00  0.00    +0.155 HD
BRANCH  28  30
ATOM     30  C   UNL     1       9.339 -11.250  -0.617  0.00  0.00    +0.069 A 
ATOM     31  C   UNL     1       8.950 -11.214   0.714  0.00  0.00    +0.029 A 
ATOM     32  C   UNL     1       9.050 -12.350   1.494  0.00  0.00    +0.040 A 
ATOM     33  C   UNL     1       9.540 -13.525   0.949  0.00  0.00    +0.126 A 
ATOM     34  C   UNL     1       9.931 -13.565  -0.378  0.00  0.00    +0.078 A 
ATOM     35  C   UNL     1       9.826 -12.432  -1.165  0.00  0.00    +0.147 A 
ATOM     36  F   UNL     1      10.201 -12.472  -2.462  0.00  0.00    -0.203 F 
ATOM     37  F   UNL     1       9.637 -14.634   1.715  0.00  0.00    -0.205 F 
ENDBRANCH  28  30
ENDBRANCH  25  26
ENDBRANCH   3  25
TORSDOF 7
