REMARK  Name = ZINC45047318
REMARK  5 active torsions:
REMARK  status: ('A' for Active; 'I' for Inactive)
REMARK    1  A    between atoms: C_1  and  C_2
REMARK    2  A    between atoms: C_2  and  N_8
REMARK    3  A    between atoms: N_8  and  S_9
REMARK    4  A    between atoms: S_9  and  C_12
REMARK    5  A    between atoms: N_18  and  N_19
REMARK                            x       y       z     vdW  Elec       q    Type
REMARK                         _______ _______ _______ _____ _____    ______ ____
ROOT
ATOM      1  S   UNL     1      -2.474  -0.225  -1.064  0.00  0.00    +0.059 S 
ATOM      2  O   UNL     1      -1.462  -0.037  -2.044  0.00  0.00    -0.153 OA
ATOM      3  O   UNL     1      -3.561  -1.120  -1.254  0.00  0.00    -0.153 OA
ENDROOT
BRANCH   1   4
ATOM      4  C   UNL     1      -3.176   1.362  -0.755  0.00  0.00    +0.110 A 
ATOM      5  C   UNL     1      -4.363   1.486  -0.046  0.00  0.00    +0.048 A 
ATOM      6  C   UNL     1      -4.887   2.743   0.179  0.00  0.00    +0.115 A 
ATOM      7  N   UNL     1      -4.274   3.823  -0.269  0.00  0.00    -0.239 NA
ATOM      8  C   UNL     1      -3.140   3.745  -0.948  0.00  0.00    +0.134 A 
ATOM      9  C   UNL     1      -2.553   2.511  -1.208  0.00  0.00    +0.073 A 
ATOM     10  N   UNL     1      -2.528   4.908  -1.402  0.00  0.00    -0.267 N 
ATOM     11  H   UNL     1      -1.698   4.856  -1.900  0.00  0.00    +0.167 HD
BRANCH  10  12
ATOM     12  N   UNL     1      -3.096   6.123  -1.146  0.00  0.00    -0.255 NA
ATOM     13  H   UNL     1      -3.237   6.255  -0.156  0.00  0.00    +0.140 HD
ATOM     14  H   UNL     1      -2.542   6.871  -1.535  0.00  0.00    +0.140 HD
ENDBRANCH  10  12
ENDBRANCH   1   4
BRANCH   1  15
ATOM     15  N   UNL     1      -1.706  -0.699   0.324  0.00  0.00    -0.184 NA
ATOM     16  H   UNL     1      -2.053  -1.444   0.840  0.00  0.00    +0.149 HD
BRANCH  15  18
ATOM     17  C   UNL     1      -0.797   1.503   0.877  0.00  0.00    +0.029 C 
ATOM     18  C   UNL     1      -0.502   0.005   0.773  0.00  0.00    +0.037 C 
ATOM     19  C   UNL     1       0.628  -0.224  -0.233  0.00  0.00    +0.023 C 
ATOM     20  C   UNL     1       0.923  -1.721  -0.336  0.00  0.00    +0.002 C 
ATOM     21  C   UNL     1       1.344  -2.254   1.034  0.00  0.00    +0.000 C 
ATOM     22  C   UNL     1       0.214  -2.026   2.040  0.00  0.00    +0.002 C 
ATOM     23  C   UNL     1      -0.081  -0.528   2.144  0.00  0.00    +0.023 C 
ENDBRANCH  15  18
ENDBRANCH   1  15
TORSDOF 4
