REMARK  Name = ZINC00467514
REMARK  6 active torsions:
REMARK  status: ('A' for Active; 'I' for Inactive)
REMARK    1  A    between atoms: C_1  and  C_2
REMARK    2  A    between atoms: C_4  and  C_23
REMARK    3  A    between atoms: C_5  and  S_9
REMARK    4  A    between atoms: C_6  and  C_8
REMARK    5  A    between atoms: S_9  and  N_12
REMARK    6  A    between atoms: N_12  and  C_13
REMARK                            x       y       z     vdW  Elec       q    Type
REMARK                         _______ _______ _______ _____ _____    ______ ____
ROOT
ATOM      1  S   UNL     1       3.717  -2.955  -1.449  0.00  0.00    +0.073 S 
ATOM      2  O   UNL     1       4.520  -4.086  -1.757  0.00  0.00    -0.150 OA
ATOM      3  O   UNL     1       2.354  -3.070  -1.063  0.00  0.00    -0.150 OA
ENDROOT
BRANCH   1   8
ATOM      4  C   UNL     1       3.838   0.620  -6.308  0.00  0.00    +0.044 C 
ATOM      5  C   UNL     1       3.808  -0.274  -5.095  0.00  0.00    -0.050 A 
ATOM      6  C   UNL     1       4.973  -0.861  -4.640  0.00  0.00    +0.008 A 
ATOM      7  C   UNL     1       4.946  -1.680  -3.526  0.00  0.00    -0.023 A 
ATOM      8  C   UNL     1       3.752  -1.911  -2.868  0.00  0.00    +0.114 A 
ATOM      9  C   UNL     1       2.586  -1.329  -3.326  0.00  0.00    -0.023 A 
ATOM     10  C   UNL     1       2.614  -0.506  -4.437  0.00  0.00    +0.008 A 
ATOM     11  C   UNL     1       1.284  -1.586  -2.612  0.00  0.00    +0.046 C 
ATOM     12  C   UNL     1       6.216  -2.320  -3.030  0.00  0.00    +0.046 C 
ENDBRANCH   1   8
BRANCH   1  13
ATOM     13  N   UNL     1       4.488  -2.146  -0.227  0.00  0.00    -0.216 N 
ATOM     14  H   UNL     1       5.279  -2.528   0.184  0.00  0.00    +0.174 HD
BRANCH  13  15
ATOM     15  C   UNL     1       3.998  -0.911   0.213  0.00  0.00    +0.052 A 
ATOM     16  C   UNL     1       2.638  -0.743   0.434  0.00  0.00    +0.028 A 
ATOM     17  C   UNL     1       2.154   0.476   0.868  0.00  0.00    +0.051 A 
ATOM     18  C   UNL     1       3.024   1.535   1.083  0.00  0.00    +0.162 A 
ATOM     19  C   UNL     1       4.386   1.368   0.866  0.00  0.00    +0.164 A 
ATOM     20  C   UNL     1       4.872   0.145   0.430  0.00  0.00    +0.074 A 
ATOM     21  O   UNL     1       5.256   2.393   1.080  0.00  0.00    -0.485 OA
ATOM     22  C   UNL     1       4.696   3.708   1.157  0.00  0.00    +0.270 C 
ATOM     23  C   UNL     1       3.464   3.654   2.071  0.00  0.00    +0.270 C 
ATOM     24  O   UNL     1       2.526   2.732   1.503  0.00  0.00    -0.485 OA
ENDBRANCH  13  15
ENDBRANCH   1  13
TORSDOF 3
