REMARK  Name = ZINC19180114
REMARK  10 active torsions:
REMARK  status: ('A' for Active; 'I' for Inactive)
REMARK    1  A    between atoms: C_1  and  C_2
REMARK    2  A    between atoms: C_2  and  O_3
REMARK    3  A    between atoms: O_3  and  C_4
REMARK    4  A    between atoms: C_4  and  C_6
REMARK    5  A    between atoms: C_7  and  C_19
REMARK    6  A    between atoms: C_12  and  C_14
REMARK    7  A    between atoms: C_19  and  S_20
REMARK    8  A    between atoms: S_20  and  C_21
REMARK    9  A    between atoms: N_25  and  C_26
REMARK   10  A    between atoms: C_29  and  C_33
REMARK                            x       y       z     vdW  Elec       q    Type
REMARK                         _______ _______ _______ _____ _____    ______ ____
ROOT
ATOM      1  C   UNL     1       5.747   5.420   3.670  0.00  0.00    +0.082 C 
ATOM      2  C   UNL     1       4.423   5.446   3.935  0.00  0.00    +0.034 C 
ATOM      3  N   UNL     1       3.948   5.155   5.182  0.00  0.00    -0.272 N 
ATOM      4  C   UNL     1       4.730   4.817   6.215  0.00  0.00    +0.304 C 
ATOM      5  O   UNL     1       4.214   4.569   7.287  0.00  0.00    -0.252 OA
ATOM      6  N   UNL     1       6.072   4.747   6.105  0.00  0.00    -0.285 N 
ATOM      7  C   UNL     1       6.685   5.050   4.801  0.00  0.00    +0.179 C 
ATOM      8  H   UNL     1       2.866   5.190   5.380  0.00  0.00    +0.156 HD
ATOM      9  H   UNL     1       6.706   4.473   6.961  0.00  0.00    +0.151 HD
ENDROOT
BRANCH   7  10
ATOM     10  C   UNL     1       7.479   3.843   4.370  0.00  0.00    +0.130 A 
ATOM     11  C   UNL     1       8.738   3.858   3.897  0.00  0.00    +0.047 A 
ATOM     12  C   UNL     1       9.087   2.516   3.619  0.00  0.00    +0.041 A 
ATOM     13  C   UNL     1       8.020   1.762   3.940  0.00  0.00    +0.195 A 
ATOM     14  O   UNL     1       7.051   2.571   4.399  0.00  0.00    -0.466 OA
ENDBRANCH   7  10
BRANCH   1  15
ATOM     15  C   UNL     1       6.241   5.726   2.381  0.00  0.00    +0.339 C 
ATOM     16  O   UNL     1       6.723   6.821   2.158  0.00  0.00    -0.245 OA
BRANCH  15  17
ATOM     17  O   UNL     1       6.177   4.805   1.397  0.00  0.00    -0.462 OA
BRANCH  17  19
ATOM     18  C   UNL     1       6.537   4.017  -0.859  0.00  0.00    +0.048 C 
ATOM     19  C   UNL     1       6.695   5.182   0.120  0.00  0.00    +0.229 C 
ENDBRANCH  17  19
ENDBRANCH  15  17
ENDBRANCH   1  15
BRANCH   2  20
ATOM     20  C   UNL     1       3.455   5.810   2.839  0.00  0.00    +0.128 C 
BRANCH  20  21
ATOM     21  S   UNL     1       2.621   4.315   2.250  0.00  0.00    -0.080 S 
BRANCH  21  22
ATOM     22  C   UNL     1       1.580   5.013   1.012  0.00  0.00    +0.196 A 
ATOM     23  N   UNL     1       1.505   6.280   0.678  0.00  0.00    -0.122 NA
ATOM     24  N   UNL     1       0.639   6.436  -0.259  0.00  0.00    -0.137 NA
ATOM     25  C   UNL     1       0.117   5.287  -0.583  0.00  0.00    +0.230 A 
ATOM     26  N   UNL     1       0.700   4.336   0.212  0.00  0.00    -0.277 N 
BRANCH  26  27
ATOM     27  C   UNL     1       0.444   2.957   0.211  0.00  0.00    +0.051 A 
ATOM     28  C   UNL     1       1.497   2.054   0.143  0.00  0.00    +0.026 A 
ATOM     29  C   UNL     1       1.242   0.697   0.142  0.00  0.00    +0.007 A 
ATOM     30  C   UNL     1      -0.060   0.236   0.208  0.00  0.00    -0.032 A 
ATOM     31  C   UNL     1      -1.111   1.133   0.276  0.00  0.00    +0.046 A 
ATOM     32  C   UNL     1      -0.862   2.493   0.278  0.00  0.00    +0.046 A 
ATOM     33 CL   UNL     1      -2.745   0.550   0.359  0.00  0.00    -0.083 Cl
ATOM     34  C   UNL     1      -0.334  -1.246   0.207  0.00  0.00    +0.045 C 
ENDBRANCH  26  27
ENDBRANCH  21  22
ENDBRANCH  20  21
ENDBRANCH   2  20
TORSDOF 8
