REMARK  Name = ZINC31302089
REMARK  14 active torsions:
REMARK  status: ('A' for Active; 'I' for Inactive)
REMARK    1  A    between atoms: C_1  and  C_2
REMARK    2  A    between atoms: C_2  and  O_3
REMARK    3  A    between atoms: O_3  and  C_4
REMARK    4  A    between atoms: C_4  and  C_6
REMARK    5  A    between atoms: C_10  and  N_11
REMARK    6  A    between atoms: C_12  and  C_14
REMARK    7  A    between atoms: C_14  and  C_16
REMARK    8  A    between atoms: C_14  and  N_17
REMARK    9  A    between atoms: N_17  and  C_18
REMARK   10  A    between atoms: N_17  and  C_19
REMARK   11  A    between atoms: C_19  and  C_20
REMARK   12  A    between atoms: N_22  and  C_23
REMARK   13  A    between atoms: C_27  and  C_30
REMARK   14  A    between atoms: C_28  and  C_29
REMARK                            x       y       z     vdW  Elec       q    Type
REMARK                         _______ _______ _______ _____ _____    ______ ____
ROOT
ATOM      1  C   UNL     1      -0.181   0.882   2.416  0.00  0.00    +0.017 C 
ATOM      2  C   UNL     1       1.239   1.381   2.692  0.00  0.00    -0.004 C 
ENDROOT
BRANCH   1   4
ATOM      3  N   UNL     1      -0.772   0.696   4.811  0.00  0.00    -0.281 N 
ATOM      4  C   UNL     1      -1.064   1.200   3.596  0.00  0.00    +0.204 C 
ATOM      5  O   UNL     1      -2.036   1.910   3.451  0.00  0.00    -0.277 OA
ATOM      6  H   UNL     1       0.110   0.052   4.942  0.00  0.00    +0.155 HD
BRANCH   3  11
ATOM      7  C   UNL     1      -1.452   0.565   7.208  0.00  0.00    +0.091 A 
ATOM      8  C   UNL     1      -2.453   1.026   8.171  0.00  0.00    -0.021 A 
ATOM      9  C   UNL     1      -3.413   1.819   7.662  0.00  0.00    -0.004 A 
ATOM     10  S   UNL     1      -3.011   1.967   5.939  0.00  0.00    -0.077 S 
ATOM     11  C   UNL     1      -1.583   0.989   5.896  0.00  0.00    +0.086 A 
ATOM     12  C   UNL     1      -4.404   2.248   8.710  0.00  0.00    +0.043 C 
ATOM     13  C   UNL     1      -3.696   1.968  10.054  0.00  0.00    +0.010 C 
ATOM     14  C   UNL     1      -2.721   0.839   9.665  0.00  0.00    +0.037 C 
BRANCH   7  15
ATOM     15  C   UNL     1      -0.351  -0.308   7.618  0.00  0.00    +0.342 C 
ATOM     16  O   UNL     1       0.698   0.174   8.002  0.00  0.00    -0.245 OA
BRANCH  15  17
ATOM     17  O   UNL     1      -0.499  -1.648   7.569  0.00  0.00    -0.461 OA
BRANCH  17  19
ATOM     18  C   UNL     1       0.281  -3.936   7.865  0.00  0.00    +0.048 C 
ATOM     19  C   UNL     1       0.634  -2.453   7.989  0.00  0.00    +0.229 C 
ENDBRANCH  17  19
ENDBRANCH  15  17
ENDBRANCH   7  15
ENDBRANCH   3  11
ENDBRANCH   1   4
BRANCH   1  20
ATOM     20  N   UNL     1      -0.709   1.546   1.217  0.00  0.00    +0.391 N 
ATOM     21  C   UNL     1      -0.615   3.006   1.339  0.00  0.00    -0.094 C 
ATOM     22  H   UNL     1      -1.773   1.282   1.125  0.00  0.00    -0.080 HD
BRANCH  20  23
ATOM     23  C   UNL     1      -0.021   1.073   0.008  0.00  0.00    +0.020 C 
BRANCH  23  24
ATOM     24  C   UNL     1      -0.743   1.582  -1.213  0.00  0.00    +0.201 C 
ATOM     25  O   UNL     1      -1.734   2.271  -1.088  0.00  0.00    -0.278 OA
ATOM     26  N   UNL     1      -0.288   1.272  -2.443  0.00  0.00    -0.287 N 
ATOM     27  H   UNL     1       0.659   0.725  -2.558  0.00  0.00    +0.155 HD
BRANCH  26  28
ATOM     28  C   UNL     1      -1.022   1.646  -3.575  0.00  0.00    +0.036 A 
ATOM     29  C   UNL     1      -2.392   1.853  -3.479  0.00  0.00    +0.023 A 
ATOM     30  C   UNL     1      -3.112   2.222  -4.598  0.00  0.00    +0.002 A 
ATOM     31  C   UNL     1      -2.471   2.386  -5.812  0.00  0.00    +0.004 A 
ATOM     32  C   UNL     1      -1.107   2.182  -5.910  0.00  0.00    -0.046 A 
ATOM     33  C   UNL     1      -0.380   1.818  -4.794  0.00  0.00    -0.026 A 
ATOM     34  C   UNL     1       1.108   1.601  -4.901  0.00  0.00    +0.046 C 
ATOM     35  C   UNL     1      -0.413   2.361  -7.236  0.00  0.00    +0.044 C 
ENDBRANCH  26  28
ENDBRANCH  23  24
ENDBRANCH  20  23
ENDBRANCH   1  20
TORSDOF 9
