REMARK  Name = ZINC39919856
REMARK  9 active torsions:
REMARK  status: ('A' for Active; 'I' for Inactive)
REMARK    1  A    between atoms: C_1  and  C_2
REMARK    2  A    between atoms: C_7  and  O_8
REMARK    3  A    between atoms: O_8  and  C_9
REMARK    4  A    between atoms: C_9  and  C_10
REMARK    5  A    between atoms: N_12  and  N_13
REMARK    6  A    between atoms: C_14  and  C_25
REMARK    7  A    between atoms: C_28  and  C_31
REMARK    8  A    between atoms: C_31  and  C_32
REMARK    9  A    between atoms: C_31  and  C_33
REMARK                            x       y       z     vdW  Elec       q    Type
REMARK                         _______ _______ _______ _____ _____    ______ ____
ROOT
ATOM      1  N   UNL     1       0.066   0.412   7.134  0.00  0.00    -0.191 N 
ATOM      2  C   UNL     1       1.303   0.604   7.890  0.00  0.00    +0.212 C 
ATOM      3  N   UNL     1       1.339   1.950   8.474  0.00  0.00    -0.320 N 
ATOM      4  C   UNL     1       0.192   2.438   9.089  0.00  0.00    +0.041 A 
ATOM      5  C   UNL     1       0.249   3.340  10.137  0.00  0.00    +0.024 A 
ATOM      6  C   UNL     1      -0.922   3.791  10.716  0.00  0.00    +0.002 A 
ATOM      7  C   UNL     1      -2.152   3.348  10.255  0.00  0.00    +0.001 A 
ATOM      8  C   UNL     1      -2.227   2.449   9.210  0.00  0.00    +0.015 A 
ATOM      9  C   UNL     1      -1.054   1.988   8.617  0.00  0.00    +0.059 A 
ATOM     10  C   UNL     1      -1.075   1.040   7.489  0.00  0.00    +0.266 C 
ATOM     11  O   UNL     1      -2.109   0.822   6.888  0.00  0.00    -0.268 OA
ATOM     12  H   UNL     1       2.146   2.487   8.432  0.00  0.00    +0.148 HD
ENDROOT
BRANCH   2  13
ATOM     13  C   UNL     1       1.376  -0.418   8.995  0.00  0.00    -0.008 A 
ATOM     14  C   UNL     1       0.786  -1.658   8.830  0.00  0.00    +0.007 A 
ATOM     15  C   UNL     1       0.853  -2.595   9.843  0.00  0.00    +0.004 A 
ATOM     16  C   UNL     1       1.511  -2.294  11.021  0.00  0.00    -0.045 A 
ATOM     17  C   UNL     1       2.102  -1.055  11.185  0.00  0.00    +0.004 A 
ATOM     18  C   UNL     1       2.038  -0.119  10.171  0.00  0.00    +0.007 A 
BRANCH  16  19
ATOM     19  C   UNL     1       1.583  -3.316  12.126  0.00  0.00    +0.013 C 
ATOM     20  C   UNL     1       3.047  -3.643  12.424  0.00  0.00    +0.012 C 
ATOM     21  C   UNL     1       0.919  -2.754  13.385  0.00  0.00    +0.012 C 
ENDBRANCH  16  19
ENDBRANCH   2  13
BRANCH   1  24
ATOM     22  C   UNL     1       0.047   0.090   4.775  0.00  0.00    +0.267 C 
ATOM     23  O   UNL     1       0.030   1.294   4.625  0.00  0.00    -0.271 OA
ATOM     24  N   UNL     1       0.066  -0.433   6.017  0.00  0.00    -0.227 N 
ATOM     25  H   UNL     1       0.080  -1.396   6.137  0.00  0.00    +0.173 HD
BRANCH  22  26
ATOM     26  C   UNL     1       0.048  -0.820   3.574  0.00  0.00    +0.326 C 
BRANCH  26  27
ATOM     27  O   UNL     1       0.025  -0.033   2.381  0.00  0.00    -0.482 OA
BRANCH  27  34
ATOM     28  C   UNL     1      -0.018   1.503   0.010  0.00  0.00    +0.047 C 
ATOM     29  C   UNL     1       0.002  -0.004   0.002  0.00  0.00    -0.009 A 
ATOM     30  C   UNL     1       0.006  -0.689  -1.198  0.00  0.00    +0.007 A 
ATOM     31  C   UNL     1       0.024  -2.071  -1.206  0.00  0.00    +0.000 A 
ATOM     32  C   UNL     1       0.039  -2.772  -0.014  0.00  0.00    +0.004 A 
ATOM     33  C   UNL     1       0.036  -2.092   1.188  0.00  0.00    +0.046 A 
ATOM     34  C   UNL     1       0.023  -0.705   1.199  0.00  0.00    +0.124 A 
ENDBRANCH  27  34
ENDBRANCH  26  27
ENDBRANCH  22  26
ENDBRANCH   1  24
TORSDOF 6
