REMARK  Name = ZINC21707766
REMARK  9 active torsions:
REMARK  status: ('A' for Active; 'I' for Inactive)
REMARK    1  A    between atoms: C_1  and  C_2
REMARK    2  A    between atoms: C_7  and  C_9
REMARK    3  A    between atoms: C_7  and  C_10
REMARK    4  A    between atoms: N_13  and  C_17
REMARK    5  A    between atoms: C_17  and  C_18
REMARK    6  A    between atoms: N_20  and  C_21
REMARK    7  A    between atoms: C_26  and  S_27
REMARK    8  A    between atoms: S_27  and  C_28
REMARK    9  A    between atoms: C_28  and  C_29
REMARK                            x       y       z     vdW  Elec       q    Type
REMARK                         _______ _______ _______ _____ _____    ______ ____
ROOT
ATOM      1  C   UNL     1      -1.560  -4.139  -3.324  0.00  0.00    +0.214 C 
ENDROOT
BRANCH   1  13
ATOM      2  C   UNL     1       0.011   1.511   0.009  0.00  0.00    +0.007 C 
ATOM      3  C   UNL     1       0.033  -0.021  -0.006  0.00  0.00    -0.011 C 
ATOM      4  C   UNL     1       0.749  -0.503  -1.269  0.00  0.00    +0.038 C 
ATOM      5  C   UNL     1       0.735  -2.025  -1.319  0.00  0.00    +0.113 C 
ATOM      6  C   UNL     1       1.296  -2.662  -0.063  0.00  0.00    +0.041 C 
ATOM      7  C   UNL     1       0.829  -2.052   1.247  0.00  0.00    -0.032 C 
ATOM      8  C   UNL     1       0.803  -0.528   1.212  0.00  0.00    +0.009 C 
ATOM      9  C   UNL     1       1.819  -2.479   2.352  0.00  0.00    +0.011 C 
ATOM     10  C   UNL     1      -0.551  -2.591   1.634  0.00  0.00    +0.011 C 
ATOM     11  C   UNL     1      -0.644  -2.540  -1.651  0.00  0.00    +0.247 C 
ATOM     12  O   UNL     1      -1.692  -2.295  -1.091  0.00  0.00    -0.273 OA
ATOM     13  N   UNL     1      -0.490  -3.328  -2.737  0.00  0.00    -0.215 N 
ATOM     14  C   UNL     1       0.760  -3.273  -3.208  0.00  0.00    +0.310 C 
ATOM     15  O   UNL     1       1.141  -3.885  -4.187  0.00  0.00    -0.252 OA
ATOM     16  N   UNL     1       1.548  -2.469  -2.474  0.00  0.00    -0.285 N 
ATOM     17  H   UNL     1       2.466  -2.219  -2.652  0.00  0.00    +0.151 HD
ENDBRANCH   1  13
BRANCH   1  18
ATOM     18  C   UNL     1      -2.290  -3.330  -4.364  0.00  0.00    +0.235 C 
ATOM     19  O   UNL     1      -1.951  -2.188  -4.594  0.00  0.00    -0.274 OA
ATOM     20  N   UNL     1      -3.321  -3.876  -5.040  0.00  0.00    -0.283 N 
ATOM     21  H   UNL     1      -3.551  -4.808  -4.904  0.00  0.00    +0.155 HD
BRANCH  20  22
ATOM     22  C   UNL     1      -4.060  -3.096  -5.940  0.00  0.00    +0.047 A 
ATOM     23  C   UNL     1      -3.432  -2.109  -6.684  0.00  0.00    +0.024 A 
ATOM     24  C   UNL     1      -4.163  -1.341  -7.571  0.00  0.00    +0.002 A 
ATOM     25  C   UNL     1      -5.521  -1.553  -7.720  0.00  0.00    +0.001 A 
ATOM     26  C   UNL     1      -6.157  -2.534  -6.982  0.00  0.00    +0.016 A 
ATOM     27  C   UNL     1      -5.430  -3.314  -6.093  0.00  0.00    +0.029 A 
BRANCH  27  28
ATOM     28  S   UNL     1      -6.235  -4.570  -5.156  0.00  0.00    -0.119 S 
BRANCH  28  29
ATOM     29  C   UNL     1      -7.966  -4.473  -5.689  0.00  0.00    +0.110 C 
BRANCH  29  30
ATOM     30  C   UNL     1      -8.777  -5.508  -4.954  0.00  0.00    -0.030 A 
ATOM     31  C   UNL     1      -8.928  -6.780  -5.475  0.00  0.00    +0.012 A 
ATOM     32  C   UNL     1      -9.664  -7.688  -4.788  0.00  0.00    +0.045 A 
ATOM     33  S   UNL     1     -10.172  -6.747  -3.359  0.00  0.00    -0.105 S 
ATOM     34  C   UNL     1      -9.365  -5.209  -3.770  0.00  0.00    +0.049 A 
ENDBRANCH  29  30
ENDBRANCH  28  29
ENDBRANCH  27  28
ENDBRANCH  20  22
ENDBRANCH   1  18
TORSDOF 6
