REMARK  Name = ZINC07656830
REMARK  10 active torsions:
REMARK  status: ('A' for Active; 'I' for Inactive)
REMARK    1  A    between atoms: C_1  and  C_2
REMARK    2  A    between atoms: C_8  and  N_10
REMARK    3  A    between atoms: C_11  and  C_13
REMARK    4  A    between atoms: C_13  and  C_15
REMARK    5  A    between atoms: C_13  and  O_16
REMARK    6  A    between atoms: O_16  and  C_17
REMARK    7  A    between atoms: C_17  and  C_19
REMARK    8  A    between atoms: C_22  and  N_27
REMARK    9  A    between atoms: C_24  and  O_25
REMARK   10  A    between atoms: O_25  and  C_26
REMARK                            x       y       z     vdW  Elec       q    Type
REMARK                         _______ _______ _______ _____ _____    ______ ____
ROOT
ATOM      1  O   UNL     1       6.366  -0.979   0.901  0.00  0.00    -0.449 OA
ENDROOT
BRANCH   1   2
ATOM      2  C   UNL     1       4.934  -1.063   1.125  0.00  0.00    +0.259 C 
ATOM      3  C   UNL     1       4.544  -2.518   1.393  0.00  0.00    +0.062 C 
BRANCH   2   5
ATOM      4  N   UNL     1       2.862  -0.453  -0.081  0.00  0.00    -0.309 N 
ATOM      5  C   UNL     1       4.205  -0.564  -0.096  0.00  0.00    +0.254 C 
ATOM      6  O   UNL     1       4.827  -0.261  -1.092  0.00  0.00    -0.272 OA
ATOM      7  H   UNL     1       2.365  -0.695   0.716  0.00  0.00    +0.149 HD
BRANCH   4  14
ATOM      8  C   UNL     1       0.739  -2.027  -1.265  0.00  0.00    +0.009 C 
ATOM      9  C   UNL     1       0.718  -0.497  -1.257  0.00  0.00    +0.006 C 
ATOM     10  C   UNL     1       0.002  -0.004   0.002  0.00  0.00    +0.005 C 
ATOM     11  C   UNL     1      -0.019   1.526   0.010  0.00  0.00    +0.000 C 
ATOM     12  C   UNL     1       1.417   2.055  -0.000  0.00  0.00    +0.002 C 
ATOM     13  C   UNL     1       2.133   1.562  -1.259  0.00  0.00    +0.022 C 
ATOM     14  C   UNL     1       2.154   0.032  -1.268  0.00  0.00    +0.076 C 
ENDBRANCH   4  14
ENDBRANCH   2   5
ENDBRANCH   1   2
BRANCH   1  15
ATOM     15  C   UNL     1       7.144  -0.774   1.984  0.00  0.00    +0.343 C 
ATOM     16  O   UNL     1       6.638  -0.668   3.084  0.00  0.00    -0.245 OA
BRANCH  15  17
ATOM     17  C   UNL     1       8.604  -0.679   1.833  0.00  0.00    +0.102 A 
ATOM     18  C   UNL     1       9.188  -0.801   0.567  0.00  0.00    +0.040 A 
ATOM     19  C   UNL     1      10.544  -0.712   0.428  0.00  0.00    +0.063 A 
ATOM     20  C   UNL     1      11.354  -0.500   1.543  0.00  0.00    +0.047 A 
ATOM     21  C   UNL     1      10.788  -0.377   2.805  0.00  0.00    +0.070 A 
ATOM     22  C   UNL     1       9.415  -0.460   2.957  0.00  0.00    +0.136 A 
ATOM     23 CL   UNL     1      11.262  -0.864  -1.145  0.00  0.00    -0.082 Cl
BRANCH  20  24
ATOM     24  N   UNL     1      12.734  -0.411   1.390  0.00  0.00    -0.357 N 
ATOM     25  H   UNL     1      13.131  -0.497   0.509  0.00  0.00    +0.142 HD
ATOM     26  H   UNL     1      13.299  -0.263   2.165  0.00  0.00    +0.142 HD
ENDBRANCH  20  24
BRANCH  22  27
ATOM     27  O   UNL     1       8.857  -0.335   4.187  0.00  0.00    -0.494 OA
ATOM     28  C   UNL     1       9.745  -0.113   5.284  0.00  0.00    +0.277 C 
ENDBRANCH  22  27
ENDBRANCH  15  17
ENDBRANCH   1  15
TORSDOF 7
