REMARK  Name = ZINC15946048
REMARK  12 active torsions:
REMARK  status: ('A' for Active; 'I' for Inactive)
REMARK    1  A    between atoms: C_1  and  C_2
REMARK    2  A    between atoms: C_2  and  C_3
REMARK    3  A    between atoms: C_2  and  C_4
REMARK    4  A    between atoms: C_2  and  C_5
REMARK    5  A    between atoms: C_12  and  N_27
REMARK    6  A    between atoms: C_13  and  C_14
REMARK    7  A    between atoms: N_16  and  C_17
REMARK    8  A    between atoms: C_22  and  C_23
REMARK    9  A    between atoms: C_23  and  O_25
REMARK   10  A    between atoms: O_25  and  C_26
REMARK   11  A    between atoms: C_28  and  C_30
REMARK   12  A    between atoms: C_30  and  N_76
REMARK                            x       y       z     vdW  Elec       q    Type
REMARK                         _______ _______ _______ _____ _____    ______ ____
ROOT
ATOM      1  C   UNL     1      -7.187   0.625  -3.066  0.00  0.00    -0.000 C 
ATOM      2  C   UNL     1      -6.416  -0.699  -3.067  0.00  0.00    +0.009 C 
ATOM      3  C   UNL     1      -5.201  -0.594  -2.144  0.00  0.00    +0.037 C 
ATOM      4  C   UNL     1      -5.661  -0.093  -0.780  0.00  0.00    -0.023 A 
ATOM      5  C   UNL     1      -6.858   0.515  -0.630  0.00  0.00    -0.004 A 
ATOM      6  S   UNL     1      -6.956   0.902   1.094  0.00  0.00    -0.077 S 
ATOM      7  C   UNL     1      -5.433   0.259   1.613  0.00  0.00    +0.084 A 
ATOM      8  C   UNL     1      -4.885  -0.240   0.439  0.00  0.00    +0.069 A 
ATOM      9  C   UNL     1      -7.867   0.799  -1.700  0.00  0.00    +0.046 C 
ENDROOT
BRANCH   1  11
ATOM     10  C   UNL     1      -9.027   1.919  -4.152  0.00  0.00    +0.011 C 
ATOM     11  C   UNL     1      -8.248   0.602  -4.168  0.00  0.00    -0.035 C 
ATOM     12  C   UNL     1      -7.567   0.429  -5.527  0.00  0.00    +0.011 C 
ATOM     13  C   UNL     1      -9.209  -0.563  -3.927  0.00  0.00    +0.011 C 
ENDBRANCH   1  11
BRANCH   8  14
ATOM     14  C   UNL     1      -3.568  -0.885   0.429  0.00  0.00    +0.251 C 
ATOM     15  O   UNL     1      -3.478  -2.085   0.608  0.00  0.00    -0.270 OA
ATOM     16  N   UNL     1      -2.459  -0.149   0.222  0.00  0.00    -0.281 N 
ATOM     17  H   UNL     1      -2.523   0.817   0.156  0.00  0.00    +0.155 HD
BRANCH  16  18
ATOM     18  C   UNL     1      -1.221  -0.774   0.103  0.00  0.00    +0.048 A 
ATOM     19  C   UNL     1      -1.123  -2.016  -0.511  0.00  0.00    +0.024 A 
ATOM     20  C   UNL     1       0.104  -2.636  -0.623  0.00  0.00    +0.002 A 
ATOM     21  C   UNL     1       1.247  -2.026  -0.131  0.00  0.00    +0.001 A 
ATOM     22  C   UNL     1       1.171  -0.791   0.476  0.00  0.00    +0.017 A 
ATOM     23  C   UNL     1      -0.065  -0.150   0.597  0.00  0.00    +0.080 A 
BRANCH  23  24
ATOM     24  C   UNL     1      -0.155   1.170   1.246  0.00  0.00    +0.341 C 
ATOM     25  O   UNL     1      -1.213   1.767   1.265  0.00  0.00    -0.245 OA
BRANCH  24  26
ATOM     26  O   UNL     1       0.938   1.718   1.812  0.00  0.00    -0.464 OA
ATOM     27  C   UNL     1       0.776   3.021   2.432  0.00  0.00    +0.280 C 
ENDBRANCH  24  26
ENDBRANCH  23  24
ENDBRANCH  16  18
ENDBRANCH   8  14
BRANCH   7  28
ATOM     28  N   UNL     1      -4.893   0.245   2.889  0.00  0.00    -0.281 N 
ATOM     29  C   UNL     1      -5.580   0.783   3.917  0.00  0.00    +0.201 C 
ATOM     30  O   UNL     1      -6.670   1.278   3.725  0.00  0.00    -0.278 OA
ATOM     31  H   UNL     1      -4.021  -0.151   3.043  0.00  0.00    +0.155 HD
BRANCH  29  32
ATOM     32  C   UNL     1      -4.993   0.768   5.305  0.00  0.00    +0.019 C 
BRANCH  32  39
ATOM     33  C   UNL     1      -6.165   2.822   5.867  0.00  0.00    -0.078 C 
ATOM     34  C   UNL     1      -6.893   3.592   6.934  0.00  0.00    -0.019 C 
ATOM     35  C   UNL     1      -5.850   4.294   7.829  0.00  0.00    -0.002 C 
ATOM     36  C   UNL     1      -5.244   3.380   8.790  0.00  0.00    -0.002 C 
ATOM     37  C   UNL     1      -4.493   2.222   8.099  0.00  0.00    -0.019 C 
ATOM     38  C   UNL     1      -5.502   1.204   7.641  0.00  0.00    -0.078 C 
ATOM     39  N   UNL     1      -5.969   1.375   6.223  0.00  0.00    +0.385 N 
ATOM     40  H   UNL     1      -6.869   0.891   6.119  0.00  0.00    -0.081 HD
ENDBRANCH  32  39
ENDBRANCH  29  32
ENDBRANCH   7  28
TORSDOF 8
