REMARK  Name = ZINC12346800
REMARK  7 active torsions:
REMARK  status: ('A' for Active; 'I' for Inactive)
REMARK    1  A    between atoms: C_1  and  C_2
REMARK    2  A    between atoms: C_2  and  C_34
REMARK    3  A    between atoms: C_6  and  C_22
REMARK    4  A    between atoms: N_12  and  C_15
REMARK    5  A    between atoms: C_25  and  N_28
REMARK    6  A    between atoms: N_28  and  C_29
REMARK    7  A    between atoms: N_28  and  C_30
REMARK                            x       y       z     vdW  Elec       q    Type
REMARK                         _______ _______ _______ _____ _____    ______ ____
ROOT
ATOM      1  C   UNL     1      -0.019   1.526   0.010  0.00  0.00    +0.011 C 
ATOM      2  C   UNL     1       0.002  -0.004   0.002  0.00  0.00    -0.023 C 
ATOM      3  C   UNL     1      -1.430  -0.539   0.042  0.00  0.00    +0.058 C 
ATOM      4  C   UNL     1      -1.409  -2.051   0.071  0.00  0.00    +0.017 C 
ATOM      5  C   UNL     1      -0.394  -2.714   0.662  0.00  0.00    +0.024 C 
ATOM      6  C   UNL     1      -0.337  -4.226   0.712  0.00  0.00    +0.092 C 
ATOM      7  C   UNL     1      -1.678  -4.792   0.337  0.00  0.00    +0.070 A 
ATOM      8  C   UNL     1      -2.659  -4.033  -0.252  0.00  0.00    +0.125 A 
ATOM      9  N   UNL     1      -3.740  -4.830  -0.468  0.00  0.00    -0.277 N 
ATOM     10  H   UNL     1      -4.578  -4.558  -0.874  0.00  0.00    +0.189 HD
ATOM     11  N   UNL     1      -3.428  -6.117   0.000  0.00  0.00    -0.218 N 
ATOM     12  C   UNL     1      -2.169  -6.089   0.490  0.00  0.00    +0.278 A 
ATOM     13  O   UNL     1      -1.569  -7.030   0.980  0.00  0.00    -0.265 OA
ATOM     14  N   UNL     1      -2.466  -2.700  -0.524  0.00  0.00    -0.303 N 
ATOM     15  C   UNL     1       0.673  -2.019   1.262  0.00  0.00    +0.162 C 
ATOM     16  O   UNL     1       1.558  -2.647   1.809  0.00  0.00    -0.292 OA
ATOM     17  C   UNL     1       0.742  -0.517   1.242  0.00  0.00    +0.086 C 
ATOM     18  C   UNL     1       0.705  -0.503  -1.262  0.00  0.00    +0.011 C 
ATOM     19  H   UNL     1      -3.064  -2.226  -1.123  0.00  0.00    +0.153 HD
ENDROOT
BRANCH  11  20
ATOM     20  C   UNL     1      -4.272  -7.231  -0.035  0.00  0.00    +0.067 A 
ATOM     21  C   UNL     1      -3.837  -8.450   0.470  0.00  0.00    +0.028 A 
ATOM     22  C   UNL     1      -4.673  -9.548   0.434  0.00  0.00    +0.002 A 
ATOM     23  C   UNL     1      -5.942  -9.436  -0.104  0.00  0.00    +0.000 A 
ATOM     24  C   UNL     1      -6.378  -8.224  -0.608  0.00  0.00    +0.002 A 
ATOM     25  C   UNL     1      -5.549  -7.120  -0.570  0.00  0.00    +0.028 A 
ENDBRANCH  11  20
BRANCH   6  26
ATOM     26  C   UNL     1       0.706  -4.722  -0.257  0.00  0.00    -0.035 A 
ATOM     27  C   UNL     1       0.590  -4.431  -1.604  0.00  0.00    +0.006 A 
ATOM     28  C   UNL     1       1.544  -4.883  -2.494  0.00  0.00    +0.023 A 
ATOM     29  C   UNL     1       2.620  -5.631  -2.035  0.00  0.00    +0.029 A 
ATOM     30  C   UNL     1       2.733  -5.922  -0.682  0.00  0.00    +0.023 A 
ATOM     31  C   UNL     1       1.779  -5.462   0.204  0.00  0.00    +0.006 A 
BRANCH  29  32
ATOM     32  N   UNL     1       3.586  -6.091  -2.933  0.00  0.00    -0.336 N 
ATOM     33  C   UNL     1       3.465  -5.784  -4.361  0.00  0.00    +0.129 C 
ATOM     34  C   UNL     1       4.721  -6.880  -2.448  0.00  0.00    +0.129 C 
ENDBRANCH  29  32
ENDBRANCH   6  26
TORSDOF 3
