REMARK  Name = ZINC13063664
REMARK  10 active torsions:
REMARK  status: ('A' for Active; 'I' for Inactive)
REMARK    1  A    between atoms: C_1  and  C_2
REMARK    2  A    between atoms: C_2  and  C_3
REMARK    3  A    between atoms: C_10  and  C_15
REMARK    4  A    between atoms: C_15  and  N_72
REMARK    5  A    between atoms: C_16  and  N_72
REMARK    6  A    between atoms: C_21  and  C_23
REMARK    7  A    between atoms: C_21  and  C_25
REMARK    8  A    between atoms: C_21  and  N_72
REMARK    9  A    between atoms: C_23  and  C_24
REMARK   10  A    between atoms: N_29  and  C_30
REMARK                            x       y       z     vdW  Elec       q    Type
REMARK                         _______ _______ _______ _____ _____    ______ ____
ROOT
ATOM      1  N   UNL     1       0.341   1.266  -0.297  0.00  0.00    +0.391 N 
ATOM      2  H   UNL     1       0.421   0.942   0.674  0.00  0.00    -0.080 HD
ENDROOT
BRANCH   1   3
ATOM      3  C   UNL     1      -0.434   2.524  -0.321  0.00  0.00    -0.067 C 
ATOM      4  C   UNL     1       0.217   3.546   0.634  0.00  0.00    -0.015 C 
ATOM      5  C   UNL     1      -0.985   4.277   1.284  0.00  0.00    -0.002 C 
ATOM      6  C   UNL     1      -2.016   3.137   1.476  0.00  0.00    -0.002 C 
ATOM      7  C   UNL     1      -1.854   2.264   0.214  0.00  0.00    -0.015 C 
ENDBRANCH   1   3
BRANCH   1   8
ATOM      8  C   UNL     1      -0.351   0.231  -1.093  0.00  0.00    -0.036 C 
BRANCH   8  16
ATOM      9  C   UNL     1      -0.354  -5.037   2.153  0.00  0.00    -0.047 A 
ATOM     10  C   UNL     1       0.788  -5.576   1.577  0.00  0.00    +0.005 A 
ATOM     11  C   UNL     1       1.478  -4.885   0.604  0.00  0.00    +0.026 A 
ATOM     12  C   UNL     1       1.026  -3.635   0.193  0.00  0.00    +0.049 A 
ATOM     13  C   UNL     1      -0.133  -3.092   0.780  0.00  0.00    -0.001 A 
ATOM     14  C   UNL     1      -0.816  -3.811   1.766  0.00  0.00    +0.013 A 
ATOM     15  C   UNL     1      -0.600  -1.776   0.341  0.00  0.00    +0.017 A 
ATOM     16  C   UNL     1       0.103  -1.126  -0.619  0.00  0.00    +0.001 A 
ATOM     17  C   UNL     1       1.255  -1.717  -1.180  0.00  0.00    +0.251 A 
ATOM     18  O   UNL     1       1.869  -1.117  -2.045  0.00  0.00    -0.268 OA
ATOM     19  N   UNL     1       1.695  -2.923  -0.779  0.00  0.00    -0.322 N 
ATOM     20  H   UNL     1       2.493  -3.298  -1.183  0.00  0.00    +0.169 HD
BRANCH   9  22
ATOM     21  C   UNL     1      -2.149  -6.699   2.559  0.00  0.00    +0.009 C 
ATOM     22  C   UNL     1      -1.090  -5.811   3.216  0.00  0.00    +0.032 C 
ENDBRANCH   9  22
ENDBRANCH   8  16
ENDBRANCH   1   8
BRANCH   1  23
ATOM     23  C   UNL     1       1.696   1.497  -0.839  0.00  0.00    +0.003 C 
BRANCH  23  24
ATOM     24  C   UNL     1       1.638   2.429  -2.022  0.00  0.00    +0.138 A 
ATOM     25  N   UNL     1       1.013   3.579  -2.083  0.00  0.00    -0.115 NA
ATOM     26  N   UNL     1       1.200   4.072  -3.259  0.00  0.00    -0.023 NA
ATOM     27  N   UNL     1       1.929   3.266  -3.949  0.00  0.00    -0.044 NA
ATOM     28  N   UNL     1       2.224   2.244  -3.220  0.00  0.00    -0.228 N 
BRANCH  28  29
ATOM     29  C   UNL     1       3.041   1.095  -3.621  0.00  0.00    +0.111 C 
ATOM     30  C   UNL     1       4.443   1.575  -4.002  0.00  0.00    +0.027 C 
ATOM     31  C   UNL     1       5.295   0.376  -4.421  0.00  0.00    +0.002 C 
ATOM     32  C   UNL     1       4.649  -0.315  -5.623  0.00  0.00    +0.000 C 
ATOM     33  C   UNL     1       3.247  -0.794  -5.243  0.00  0.00    +0.002 C 
ATOM     34  C   UNL     1       2.394   0.405  -4.824  0.00  0.00    +0.027 C 
ENDBRANCH  28  29
ENDBRANCH  23  24
BRANCH  23  35
ATOM     35  C   UNL     1       2.562   2.120   0.258  0.00  0.00    -0.011 C 
ATOM     36  C   UNL     1       2.546   1.218   1.494  0.00  0.00    +0.002 C 
ENDBRANCH  23  35
ENDBRANCH   1  23
TORSDOF 8
