REMARK  Name = ZINC39211437
REMARK  5 active torsions:
REMARK  status: ('A' for Active; 'I' for Inactive)
REMARK    1  A    between atoms: C_4  and  C_7
REMARK    2  A    between atoms: C_9  and  C_12
REMARK    3  A    between atoms: C_12  and  O_13
REMARK    4  A    between atoms: O_13  and  C_14
REMARK    5  A    between atoms: C_14  and  C_16
REMARK                            x       y       z     vdW  Elec       q    Type
REMARK                         _______ _______ _______ _____ _____    ______ ____
ROOT
ATOM      1  C   UNL     1       3.695  -0.685  -0.038  0.00  0.00    +0.227 A 
ATOM      2  N   UNL     1       3.847  -1.988  -0.052  0.00  0.00    -0.211 NA
ATOM      3  C   UNL     1       5.159  -2.267  -0.065  0.00  0.00    +0.117 A 
ATOM      4  C   UNL     1       5.829  -1.100  -0.059  0.00  0.00    +0.224 A 
ATOM      5  O   UNL     1       4.912  -0.112  -0.048  0.00  0.00    -0.443 OA
ENDROOT
BRANCH   1   9
ATOM      6  C   UNL     1      -0.017   1.379   0.010  0.00  0.00    +0.000 A 
ATOM      7  C   UNL     1       1.168   2.093   0.002  0.00  0.00    +0.001 A 
ATOM      8  C   UNL     1       2.377   1.429  -0.013  0.00  0.00    +0.013 A 
ATOM      9  C   UNL     1       2.403   0.034  -0.021  0.00  0.00    +0.037 A 
ATOM     10  C   UNL     1       1.204  -0.681  -0.013  0.00  0.00    +0.013 A 
ATOM     11  C   UNL     1       0.002  -0.004   0.002  0.00  0.00    +0.001 A 
ENDBRANCH   1   9
BRANCH   3  12
ATOM     12  C   UNL     1       5.774  -3.643  -0.083  0.00  0.00    +0.291 C 
BRANCH  12  13
ATOM     13  O   UNL     1       7.199  -3.528  -0.092  0.00  0.00    -0.454 OA
BRANCH  13  14
ATOM     14  C   UNL     1       7.906  -4.676  -0.108  0.00  0.00    +0.346 C 
ATOM     15  O   UNL     1       7.327  -5.747  -0.114  0.00  0.00    -0.244 OA
BRANCH  14  16
ATOM     16  C   UNL     1       9.368  -4.635  -0.119  0.00  0.00    +0.098 A 
ATOM     17  C   UNL     1      10.272  -5.688  -0.142  0.00  0.00    +0.024 A 
ATOM     18  C   UNL     1      11.599  -5.334  -0.147  0.00  0.00    +0.028 A 
ATOM     19  C   UNL     1      11.931  -4.017  -0.130  0.00  0.00    +0.079 A 
ATOM     20  S   UNL     1      10.452  -3.220  -0.115  0.00  0.00    -0.070 S 
ATOM     21 CL   UNL     1      13.519  -3.317  -0.131  0.00  0.00    -0.076 Cl
ENDBRANCH  14  16
ENDBRANCH  13  14
ENDBRANCH  12  13
ENDBRANCH   3  12
TORSDOF 5
