REMARK  Name = ZINC59346200
REMARK  10 active torsions:
REMARK  status: ('A' for Active; 'I' for Inactive)
REMARK    1  A    between atoms: C_1  and  C_2
REMARK    2  A    between atoms: C_2  and  N_3
REMARK    3  A    between atoms: N_3  and  C_4
REMARK    4  A    between atoms: N_3  and  S_6
REMARK    5  A    between atoms: C_4  and  C_5
REMARK    6  A    between atoms: S_6  and  C_9
REMARK    7  A    between atoms: C_12  and  N_15
REMARK    8  A    between atoms: C_17  and  C_22
REMARK    9  A    between atoms: N_24  and  C_25
REMARK   10  A    between atoms: C_28  and  N_31
REMARK                            x       y       z     vdW  Elec       q    Type
REMARK                         _______ _______ _______ _____ _____    ______ ____
ROOT
ATOM      1  N   UNL     1      -0.736   4.040  -5.818  0.00  0.00    -0.271 N 
ATOM      2  C   UNL     1       0.276   4.488  -6.782  0.00  0.00    +0.127 C 
ATOM      3  C   UNL     1      -0.441   5.517  -7.684  0.00  0.00    +0.102 C 
ATOM      4  C   UNL     1      -1.567   6.023  -6.753  0.00  0.00    +0.110 C 
ATOM      5  C   UNL     1      -1.782   4.883  -5.781  0.00  0.00    +0.221 C 
ATOM      6  O   UNL     1      -2.756   4.752  -5.070  0.00  0.00    -0.275 OA
ENDROOT
BRANCH   1  10
ATOM      7  C   UNL     1      -0.417   0.588  -3.507  0.00  0.00    +0.106 A 
ATOM      8  C   UNL     1      -1.481   1.451  -3.316  0.00  0.00    +0.030 A 
ATOM      9  C   UNL     1      -1.589   2.596  -4.080  0.00  0.00    +0.025 A 
ATOM     10  C   UNL     1      -0.629   2.881  -5.042  0.00  0.00    +0.036 A 
ATOM     11  C   UNL     1       0.439   2.013  -5.231  0.00  0.00    +0.025 A 
ATOM     12  C   UNL     1       0.544   0.872  -4.460  0.00  0.00    +0.030 A 
BRANCH   7  13
ATOM     13  S   UNL     1      -0.282  -0.872  -2.530  0.00  0.00    +0.061 S 
ATOM     14  O   UNL     1       0.512  -1.786  -3.273  0.00  0.00    -0.153 OA
ATOM     15  O   UNL     1      -1.595  -1.188  -2.088  0.00  0.00    -0.153 OA
BRANCH  13  16
ATOM     16  N   UNL     1       0.590  -0.477  -1.179  0.00  0.00    -0.177 NA
BRANCH  16  18
ATOM     17  C   UNL     1      -0.108   1.532   0.029  0.00  0.00    +0.022 C 
ATOM     18  C   UNL     1      -0.098   0.002   0.023  0.00  0.00    +0.106 C 
ENDBRANCH  16  18
BRANCH  16  19
ATOM     19  C   UNL     1       2.049  -0.608  -1.184  0.00  0.00    +0.106 C 
ATOM     20  C   UNL     1       2.443  -1.964  -0.596  0.00  0.00    +0.022 C 
ENDBRANCH  16  19
ENDBRANCH  13  16
ENDBRANCH   7  13
ENDBRANCH   1  10
BRANCH   3  21
ATOM     21  C   UNL     1      -1.012   4.853  -8.910  0.00  0.00    +0.222 C 
ATOM     22  O   UNL     1      -0.873   3.659  -9.075  0.00  0.00    -0.275 OA
ATOM     23  N   UNL     1      -1.679   5.585  -9.825  0.00  0.00    -0.285 N 
ATOM     24  H   UNL     1      -1.722   6.550  -9.735  0.00  0.00    +0.155 HD
BRANCH  23  25
ATOM     25  C   UNL     1      -2.308   4.953 -10.905  0.00  0.00    +0.034 A 
ATOM     26  C   UNL     1      -2.350   5.576 -12.146  0.00  0.00    +0.025 A 
ATOM     27  C   UNL     1      -2.970   4.953 -13.211  0.00  0.00    +0.025 A 
ATOM     28  C   UNL     1      -3.552   3.703 -13.041  0.00  0.00    +0.030 A 
ATOM     29  C   UNL     1      -3.511   3.081 -11.800  0.00  0.00    +0.025 A 
ATOM     30  C   UNL     1      -2.886   3.702 -10.737  0.00  0.00    +0.025 A 
BRANCH  28  31
ATOM     31  N   UNL     1      -4.181   3.072 -14.120  0.00  0.00    -0.326 N 
ATOM     32  C   UNL     1      -4.336   3.757 -15.412  0.00  0.00    +0.133 C 
ATOM     33  C   UNL     1      -3.823   2.827 -16.517  0.00  0.00    +0.178 C 
ATOM     34  O   UNL     1      -4.460   1.553 -16.393  0.00  0.00    -0.377 OA
ATOM     35  C   UNL     1      -4.176   0.873 -15.169  0.00  0.00    +0.178 C 
ATOM     36  C   UNL     1      -4.702   1.702 -13.996  0.00  0.00    +0.133 C 
ENDBRANCH  28  31
ENDBRANCH  23  25
ENDBRANCH   3  21
TORSDOF 8
