REMARK  Name = ZINC20356565
REMARK  7 active torsions:
REMARK  status: ('A' for Active; 'I' for Inactive)
REMARK    1  A    between atoms: C_1  and  C_2
REMARK    2  A    between atoms: C_5  and  O_9
REMARK    3  A    between atoms: C_7  and  C_8
REMARK    4  A    between atoms: O_9  and  C_10
REMARK    5  A    between atoms: C_10  and  C_11
REMARK    6  A    between atoms: C_11  and  N_12
REMARK    7  A    between atoms: C_16  and  C_17
REMARK                            x       y       z     vdW  Elec       q    Type
REMARK                         _______ _______ _______ _____ _____    ______ ____
ROOT
ATOM      1  C   UNL     1       2.154  -7.184  -3.138  0.00  0.00    +0.042 C 
ATOM      2  C   UNL     1       2.730  -7.502  -1.919  0.00  0.00    +0.082 C 
ATOM      3  C   UNL     1       1.937  -8.096  -0.809  0.00  0.00    +0.153 C 
ATOM      4  N   UNL     1       0.930  -8.909  -1.001  0.00  0.00    -0.283 NA
ATOM      5  N   UNL     1       2.378  -7.698   0.470  0.00  0.00    -0.150 N 
ATOM      6  C   UNL     1       3.682  -7.273   0.589  0.00  0.00    +0.182 C 
ATOM      7  N   UNL     1       4.555  -7.099  -0.372  0.00  0.00    -0.152 NA
ATOM      8  C   UNL     1       4.170  -7.275  -1.654  0.00  0.00    +0.273 C 
ATOM      9  O   UNL     1       4.980  -7.245  -2.567  0.00  0.00    -0.268 OA
ATOM     10  S   UNL     1       3.835  -7.016   2.337  0.00  0.00    -0.018 S 
ATOM     11  C   UNL     1       2.143  -7.389   2.778  0.00  0.00    +0.182 C 
ATOM     12  N   UNL     1       1.619  -7.706   1.621  0.00  0.00    -0.149 NA
ATOM     13  N   UNL     1       1.541  -7.352   4.025  0.00  0.00    -0.308 N 
ATOM     14  C   UNL     1       0.157  -7.811   4.202  0.00  0.00    +0.107 C 
ATOM     15  C   UNL     1       0.124  -8.859   5.319  0.00  0.00    +0.019 C 
ATOM     16  C   UNL     1       0.757  -8.272   6.582  0.00  0.00    +0.003 C 
ATOM     17  C   UNL     1       2.218  -7.910   6.302  0.00  0.00    +0.019 C 
ATOM     18  C   UNL     1       2.277  -6.858   5.197  0.00  0.00    +0.107 C 
ATOM     19  H   UNL     1       0.400  -9.211  -0.246  0.00  0.00    +0.188 HD
ENDROOT
BRANCH   1  24
ATOM     20  N   UNL     1      -0.207  -6.693  -2.534  0.00  0.00    -0.344 N 
ATOM     21  C   UNL     1      -1.426  -7.038  -3.018  0.00  0.00    +0.086 A 
ATOM     22  C   UNL     1      -1.260  -7.856  -4.088  0.00  0.00    +0.020 A 
ATOM     23  C   UNL     1       0.109  -8.034  -4.286  0.00  0.00    +0.027 A 
ATOM     24  C   UNL     1       0.761  -7.296  -3.308  0.00  0.00    +0.043 A 
BRANCH  20  25
ATOM     25  C   UNL     1       0.039  -5.820  -1.383  0.00  0.00    +0.162 C 
BRANCH  25  26
ATOM     26  C   UNL     1       0.400  -4.417  -1.875  0.00  0.00    +0.250 C 
BRANCH  26  27
ATOM     27  O   UNL     1       0.528  -3.538  -0.755  0.00  0.00    -0.490 OA
BRANCH  27  32
ATOM     28  C   UNL     1       1.445   1.906  -1.870  0.00  0.00    +0.044 C 
ATOM     29  C   UNL     1       1.200   0.449  -1.572  0.00  0.00    -0.047 A 
ATOM     30  C   UNL     1       1.179  -0.472  -2.603  0.00  0.00    +0.007 A 
ATOM     31  C   UNL     1       0.954  -1.808  -2.332  0.00  0.00    +0.046 A 
ATOM     32  C   UNL     1       0.750  -2.225  -1.024  0.00  0.00    +0.121 A 
ATOM     33  C   UNL     1       0.773  -1.299   0.008  0.00  0.00    +0.049 A 
ATOM     34  C   UNL     1       1.003   0.036  -0.268  0.00  0.00    -0.044 A 
ATOM     35  C   UNL     1       1.034   1.042   0.854  0.00  0.00    +0.044 C 
ENDBRANCH  27  32
ENDBRANCH  26  27
ENDBRANCH  25  26
ENDBRANCH  20  25
ENDBRANCH   1  24
TORSDOF 5
