REMARK  Name = ZINC12486382
REMARK  9 active torsions:
REMARK  status: ('A' for Active; 'I' for Inactive)
REMARK    1  A    between atoms: C_4  and  C_7
REMARK    2  A    between atoms: C_7  and  C_9
REMARK    3  A    between atoms: C_7  and  N_19
REMARK    4  A    between atoms: N_11  and  C_12
REMARK    5  A    between atoms: C_12  and  C_13
REMARK    6  A    between atoms: N_19  and  C_20
REMARK    7  A    between atoms: C_27  and  C_29
REMARK    8  A    between atoms: C_29  and  N_30
REMARK    9  A    between atoms: C_31  and  C_33
REMARK                            x       y       z     vdW  Elec       q    Type
REMARK                         _______ _______ _______ _____ _____    ______ ____
ROOT
ATOM      1  N   UNL     1       3.977  -3.704  -5.005  0.00  0.00    -0.253 N 
ATOM      2  C   UNL     1       4.731  -3.425  -6.086  0.00  0.00    +0.238 C 
ATOM      3  O   UNL     1       5.428  -2.432  -6.101  0.00  0.00    -0.274 OA
ENDROOT
BRANCH   1   4
ATOM      4  C   UNL     1       3.173  -4.850  -4.989  0.00  0.00    +0.056 A 
ATOM      5  C   UNL     1       1.868  -4.791  -5.458  0.00  0.00    +0.025 A 
ATOM      6  C   UNL     1       1.077  -5.923  -5.441  0.00  0.00    +0.002 A 
ATOM      7  C   UNL     1       1.584  -7.116  -4.958  0.00  0.00    +0.002 A 
ATOM      8  C   UNL     1       2.884  -7.179  -4.490  0.00  0.00    +0.022 A 
ATOM      9  C   UNL     1       3.682  -6.050  -4.508  0.00  0.00    +0.062 A 
ATOM     10 CL   UNL     1       5.315  -6.131  -3.926  0.00  0.00    -0.082 Cl
ENDBRANCH   1   4
BRANCH   1  11
ATOM     11  C   UNL     1       3.998  -2.807  -3.846  0.00  0.00    +0.197 C 
BRANCH  11  15
ATOM     12  C   UNL     1       4.850  -5.059  -0.318  0.00  0.00    +0.000 A 
ATOM     13  C   UNL     1       5.752  -4.114  -0.769  0.00  0.00    +0.000 A 
ATOM     14  C   UNL     1       5.476  -3.385  -1.911  0.00  0.00    +0.006 A 
ATOM     15  C   UNL     1       4.298  -3.602  -2.602  0.00  0.00    -0.018 A 
ATOM     16  C   UNL     1       3.394  -4.543  -2.147  0.00  0.00    +0.006 A 
ATOM     17  C   UNL     1       3.672  -5.275  -1.008  0.00  0.00    +0.000 A 
ENDBRANCH  11  15
BRANCH  11  18
ATOM     18  C   UNL     1       2.654  -2.139  -3.704  0.00  0.00    +0.239 C 
ATOM     19  O   UNL     1       1.767  -2.388  -4.492  0.00  0.00    -0.273 OA
ATOM     20  N   UNL     1       2.439  -1.266  -2.700  0.00  0.00    -0.311 N 
ATOM     21  H   UNL     1       3.149  -1.067  -2.070  0.00  0.00    +0.149 HD
BRANCH  20  22
ATOM     22  C   UNL     1       1.133  -0.617  -2.561  0.00  0.00    +0.135 C 
BRANCH  22  23
ATOM     23  C   UNL     1       1.155   0.320  -1.351  0.00  0.00    +0.135 C 
ATOM     24  C   UNL     1      -0.249   0.912  -1.122  0.00  0.00    +0.035 C 
ATOM     25  C   UNL     1      -0.034   2.442  -1.212  0.00  0.00    +0.031 C 
ATOM     26  C   UNL     1       1.486   2.574  -0.938  0.00  0.00    +0.160 C 
ATOM     27  O   UNL     1       2.048   1.419  -1.597  0.00  0.00    -0.375 OA
ENDBRANCH  22  23
ENDBRANCH  20  22
ENDBRANCH  11  18
ENDBRANCH   1  11
BRANCH   2  28
ATOM     28  C   UNL     1       4.710  -4.348  -7.278  0.00  0.00    +0.201 C 
BRANCH  28  29
ATOM     29  N   UNL     1       5.607  -3.829  -8.313  0.00  0.00    -0.300 N 
ATOM     30  C   UNL     1       5.749  -4.494  -9.477  0.00  0.00    +0.280 C 
ATOM     31  O   UNL     1       5.132  -5.526  -9.667  0.00  0.00    -0.267 OA
ATOM     32  H   UNL     1       6.099  -3.007  -8.161  0.00  0.00    +0.150 HD
BRANCH  30  33
ATOM     33  C   UNL     1       6.648  -3.975 -10.513  0.00  0.00    +0.189 A 
ATOM     34  C   UNL     1       6.883  -4.546 -11.731  0.00  0.00    +0.054 A 
ATOM     35  C   UNL     1       7.801  -3.717 -12.395  0.00  0.00    +0.042 A 
ATOM     36  C   UNL     1       8.082  -2.690 -11.564  0.00  0.00    +0.196 A 
ATOM     37  O   UNL     1       7.382  -2.845 -10.433  0.00  0.00    -0.458 OA
ENDBRANCH  30  33
ENDBRANCH  28  29
ENDBRANCH   2  28
TORSDOF 9
