REMARK  Name = ZINC06458783
REMARK  13 active torsions:
REMARK  status: ('A' for Active; 'I' for Inactive)
REMARK    1  A    between atoms: C_1  and  N_62
REMARK    2  A    between atoms: C_2  and  N_62
REMARK    3  A    between atoms: C_3  and  C_4
REMARK    4  A    between atoms: C_3  and  N_62
REMARK    5  A    between atoms: C_4  and  C_5
REMARK    6  A    between atoms: C_5  and  N_6
REMARK    7  A    between atoms: C_7  and  C_26
REMARK    8  A    between atoms: C_9  and  C_15
REMARK    9  A    between atoms: C_11  and  O_12
REMARK   10  A    between atoms: C_15  and  C_17
REMARK   11  A    between atoms: C_30  and  O_32
REMARK   12  A    between atoms: O_32  and  C_33
REMARK   13  A    between atoms: C_33  and  C_34
REMARK                            x       y       z     vdW  Elec       q    Type
REMARK                         _______ _______ _______ _____ _____    ______ ____
ROOT
ATOM      1  N   UNL     1       1.397   3.520   0.008  0.00  0.00    -0.284 N 
ATOM      2  C   UNL     1       1.380   4.351  -1.197  0.00  0.00    +0.145 C 
ATOM      3  C   UNL     1       1.358   5.814  -0.726  0.00  0.00    +0.074 C 
ATOM      4  C   UNL     1       1.375   5.721   0.786  0.00  0.00    +0.188 C 
ATOM      5  C   UNL     1       1.398   4.268   1.118  0.00  0.00    +0.282 C 
ATOM      6  O   UNL     1       1.415   3.822   2.246  0.00  0.00    -0.267 OA
ENDROOT
BRANCH   2   7
ATOM      7  C   UNL     1       2.614   4.089  -2.021  0.00  0.00    -0.019 A 
ATOM      8  C   UNL     1       3.832   3.891  -1.397  0.00  0.00    +0.006 A 
ATOM      9  C   UNL     1       4.966   3.646  -2.149  0.00  0.00    +0.004 A 
ATOM     10  C   UNL     1       4.886   3.610  -3.528  0.00  0.00    +0.045 A 
ATOM     11  C   UNL     1       3.667   3.814  -4.157  0.00  0.00    +0.121 A 
ATOM     12  C   UNL     1       2.529   4.054  -3.399  0.00  0.00    +0.051 A 
BRANCH  11  13
ATOM     13  O   UNL     1       3.586   3.778  -5.513  0.00  0.00    -0.488 OA
BRANCH  13  14
ATOM     14  C   UNL     1       4.796   3.526  -6.229  0.00  0.00    +0.256 C 
BRANCH  14  15
ATOM     15  C   UNL     1       4.513   3.523  -7.709  0.00  0.00    +0.006 C 
ATOM     16  C   UNL     1       5.311   4.160  -8.530  0.00  0.00    +0.007 C 
ENDBRANCH  14  15
ENDBRANCH  13  14
ENDBRANCH  11  13
ENDBRANCH   2   7
BRANCH   4  18
ATOM     17  H   UNL     1       1.353   7.506   1.065  0.00  0.00    +0.292 HD
ATOM     18  O   UNL     1       1.370   6.641   1.568  0.00  0.00    -0.502 OA
ENDBRANCH   4  18
BRANCH   3  19
ATOM     19  C   UNL     1       1.328   7.255  -1.165  0.00  0.00    +0.230 C 
ATOM     20  O   UNL     1       0.265   7.825  -1.306  0.00  0.00    -0.284 OA
BRANCH  19  21
ATOM     21  C   UNL     1       2.541   7.946  -1.413  0.00  0.00    +0.176 A 
ATOM     22  C   UNL     1       2.639   9.244  -1.812  0.00  0.00    +0.061 A 
ATOM     23  C   UNL     1       4.022   9.531  -1.941  0.00  0.00    +0.021 A 
ATOM     24  C   UNL     1       4.744  10.671  -2.311  0.00  0.00    +0.011 A 
ATOM     25  C   UNL     1       6.108  10.630  -2.340  0.00  0.00    +0.001 A 
ATOM     26  C   UNL     1       6.785   9.465  -2.005  0.00  0.00    +0.004 A 
ATOM     27  C   UNL     1       6.094   8.331  -1.637  0.00  0.00    +0.047 A 
ATOM     28  C   UNL     1       4.705   8.348  -1.601  0.00  0.00    +0.136 A 
ATOM     29  O   UNL     1       3.779   7.421  -1.284  0.00  0.00    -0.452 OA
ENDBRANCH  19  21
ENDBRANCH   3  19
BRANCH   1  30
ATOM     30  C   UNL     1       1.417   2.055  -0.000  0.00  0.00    +0.107 C 
BRANCH  30  31
ATOM     31  C   UNL     1      -0.019   1.526   0.010  0.00  0.00    +0.000 C 
BRANCH  31  32
ATOM     32  C   UNL     1       0.002  -0.004   0.002  0.00  0.00    -0.078 C 
BRANCH  32  35
ATOM     33  C   UNL     1      -2.075  -0.166  -1.232  0.00  0.00    -0.097 C 
ATOM     34  C   UNL     1      -1.400  -1.963   0.243  0.00  0.00    -0.097 C 
ATOM     35  N   UNL     1      -1.390  -0.500   0.034  0.00  0.00    +0.376 N 
ATOM     36  H   UNL     1      -1.887  -0.049   0.811  0.00  0.00    -0.083 HD
ENDBRANCH  32  35
ENDBRANCH  31  32
ENDBRANCH  30  31
ENDBRANCH   1  30
TORSDOF 11
