REMARK  Name = ZINC12833095
REMARK  9 active torsions:
REMARK  status: ('A' for Active; 'I' for Inactive)
REMARK    1  A    between atoms: C_1  and  C_2
REMARK    2  A    between atoms: C_5  and  C_36
REMARK    3  A    between atoms: C_9  and  C_14
REMARK    4  A    between atoms: C_14  and  N_66
REMARK    5  A    between atoms: C_15  and  C_16
REMARK    6  A    between atoms: C_15  and  N_66
REMARK    7  A    between atoms: C_25  and  C_26
REMARK    8  A    between atoms: C_25  and  N_66
REMARK    9  A    between atoms: N_30  and  C_31
REMARK                            x       y       z     vdW  Elec       q    Type
REMARK                         _______ _______ _______ _____ _____    ______ ____
ROOT
ATOM      1  N   UNL     1       5.797  -1.129   1.173  0.00  0.00    +0.390 N 
ATOM      2  H   UNL     1       5.430  -1.902   0.605  0.00  0.00    -0.080 HD
ENDROOT
BRANCH   1   3
ATOM      3  C   UNL     1       6.948  -1.616   1.962  0.00  0.00    -0.036 C 
BRANCH   3  12
ATOM      4  C   UNL     1       7.691  -6.528   0.401  0.00  0.00    +0.044 C 
ATOM      5  C   UNL     1       6.964  -6.582   1.720  0.00  0.00    -0.041 A 
ATOM      6  C   UNL     1       6.633  -7.788   2.272  0.00  0.00    +0.004 A 
ATOM      7  C   UNL     1       5.965  -7.849   3.486  0.00  0.00    +0.005 A 
ATOM      8  C   UNL     1       5.622  -6.696   4.160  0.00  0.00    -0.026 A 
ATOM      9  C   UNL     1       5.948  -5.457   3.617  0.00  0.00    +0.052 A 
ATOM     10  C   UNL     1       6.626  -5.400   2.385  0.00  0.00    +0.002 A 
ATOM     11  C   UNL     1       6.966  -4.091   1.823  0.00  0.00    +0.017 A 
ATOM     12  C   UNL     1       6.613  -2.978   2.512  0.00  0.00    +0.001 A 
ATOM     13  C   UNL     1       5.939  -3.091   3.747  0.00  0.00    +0.251 A 
ATOM     14  O   UNL     1       5.636  -2.078   4.353  0.00  0.00    -0.268 OA
ATOM     15  N   UNL     1       5.618  -4.288   4.269  0.00  0.00    -0.322 N 
ATOM     16  H   UNL     1       5.151  -4.330   5.118  0.00  0.00    +0.169 HD
ATOM     17  C   UNL     1       4.897  -6.777   5.478  0.00  0.00    +0.046 C 
ENDBRANCH   3  12
ENDBRANCH   1   3
BRANCH   1  18
ATOM     18  C   UNL     1       4.731  -0.649   2.077  0.00  0.00    -0.042 C 
BRANCH  18  19
ATOM     19  C   UNL     1       3.494  -0.367   1.264  0.00  0.00    -0.060 A 
ATOM     20  C   UNL     1       2.570  -1.371   1.042  0.00  0.00    +0.005 A 
ATOM     21  C   UNL     1       1.434  -1.117   0.297  0.00  0.00    +0.050 A 
ATOM     22  C   UNL     1       1.219   0.147  -0.230  0.00  0.00    +0.166 A 
ATOM     23  C   UNL     1       2.149   1.158  -0.006  0.00  0.00    +0.166 A 
ATOM     24  C   UNL     1       3.285   0.896   0.742  0.00  0.00    +0.051 A 
ATOM     25  O   UNL     1       1.714   2.296  -0.623  0.00  0.00    -0.453 OA
ATOM     26  C   UNL     1       0.313   2.082  -0.879  0.00  0.00    +0.466 C 
ATOM     27  O   UNL     1       0.200   0.650  -0.987  0.00  0.00    -0.453 OA
ENDBRANCH  18  19
ENDBRANCH   1  18
BRANCH   1  28
ATOM     28  C   UNL     1       6.227  -0.036   0.275  0.00  0.00    +0.001 C 
BRANCH  28  29
ATOM     29  C   UNL     1       7.073  -0.619  -0.828  0.00  0.00    +0.135 A 
ATOM     30  N   UNL     1       8.382  -0.670  -0.866  0.00  0.00    -0.115 NA
ATOM     31  N   UNL     1       8.726  -1.243  -1.967  0.00  0.00    -0.023 NA
ATOM     32  N   UNL     1       7.671  -1.551  -2.636  0.00  0.00    -0.044 NA
ATOM     33  N   UNL     1       6.631  -1.183  -1.967  0.00  0.00    -0.228 N 
BRANCH  33  34
ATOM     34  C   UNL     1       5.233  -1.348  -2.371  0.00  0.00    +0.111 C 
ATOM     35  C   UNL     1       4.926  -2.840  -2.616  0.00  0.00    +0.027 C 
ATOM     36  C   UNL     1       3.961  -2.834  -3.829  0.00  0.00    +0.002 C 
ATOM     37  C   UNL     1       4.529  -1.697  -4.713  0.00  0.00    +0.002 C 
ATOM     38  C   UNL     1       4.980  -0.621  -3.704  0.00  0.00    +0.027 C 
ENDBRANCH  33  34
ENDBRANCH  28  29
ENDBRANCH   1  28
TORSDOF 7
