REMARK  Name = ZINC13637734
REMARK  6 active torsions:
REMARK  status: ('A' for Active; 'I' for Inactive)
REMARK    1  A    between atoms: C_1  and  C_2
REMARK    2  A    between atoms: C_2  and  C_3
REMARK    3  A    between atoms: C_2  and  O_4
REMARK    4  A    between atoms: O_4  and  C_5
REMARK    5  A    between atoms: C_18  and  C_21
REMARK    6  A    between atoms: C_24  and  O_27
REMARK                            x       y       z     vdW  Elec       q    Type
REMARK                         _______ _______ _______ _____ _____    ______ ____
ROOT
ATOM      1  C   UNL     1      -7.408   0.183  -0.887  0.00  0.00    +0.121 A 
ATOM      2  C   UNL     1      -6.904   0.699  -2.073  0.00  0.00    +0.047 A 
ATOM      3  C   UNL     1      -5.548   0.929  -2.195  0.00  0.00    +0.027 A 
ATOM      4  C   UNL     1      -4.695   0.647  -1.136  0.00  0.00    +0.032 A 
ATOM      5  C   UNL     1      -5.192   0.133   0.052  0.00  0.00    -0.016 A 
ATOM      6  C   UNL     1      -6.557  -0.096   0.167  0.00  0.00    +0.051 A 
ATOM      7  C   UNL     1      -4.311  -0.184   1.218  0.00  0.00    +0.049 C 
ATOM      8  C   UNL     1      -4.108  -1.673   1.366  0.00  0.00    -0.023 C 
ATOM      9  C   UNL     1      -2.888  -1.927   1.771  0.00  0.00    -0.030 C 
ATOM     10  C   UNL     1      -2.111  -0.638   1.955  0.00  0.00    +0.033 C 
ATOM     11  C   UNL     1      -2.885   0.381   1.068  0.00  0.00    +0.029 C 
ATOM     12  C   UNL     1      -2.398   0.194  -0.372  0.00  0.00    +0.105 C 
ATOM     13  N   UNL     1      -3.321   0.885  -1.279  0.00  0.00    -0.336 N 
ATOM     14  H   UNL     1      -2.990   1.490  -1.960  0.00  0.00    +0.147 HD
ENDROOT
BRANCH  12  15
ATOM     15  C   UNL     1      -1.017   0.779  -0.517  0.00  0.00    -0.027 A 
ATOM     16  C   UNL     1       0.089  -0.051  -0.502  0.00  0.00    +0.009 A 
ATOM     17  C   UNL     1       1.356   0.482  -0.640  0.00  0.00    +0.046 A 
ATOM     18  C   UNL     1       1.519   1.851  -0.789  0.00  0.00    +0.117 A 
ATOM     19  C   UNL     1       0.408   2.683  -0.798  0.00  0.00    +0.046 A 
ATOM     20  C   UNL     1      -0.857   2.145  -0.659  0.00  0.00    +0.009 A 
BRANCH  18  21
ATOM     21  O   UNL     1       2.764   2.378  -0.926  0.00  0.00    -0.507 OA
ATOM     22  H   UNL     1       3.065   2.442  -1.843  0.00  0.00    +0.292 HD
ENDBRANCH  18  21
ENDBRANCH  12  15
BRANCH   1  23
ATOM     23  O   UNL     1      -8.742  -0.047  -0.762  0.00  0.00    -0.489 OA
BRANCH  23  25
ATOM     24  C   UNL     1      -9.608  -0.716  -2.917  0.00  0.00    +0.051 C 
ATOM     25  C   UNL     1      -9.578   0.373  -1.842  0.00  0.00    +0.167 C 
ATOM     26  C   UNL     1     -10.997   0.617  -1.324  0.00  0.00    +0.051 C 
ENDBRANCH  23  25
ENDBRANCH   1  23
TORSDOF 4
