REMARK  Name = ZINC45726726
REMARK  7 active torsions:
REMARK  status: ('A' for Active; 'I' for Inactive)
REMARK    1  A    between atoms: C_1  and  C_2
REMARK    2  A    between atoms: C_5  and  C_34
REMARK    3  A    between atoms: C_6  and  N_8
REMARK    4  A    between atoms: C_21  and  S_22
REMARK    5  A    between atoms: S_22  and  C_23
REMARK    6  A    between atoms: C_23  and  C_25
REMARK    7  A    between atoms: C_23  and  C_31
REMARK                            x       y       z     vdW  Elec       q    Type
REMARK                         _______ _______ _______ _____ _____    ______ ____
ROOT
ATOM      1  N   UNL     1       0.283  -2.368   3.102  0.00  0.00    -0.245 N 
ATOM      2  C   UNL     1       1.375  -2.486   3.886  0.00  0.00    +0.268 A 
ATOM      3  O   UNL     1       2.453  -2.066   3.510  0.00  0.00    -0.267 OA
ATOM      4  C   UNL     1       1.242  -3.131   5.204  0.00  0.00    +0.064 A 
ATOM      5  C   UNL     1       2.338  -3.278   6.053  0.00  0.00    +0.015 A 
ATOM      6  C   UNL     1       2.174  -3.887   7.279  0.00  0.00    +0.001 A 
ATOM      7  C   UNL     1       0.927  -4.352   7.669  0.00  0.00    +0.002 A 
ATOM      8  C   UNL     1      -0.166  -4.213   6.838  0.00  0.00    +0.027 A 
ATOM      9  C   UNL     1      -0.020  -3.603   5.601  0.00  0.00    +0.064 A 
ATOM     10  N   UNL     1      -1.101  -3.447   4.742  0.00  0.00    -0.255 N 
ATOM     11  C   UNL     1      -0.951  -2.838   3.524  0.00  0.00    +0.245 A 
ATOM     12  N   UNL     1      -2.132  -2.833   2.953  0.00  0.00    -0.109 NA
ATOM     13  N   UNL     1      -2.998  -3.385   3.725  0.00  0.00    -0.120 NA
ATOM     14  C   UNL     1      -2.424  -3.789   4.832  0.00  0.00    +0.199 A 
ENDROOT
BRANCH   1  20
ATOM     15  C   UNL     1       0.132   1.702   0.347  0.00  0.00    +0.044 C 
ATOM     16  C   UNL     1       0.328   0.214   0.484  0.00  0.00    -0.048 A 
ATOM     17  C   UNL     1       0.621  -0.549  -0.631  0.00  0.00    +0.004 A 
ATOM     18  C   UNL     1       0.801  -1.915  -0.510  0.00  0.00    +0.005 A 
ATOM     19  C   UNL     1       0.690  -2.521   0.726  0.00  0.00    -0.026 A 
ATOM     20  C   UNL     1       0.397  -1.757   1.848  0.00  0.00    +0.056 A 
ATOM     21  C   UNL     1       0.222  -0.385   1.724  0.00  0.00    +0.030 A 
ATOM     22  C   UNL     1       0.886  -4.009   0.857  0.00  0.00    +0.046 C 
ENDBRANCH   1  20
BRANCH  14  23
ATOM     23  S   UNL     1      -3.208  -4.598   6.186  0.00  0.00    -0.068 S 
BRANCH  23  24
ATOM     24  C   UNL     1      -4.940  -4.747   5.665  0.00  0.00    +0.170 C 
BRANCH  24  25
ATOM     25  C   UNL     1      -5.757  -5.320   6.794  0.00  0.00    -0.025 A 
ATOM     26  C   UNL     1      -5.311  -6.440   7.471  0.00  0.00    +0.005 A 
ATOM     27  C   UNL     1      -6.061  -6.965   8.507  0.00  0.00    +0.000 A 
ATOM     28  C   UNL     1      -7.256  -6.370   8.867  0.00  0.00    +0.000 A 
ATOM     29  C   UNL     1      -7.701  -5.249   8.191  0.00  0.00    +0.000 A 
ATOM     30  C   UNL     1      -6.949  -4.721   7.157  0.00  0.00    +0.005 A 
ENDBRANCH  24  25
BRANCH  24  31
ATOM     31  C   UNL     1      -5.027  -5.659   4.469  0.00  0.00    +0.228 C 
ATOM     32  O   UNL     1      -5.287  -5.203   3.376  0.00  0.00    -0.274 OA
ATOM     33  N   UNL     1      -4.817  -6.983   4.614  0.00  0.00    -0.328 N 
ATOM     34  H   UNL     1      -4.687  -7.359   5.498  0.00  0.00    +0.145 HD
ATOM     35  H   UNL     1      -4.797  -7.559   3.833  0.00  0.00    +0.145 HD
ENDBRANCH  24  31
ENDBRANCH  23  24
ENDBRANCH  14  23
TORSDOF 5
