REMARK  Name = ZINC49879474
REMARK  2 active torsions:
REMARK  status: ('A' for Active; 'I' for Inactive)
REMARK    1  A    between atoms: C_3  and  C_19
REMARK    2  A    between atoms: C_6  and  C_7
REMARK                            x       y       z     vdW  Elec       q    Type
REMARK                         _______ _______ _______ _____ _____    ______ ____
ROOT
ATOM      1  C   UNL     1      -1.271  -0.761   0.011  0.00  0.00    -0.002 A 
ATOM      2  C   UNL     1      -2.499  -0.087  -0.007  0.00  0.00    +0.013 A 
ATOM      3  C   UNL     1      -3.659  -0.835   0.001  0.00  0.00    +0.042 A 
ATOM      4  C   UNL     1      -3.572  -2.225   0.025  0.00  0.00    +0.099 A 
ATOM      5  N   UNL     1      -2.394  -2.832   0.041  0.00  0.00    -0.349 N 
ATOM      6  C   UNL     1      -1.264  -2.154   0.029  0.00  0.00    +0.092 A 
ATOM      7  N   UNL     1      -4.734  -2.983   0.032  0.00  0.00    -0.317 N 
ATOM      8  C   UNL     1      -6.049  -2.338   0.146  0.00  0.00    +0.106 C 
ATOM      9  C   UNL     1      -6.932  -2.810  -1.013  0.00  0.00    +0.019 C 
ATOM     10  C   UNL     1      -6.981  -4.340  -1.021  0.00  0.00    +0.003 C 
ATOM     11  C   UNL     1      -5.571  -4.896  -1.231  0.00  0.00    +0.019 C 
ATOM     12  C   UNL     1      -4.673  -4.447  -0.081  0.00  0.00    +0.106 C 
ATOM     13  H   UNL     1      -2.363  -3.801   0.058  0.00  0.00    +0.167 HD
ENDROOT
BRANCH   1  19
ATOM     14  C   UNL     1      -0.017   1.392  -0.014  0.00  0.00    +0.009 A 
ATOM     15  C   UNL     1       1.160   2.094  -0.020  0.00  0.00    +0.016 A 
ATOM     16  C   UNL     1       2.381   1.411  -0.009  0.00  0.00    +0.063 A 
ATOM     17  C   UNL     1       2.399   0.012   0.010  0.00  0.00    +0.016 A 
ATOM     18  C   UNL     1       1.220  -0.687   0.016  0.00  0.00    +0.009 A 
ATOM     19  C   UNL     1       0.002  -0.004   0.004  0.00  0.00    -0.016 A 
BRANCH  16  20
ATOM     20  C   UNL     1       3.647   2.164  -0.016  0.00  0.00    +0.387 C 
ATOM     21  O   UNL     1       3.632   3.387  -0.032  0.00  0.00    -0.241 OA
ATOM     22  O   UNL     1       4.715   1.566  -0.005  0.00  0.00    -0.241 OA
ENDBRANCH  16  20
ENDBRANCH   1  19
TORSDOF 2
