REMARK  Name = ZINC25262107
REMARK  13 active torsions:
REMARK  status: ('A' for Active; 'I' for Inactive)
REMARK    1  A    between atoms: C_1  and  S_2
REMARK    2  A    between atoms: S_2  and  C_3
REMARK    3  A    between atoms: C_3  and  C_4
REMARK    4  A    between atoms: C_4  and  C_5
REMARK    5  A    between atoms: C_5  and  C_7
REMARK    6  A    between atoms: C_5  and  N_21
REMARK    7  A    between atoms: N_9  and  N_10
REMARK    8  A    between atoms: N_10  and  C_11
REMARK    9  A    between atoms: C_11  and  N_13
REMARK   10  A    between atoms: N_13  and  C_14
REMARK   11  A    between atoms: C_14  and  C_15
REMARK   12  A    between atoms: C_22  and  C_24
REMARK   13  A    between atoms: C_28  and  N_30
REMARK                            x       y       z     vdW  Elec       q    Type
REMARK                         _______ _______ _______ _____ _____    ______ ____
ROOT
ATOM      1  C   UNL     1       2.422   1.186  -0.015  0.00  0.00    +0.161 C 
ENDROOT
BRANCH   1   2
ATOM      2  C   UNL     1       3.483   2.068  -0.621  0.00  0.00    +0.249 C 
ATOM      3  O   UNL     1       3.200   3.184  -1.002  0.00  0.00    -0.272 OA
ATOM      4  N   UNL     1       4.748   1.616  -0.739  0.00  0.00    -0.234 N 
ATOM      5  H   UNL     1       5.005   0.604  -0.394  0.00  0.00    +0.173 HD
BRANCH   4   6
ATOM      6  N   UNL     1       5.734   2.436  -1.302  0.00  0.00    -0.246 N 
ATOM      7  H   UNL     1       5.477   3.448  -1.648  0.00  0.00    +0.172 HD
BRANCH   6   8
ATOM      8  C   UNL     1       6.999   1.985  -1.421  0.00  0.00    +0.147 C 
ATOM      9  S   UNL     1       8.204   2.986  -2.109  0.00  0.00    -0.017 S 
BRANCH   8  10
ATOM     10  N   UNL     1       7.314   0.745  -0.998  0.00  0.00    -0.323 N 
ATOM     11  H   UNL     1       6.539   0.101  -0.555  0.00  0.00    +0.148 HD
BRANCH  10  12
ATOM     12  C   UNL     1       8.688   0.254  -1.127  0.00  0.00    +0.134 C 
BRANCH  12  13
ATOM     13  C   UNL     1       8.775  -1.171  -0.575  0.00  0.00    +0.135 C 
ATOM     14  C   UNL     1      10.239  -1.663  -0.585  0.00  0.00    +0.035 C 
ATOM     15  C   UNL     1      10.130  -3.158  -0.961  0.00  0.00    +0.031 C 
ATOM     16  C   UNL     1       8.613  -3.392  -1.133  0.00  0.00    +0.160 C 
ATOM     17  O   UNL     1       8.071  -2.088  -1.440  0.00  0.00    -0.375 OA
ENDBRANCH  12  13
ENDBRANCH  10  12
ENDBRANCH   8  10
ENDBRANCH   6   8
ENDBRANCH   4   6
ENDBRANCH   1   2
BRANCH   1  18
ATOM     18  N   UNL     1       1.143   1.901   0.001  0.00  0.00    -0.300 N 
ATOM     19  C   UNL     1      -0.014   1.211   0.009  0.00  0.00    +0.245 C 
ATOM     20  O   UNL     1       0.002  -0.004   0.002  0.00  0.00    -0.270 OA
ATOM     21  H   UNL     1       1.129   3.001   0.007  0.00  0.00    +0.150 HD
BRANCH  19  22
ATOM     22  C   UNL     1      -1.304   1.933   0.019  0.00  0.00    +0.039 A 
ATOM     23  C   UNL     1      -1.326   3.329   0.032  0.00  0.00    +0.014 A 
ATOM     24  C   UNL     1      -2.533   3.997   0.035  0.00  0.00    +0.023 A 
ATOM     25  C   UNL     1      -3.721   3.285   0.037  0.00  0.00    +0.071 A 
ATOM     26  C   UNL     1      -3.706   1.900   0.030  0.00  0.00    +0.145 A 
ATOM     27  C   UNL     1      -2.505   1.221   0.021  0.00  0.00    +0.047 A 
ATOM     28 CL   UNL     1      -5.236   4.132   0.048  0.00  0.00    -0.081 Cl
BRANCH  26  29
ATOM     29  N   UNL     1      -4.980   1.147   0.032  0.00  0.00    +0.058 N 
ATOM     30  O   UNL     1      -4.968  -0.071   0.025  0.00  0.00    -0.126 OA
ATOM     31  O   UNL     1      -6.041   1.745   0.040  0.00  0.00    -0.126 OA
ENDBRANCH  26  29
ENDBRANCH  19  22
ENDBRANCH   1  18
BRANCH   1  32
ATOM     32  C   UNL     1       2.819   0.820   1.417  0.00  0.00    +0.042 C 
BRANCH  32  33
ATOM     33  C   UNL     1       1.807  -0.175   1.988  0.00  0.00    +0.071 C 
BRANCH  33  35
ATOM     34  C   UNL     1       0.995  -1.778   4.212  0.00  0.00    +0.084 C 
ATOM     35  S   UNL     1       2.278  -0.609   3.686  0.00  0.00    -0.164 S 
ENDBRANCH  33  35
ENDBRANCH  32  33
ENDBRANCH   1  32
TORSDOF 12
