REMARK  Name = ZINC16599398
REMARK  10 active torsions:
REMARK  status: ('A' for Active; 'I' for Inactive)
REMARK    1  A    between atoms: C_1  and  N_67
REMARK    2  A    between atoms: C_2  and  N_67
REMARK    3  A    between atoms: C_3  and  C_5
REMARK    4  A    between atoms: C_3  and  C_30
REMARK    5  A    between atoms: C_3  and  N_67
REMARK    6  A    between atoms: C_5  and  N_6
REMARK    7  A    between atoms: C_7  and  C_9
REMARK    8  A    between atoms: C_13  and  S_15
REMARK    9  A    between atoms: S_15  and  N_18
REMARK   10  A    between atoms: N_21  and  C_24
REMARK                            x       y       z     vdW  Elec       q    Type
REMARK                         _______ _______ _______ _____ _____    ______ ____
ROOT
ATOM      1  C   UNL     1      -0.346   1.422   0.483  0.00  0.00    +0.039 A 
ATOM      2  C   UNL     1       0.636   0.646  -0.136  0.00  0.00    +0.013 A 
ATOM      3  C   UNL     1       1.883   1.183  -0.379  0.00  0.00    +0.003 A 
ATOM      4  C   UNL     1       2.164   2.485  -0.005  0.00  0.00    +0.028 A 
ATOM      5  C   UNL     1       1.197   3.257   0.614  0.00  0.00    +0.106 A 
ATOM      6  C   UNL     1      -0.054   2.732   0.863  0.00  0.00    +0.041 A 
ENDROOT
BRANCH   1   8
ATOM      7  N   UNL     1      -1.963  -0.413   0.378  0.00  0.00    -0.313 N 
ATOM      8  C   UNL     1      -1.687   0.855   0.740  0.00  0.00    +0.244 C 
ATOM      9  O   UNL     1      -2.540   1.533   1.279  0.00  0.00    -0.270 OA
ATOM     10  H   UNL     1      -1.283  -0.954  -0.053  0.00  0.00    +0.149 HD
BRANCH   7  11
ATOM     11  C   UNL     1      -3.292  -0.975   0.633  0.00  0.00    +0.094 C 
BRANCH  11  12
ATOM     12  C   UNL     1      -3.341  -2.419   0.128  0.00  0.00    -0.021 C 
BRANCH  12  13
ATOM     13  C   UNL     1      -4.741  -2.956   0.278  0.00  0.00    -0.059 A 
ATOM     14  C   UNL     1      -4.948  -4.192   0.861  0.00  0.00    +0.002 A 
ATOM     15  C   UNL     1      -6.232  -4.683   1.003  0.00  0.00    +0.000 A 
ATOM     16  C   UNL     1      -7.309  -3.942   0.553  0.00  0.00    +0.000 A 
ATOM     17  C   UNL     1      -7.102  -2.708  -0.034  0.00  0.00    +0.000 A 
ATOM     18  C   UNL     1      -5.818  -2.215  -0.172  0.00  0.00    +0.002 A 
ENDBRANCH  12  13
BRANCH  12  21
ATOM     19  C   UNL     1      -2.809  -3.840  -1.758  0.00  0.00    -0.096 C 
ATOM     20  C   UNL     1      -3.910  -1.714  -2.117  0.00  0.00    -0.096 C 
ATOM     21  N   UNL     1      -2.926  -2.443  -1.290  0.00  0.00    +0.382 N 
ATOM     22  H   UNL     1      -2.012  -1.984  -1.378  0.00  0.00    -0.082 HD
ENDBRANCH  12  21
ENDBRANCH  11  12
ENDBRANCH   7  11
ENDBRANCH   1   8
BRANCH   5  23
ATOM     23  S   UNL     1       1.565   4.915   1.085  0.00  0.00    +0.061 S 
ATOM     24  O   UNL     1       0.668   5.246   2.137  0.00  0.00    -0.153 OA
ATOM     25  O   UNL     1       2.976   4.991   1.235  0.00  0.00    -0.153 OA
BRANCH  23  26
ATOM     26  N   UNL     1       1.172   5.887  -0.196  0.00  0.00    -0.174 NA
ATOM     27  C   UNL     1       2.164   6.206  -1.234  0.00  0.00    +0.128 C 
ATOM     28  C   UNL     1       1.541   5.903  -2.606  0.00  0.00    +0.122 C 
ATOM     29  N   UNL     1       0.265   6.619  -2.727  0.00  0.00    -0.327 N 
ATOM     30  C   UNL     1      -0.706   6.152  -1.728  0.00  0.00    +0.122 C 
ATOM     31  C   UNL     1      -0.176   6.460  -0.323  0.00  0.00    +0.128 C 
BRANCH  29  32
ATOM     32  C   UNL     1      -0.253   6.505  -4.019  0.00  0.00    +0.030 A 
ATOM     33  C   UNL     1      -1.530   5.995  -4.215  0.00  0.00    +0.023 A 
ATOM     34  C   UNL     1      -2.041   5.888  -5.494  0.00  0.00    +0.002 A 
ATOM     35  C   UNL     1      -1.278   6.277  -6.579  0.00  0.00    +0.000 A 
ATOM     36  C   UNL     1      -0.004   6.781  -6.388  0.00  0.00    +0.002 A 
ATOM     37  C   UNL     1       0.511   6.896  -5.112  0.00  0.00    +0.023 A 
ENDBRANCH  29  32
ENDBRANCH  23  26
ENDBRANCH   5  23
TORSDOF 8
