REMARK  Name = ZINC09782269
REMARK  7 active torsions:
REMARK  status: ('A' for Active; 'I' for Inactive)
REMARK    1  A    between atoms: C_1  and  C_2
REMARK    2  A    between atoms: C_2  and  C_4
REMARK    3  A    between atoms: C_2  and  N_58
REMARK    4  A    between atoms: C_17  and  C_18
REMARK    5  A    between atoms: C_17  and  N_58
REMARK    6  A    between atoms: C_18  and  C_20
REMARK    7  A    between atoms: C_18  and  C_26
REMARK                            x       y       z     vdW  Elec       q    Type
REMARK                         _______ _______ _______ _____ _____    ______ ____
ROOT
ATOM      1  N   UNL     1      -0.724   2.015  -1.189  0.00  0.00    +0.387 N 
ATOM      2  H   UNL     1      -0.529   1.387  -1.977  0.00  0.00    -0.085 HD
ATOM      3  H   UNL     1      -0.393   2.961  -1.415  0.00  0.00    -0.085 HD
ENDROOT
BRANCH   1   5
ATOM      4  C   UNL     1       0.002  -0.004   0.002  0.00  0.00    -0.004 C 
ATOM      5  C   UNL     1      -0.019   1.526   0.010  0.00  0.00    +0.013 C 
BRANCH   5   6
ATOM      6  C   UNL     1       1.395   2.047  -0.000  0.00  0.00    +0.206 C 
ATOM      7  O   UNL     1       1.774   2.755  -0.910  0.00  0.00    -0.277 OA
ATOM      8  N   UNL     1       2.239   1.728   1.001  0.00  0.00    -0.262 N 
ATOM      9  C   UNL     1       1.805   0.872   2.115  0.00  0.00    +0.209 C 
ATOM     10  C   UNL     1       2.342   1.435   3.406  0.00  0.00    +0.235 C 
ATOM     11  O   UNL     1       1.732   1.255   4.438  0.00  0.00    -0.274 OA
ATOM     12  N   UNL     1       3.492   2.135   3.427  0.00  0.00    -0.283 N 
ATOM     13  C   UNL     1       4.189   2.401   2.243  0.00  0.00    +0.055 A 
ATOM     14  C   UNL     1       3.562   2.196   1.010  0.00  0.00    +0.058 A 
ATOM     15  C   UNL     1       4.235   2.466  -0.165  0.00  0.00    +0.025 A 
ATOM     16  C   UNL     1       5.539   2.927  -0.120  0.00  0.00    +0.002 A 
ATOM     17  C   UNL     1       6.165   3.123   1.097  0.00  0.00    +0.002 A 
ATOM     18  C   UNL     1       5.495   2.862   2.279  0.00  0.00    +0.025 A 
ATOM     19  H   UNL     1       3.841   2.459   4.272  0.00  0.00    +0.155 HD
ENDBRANCH   5   6
ENDBRANCH   1   5
BRANCH   1  20
ATOM     20  C   UNL     1      -2.179   2.054  -0.947  0.00  0.00    -0.069 C 
BRANCH  20  21
ATOM     21  C   UNL     1      -2.883   2.565  -2.205  0.00  0.00    +0.034 C 
BRANCH  21  22
ATOM     22  C   UNL     1      -4.376   2.492  -2.011  0.00  0.00    -0.017 A 
ATOM     23  C   UNL     1      -5.088   3.115  -1.059  0.00  0.00    +0.087 A 
ATOM     24  N   UNL     1      -6.416   2.816  -1.198  0.00  0.00    -0.360 N 
ATOM     25  H   UNL     1      -7.126   3.151  -0.628  0.00  0.00    +0.165 HD
ATOM     26  C   UNL     1      -6.594   1.963  -2.265  0.00  0.00    +0.047 A 
ATOM     27  C   UNL     1      -5.324   1.723  -2.820  0.00  0.00    +0.003 A 
ATOM     28  C   UNL     1      -5.196   0.883  -3.928  0.00  0.00    +0.010 A 
ATOM     29  C   UNL     1      -6.306   0.298  -4.468  0.00  0.00    +0.001 A 
ATOM     30  C   UNL     1      -7.561   0.531  -3.923  0.00  0.00    +0.002 A 
ATOM     31  C   UNL     1      -7.711   1.356  -2.830  0.00  0.00    +0.026 A 
ENDBRANCH  21  22
BRANCH  21  32
ATOM     32  C   UNL     1      -2.479   3.994  -2.462  0.00  0.00    -0.042 A 
ATOM     33  C   UNL     1      -2.745   4.968  -1.518  0.00  0.00    +0.004 A 
ATOM     34  C   UNL     1      -2.371   6.278  -1.752  0.00  0.00    +0.000 A 
ATOM     35  C   UNL     1      -1.739   6.615  -2.934  0.00  0.00    +0.000 A 
ATOM     36  C   UNL     1      -1.477   5.642  -3.880  0.00  0.00    +0.000 A 
ATOM     37  C   UNL     1      -1.848   4.332  -3.645  0.00  0.00    +0.004 A 
ENDBRANCH  21  32
ENDBRANCH  20  21
ENDBRANCH   1  20
TORSDOF 6
