REMARK  Name = ZINC16461682
REMARK  12 active torsions:
REMARK  status: ('A' for Active; 'I' for Inactive)
REMARK    1  A    between atoms: C_1  and  C_2
REMARK    2  A    between atoms: C_7  and  N_8
REMARK    3  A    between atoms: C_9  and  C_28
REMARK    4  A    between atoms: C_12  and  S_13
REMARK    5  A    between atoms: S_13  and  C_14
REMARK    6  A    between atoms: C_14  and  C_15
REMARK    7  A    between atoms: C_17  and  C_20
REMARK    8  A    between atoms: N_22  and  C_23
REMARK    9  A    between atoms: C_23  and  C_24
REMARK   10  A    between atoms: C_24  and  C_25
REMARK   11  A    between atoms: C_25  and  C_26
REMARK   12  A    between atoms: C_25  and  C_27
REMARK                            x       y       z     vdW  Elec       q    Type
REMARK                         _______ _______ _______ _____ _____    ______ ____
ROOT
ATOM      1  N   UNL     1       3.587   2.125  -0.021  0.00  0.00    -0.270 N 
ATOM      2  C   UNL     1       4.314   2.544   1.072  0.00  0.00    +0.171 A 
ATOM      3  N   UNL     1       5.370   3.175   0.613  0.00  0.00    -0.128 NA
ATOM      4  N   UNL     1       5.355   3.180  -0.672  0.00  0.00    -0.122 NA
ATOM      5  C   UNL     1       4.291   2.548  -1.115  0.00  0.00    +0.197 A 
ENDROOT
BRANCH   1  12
ATOM      6  C   UNL     1       3.709  -0.718  -0.039  0.00  0.00    +0.046 C 
ATOM      7  C   UNL     1       2.396   0.021  -0.021  0.00  0.00    -0.026 A 
ATOM      8  C   UNL     1       1.207  -0.681  -0.014  0.00  0.00    +0.007 A 
ATOM      9  C   UNL     1       0.002  -0.004   0.002  0.00  0.00    +0.020 A 
ATOM     10  C   UNL     1      -0.017   1.380   0.010  0.00  0.00    +0.043 A 
ATOM     11  C   UNL     1       1.170   2.088   0.002  0.00  0.00    +0.046 A 
ATOM     12  C   UNL     1       2.381   1.409  -0.013  0.00  0.00    +0.055 A 
ATOM     13 CL   UNL     1      -1.532   2.227   0.021  0.00  0.00    -0.083 Cl
ENDBRANCH   1  12
BRANCH   2  14
ATOM     14  C   UNL     1       3.970   2.325   2.493  0.00  0.00    +0.038 A 
ATOM     15  C   UNL     1       4.929   2.518   3.495  0.00  0.00    +0.014 A 
ATOM     16  C   UNL     1       4.556   2.300   4.809  0.00  0.00    +0.020 A 
ATOM     17  C   UNL     1       3.261   1.900   5.089  0.00  0.00    +0.111 A 
ATOM     18  N   UNL     1       2.379   1.725   4.124  0.00  0.00    -0.263 NA
ATOM     19  C   UNL     1       2.684   1.926   2.858  0.00  0.00    +0.122 A 
ENDBRANCH   2  14
BRANCH   5  20
ATOM     20  S   UNL     1       3.851   2.296  -2.803  0.00  0.00    -0.079 S 
BRANCH  20  21
ATOM     21  C   UNL     1       5.240   3.124  -3.616  0.00  0.00    +0.140 C 
BRANCH  21  22
ATOM     22  C   UNL     1       5.073   3.033  -5.111  0.00  0.00    +0.089 A 
ATOM     23  N   UNL     1       4.457   3.860  -5.916  0.00  0.00    -0.239 NA
ATOM     24  C   UNL     1       4.418   3.611  -7.225  0.00  0.00    +0.133 A 
ATOM     25  C   UNL     1       5.030   2.467  -7.672  0.00  0.00    +0.080 A 
ATOM     26  S   UNL     1       5.643   1.802  -6.191  0.00  0.00    -0.079 S 
BRANCH  24  27
ATOM     27  C   UNL     1       3.738   4.526  -8.157  0.00  0.00    +0.263 C 
ATOM     28  O   UNL     1       3.712   4.274  -9.347  0.00  0.00    -0.269 OA
ATOM     29  N   UNL     1       3.144   5.643  -7.691  0.00  0.00    -0.310 N 
ATOM     30  H   UNL     1       3.165   5.844  -6.743  0.00  0.00    +0.149 HD
BRANCH  29  31
ATOM     31  C   UNL     1       2.468   6.554  -8.618  0.00  0.00    +0.105 C 
BRANCH  31  32
ATOM     32  C   UNL     1       1.883   7.733  -7.839  0.00  0.00    +0.022 C 
BRANCH  32  33
ATOM     33  C   UNL     1       1.177   8.684  -8.807  0.00  0.00    -0.016 C 
ATOM     34  C   UNL     1       0.486   9.797  -8.016  0.00  0.00    +0.007 C 
ATOM     35  C   UNL     1       2.205   9.299  -9.760  0.00  0.00    +0.007 C 
ENDBRANCH  32  33
ENDBRANCH  31  32
ENDBRANCH  29  31
ENDBRANCH  24  27
ENDBRANCH  21  22
ENDBRANCH  20  21
ENDBRANCH   5  20
TORSDOF 9
