REMARK  Name = ZINC59210813
REMARK  10 active torsions:
REMARK  status: ('A' for Active; 'I' for Inactive)
REMARK    1  A    between atoms: C_1  and  C_2
REMARK    2  A    between atoms: C_5  and  N_9
REMARK    3  A    between atoms: C_6  and  C_8
REMARK    4  A    between atoms: C_10  and  C_12
REMARK    5  A    between atoms: C_13  and  C_35
REMARK    6  A    between atoms: C_18  and  C_20
REMARK    7  A    between atoms: C_23  and  O_26
REMARK    8  A    between atoms: O_26  and  C_27
REMARK    9  A    between atoms: C_27  and  C_28
REMARK   10  A    between atoms: C_33  and  C_34
REMARK                            x       y       z     vdW  Elec       q    Type
REMARK                         _______ _______ _______ _____ _____    ______ ____
ROOT
ATOM      1  C   UNL     1      -0.849  -6.977  -0.869  0.00  0.00    +0.056 C 
ATOM      2  C   UNL     1      -1.098  -7.726  -1.965  0.00  0.00    +0.017 C 
ATOM      3  N   UNL     1      -1.411  -9.051  -1.857  0.00  0.00    -0.300 N 
ATOM      4  C   UNL     1      -1.496  -9.701  -0.690  0.00  0.00    +0.135 C 
ATOM      5  S   UNL     1      -1.899 -11.365  -0.696  0.00  0.00    -0.019 S 
ATOM      6  N   UNL     1      -1.274  -9.089   0.490  0.00  0.00    -0.315 N 
ATOM      7  C   UNL     1      -0.922  -7.659   0.482  0.00  0.00    +0.139 C 
ATOM      8  C   UNL     1      -1.029  -7.089  -3.329  0.00  0.00    +0.061 C 
ATOM      9  H   UNL     1      -1.583  -9.548  -2.672  0.00  0.00    +0.154 HD
ATOM     10  H   UNL     1      -1.341  -9.579   1.324  0.00  0.00    +0.149 HD
ENDROOT
BRANCH   7  11
ATOM     11  C   UNL     1      -1.944  -6.929   1.315  0.00  0.00    -0.022 A 
ATOM     12  C   UNL     1      -3.292  -7.095   1.054  0.00  0.00    +0.009 A 
ATOM     13  C   UNL     1      -4.231  -6.427   1.816  0.00  0.00    +0.046 A 
ATOM     14  C   UNL     1      -3.821  -5.590   2.844  0.00  0.00    +0.121 A 
ATOM     15  C   UNL     1      -2.468  -5.426   3.104  0.00  0.00    +0.046 A 
ATOM     16  C   UNL     1      -1.533  -6.100   2.342  0.00  0.00    +0.009 A 
BRANCH  14  17
ATOM     17  O   UNL     1      -4.743  -4.932   3.595  0.00  0.00    -0.487 OA
BRANCH  17  18
ATOM     18  C   UNL     1      -4.249  -4.087   4.636  0.00  0.00    +0.264 C 
BRANCH  18  19
ATOM     19  C   UNL     1      -5.407  -3.446   5.355  0.00  0.00    -0.007 A 
ATOM     20  C   UNL     1      -6.704  -3.727   4.965  0.00  0.00    +0.007 A 
ATOM     21  C   UNL     1      -7.766  -3.138   5.625  0.00  0.00    +0.000 A 
ATOM     22  C   UNL     1      -7.533  -2.269   6.675  0.00  0.00    +0.000 A 
ATOM     23  C   UNL     1      -6.237  -1.989   7.065  0.00  0.00    +0.004 A 
ATOM     24  C   UNL     1      -5.174  -2.581   6.407  0.00  0.00    -0.044 A 
ATOM     25  C   UNL     1      -3.761  -2.280   6.836  0.00  0.00    +0.044 C 
ENDBRANCH  18  19
ENDBRANCH  17  18
ENDBRANCH  14  17
ENDBRANCH   7  11
BRANCH   1  27
ATOM     26  N   UNL     1      -1.501  -4.691  -1.150  0.00  0.00    -0.281 N 
ATOM     27  C   UNL     1      -0.524  -5.603  -0.980  0.00  0.00    +0.248 C 
ATOM     28  O   UNL     1       0.639  -5.246  -0.921  0.00  0.00    -0.270 OA
ATOM     29  H   UNL     1      -2.431  -4.963  -1.103  0.00  0.00    +0.155 HD
BRANCH  26  34
ATOM     30  C   UNL     1      -0.177   0.734  -2.142  0.00  0.00    +0.044 C 
ATOM     31  C   UNL     1      -0.529  -0.707  -1.878  0.00  0.00    -0.050 A 
ATOM     32  C   UNL     1       0.313  -1.494  -1.113  0.00  0.00    +0.005 A 
ATOM     33  C   UNL     1      -0.007  -2.815  -0.869  0.00  0.00    +0.024 A 
ATOM     34  C   UNL     1      -1.175  -3.354  -1.394  0.00  0.00    +0.037 A 
ATOM     35  C   UNL     1      -2.018  -2.561  -2.162  0.00  0.00    -0.029 A 
ATOM     36  C   UNL     1      -1.695  -1.239  -2.397  0.00  0.00    +0.008 A 
ATOM     37  C   UNL     1      -3.286  -3.141  -2.733  0.00  0.00    +0.045 C 
ENDBRANCH  26  34
ENDBRANCH   1  27
TORSDOF 6
