REMARK  Name = ZINC43761535
REMARK  5 active torsions:
REMARK  status: ('A' for Active; 'I' for Inactive)
REMARK    1  A    between atoms: C_1  and  O_2
REMARK    2  A    between atoms: O_2  and  C_3
REMARK    3  A    between atoms: N_5  and  C_6
REMARK    4  A    between atoms: C_10  and  O_15
REMARK    5  A    between atoms: O_15  and  C_16
REMARK                            x       y       z     vdW  Elec       q    Type
REMARK                         _______ _______ _______ _____ _____    ______ ____
ROOT
ATOM      1  C   UNL     1      -2.538  -2.661   0.012  0.00  0.00    +0.070 C 
ATOM      2  C   UNL     1      -3.261  -2.409   1.334  0.00  0.00    +0.029 C 
ATOM      3  C   UNL     1      -2.808  -3.545   2.281  0.00  0.00    +0.005 C 
ATOM      4  C   UNL     1      -1.885  -4.470   1.445  0.00  0.00    +0.037 C 
ATOM      5  C   UNL     1      -2.337  -4.205   0.002  0.00  0.00    +0.094 C 
ATOM      6  C   UNL     1      -1.278  -4.493  -1.051  0.00  0.00    +0.064 C 
ATOM      7  C   UNL     1      -1.721  -3.846  -2.342  0.00  0.00    -0.028 C 
ATOM      8  C   UNL     1      -2.617  -2.911  -2.422  0.00  0.00    -0.029 C 
ATOM      9  C   UNL     1      -3.324  -2.317  -1.243  0.00  0.00    +0.055 C 
ENDROOT
BRANCH   1  12
ATOM     10  C   UNL     1      -1.189  -0.632   0.010  0.00  0.00    +0.401 C 
ATOM     11  O   UNL     1      -2.217   0.016   0.023  0.00  0.00    -0.226 OA
ATOM     12  N   UNL     1      -1.241  -1.978   0.003  0.00  0.00    -0.273 N 
ATOM     13  H   UNL     1      -0.421  -2.495  -0.007  0.00  0.00    +0.153 HD
BRANCH  10  15
ATOM     14  C   UNL     1      -0.017   1.425   0.010  0.00  0.00    +0.282 C 
ATOM     15  O   UNL     1       0.002  -0.004   0.002  0.00  0.00    -0.454 OA
ENDBRANCH  10  15
ENDBRANCH   1  12
BRANCH   5  16
ATOM     16  O   UNL     1      -3.562  -4.883  -0.286  0.00  0.00    -0.374 OA
ATOM     17  C   UNL     1      -3.445  -6.307  -0.310  0.00  0.00    +0.194 C 
ENDBRANCH   5  16
TORSDOF 3
