REMARK  Name = ZINC35756140
REMARK  10 active torsions:
REMARK  status: ('A' for Active; 'I' for Inactive)
REMARK    1  A    between atoms: C_1  and  O_2
REMARK    2  A    between atoms: O_2  and  C_3
REMARK    3  A    between atoms: C_3  and  C_4
REMARK    4  A    between atoms: C_4  and  N_5
REMARK    5  A    between atoms: C_6  and  C_8
REMARK    6  A    between atoms: C_10  and  C_24
REMARK    7  A    between atoms: N_15  and  C_16
REMARK    8  A    between atoms: C_16  and  C_17
REMARK    9  A    between atoms: C_27  and  N_30
REMARK   10  A    between atoms: C_31  and  C_33
REMARK                            x       y       z     vdW  Elec       q    Type
REMARK                         _______ _______ _______ _____ _____    ______ ____
ROOT
ATOM      1  C   UNL     1       0.498  -4.447   2.888  0.00  0.00    +0.210 C 
ATOM      2  C   UNL     1      -0.674  -4.458   3.898  0.00  0.00    +0.238 C 
ATOM      3  O   UNL     1      -0.406  -5.653   4.657  0.00  0.00    -0.440 OA
ATOM      4  C   UNL     1       0.292  -6.494   3.875  0.00  0.00    +0.405 C 
ATOM      5  O   UNL     1       0.390  -7.686   4.089  0.00  0.00    -0.226 OA
ATOM      6  N   UNL     1       0.877  -5.873   2.829  0.00  0.00    -0.248 N 
ENDROOT
BRANCH   2   7
ATOM      7  C   UNL     1      -0.634  -3.238   4.782  0.00  0.00    -0.005 A 
ATOM      8  C   UNL     1       0.233  -3.195   5.859  0.00  0.00    +0.009 A 
ATOM      9  C   UNL     1       0.272  -2.079   6.672  0.00  0.00    +0.024 A 
ATOM     10  C   UNL     1      -0.560  -0.999   6.406  0.00  0.00    +0.034 A 
ATOM     11  C   UNL     1      -1.428  -1.045   5.323  0.00  0.00    +0.024 A 
ATOM     12  C   UNL     1      -1.459  -2.162   4.511  0.00  0.00    +0.009 A 
BRANCH  10  13
ATOM     13  N   UNL     1      -0.523   0.133   7.226  0.00  0.00    -0.281 N 
ATOM     14  C   UNL     1       0.637   0.515   7.795  0.00  0.00    +0.251 C 
ATOM     15  O   UNL     1       1.670  -0.065   7.520  0.00  0.00    -0.270 OA
ATOM     16  H   UNL     1      -1.333   0.643   7.386  0.00  0.00    +0.155 HD
BRANCH  14  17
ATOM     17  C   UNL     1       0.655   1.639   8.753  0.00  0.00    +0.072 A 
ATOM     18  C   UNL     1      -0.530   2.304   9.077  0.00  0.00    +0.016 A 
ATOM     19  C   UNL     1      -0.506   3.352   9.972  0.00  0.00    +0.001 A 
ATOM     20  C   UNL     1       0.688   3.748  10.551  0.00  0.00    +0.003 A 
ATOM     21  C   UNL     1       1.865   3.096  10.237  0.00  0.00    +0.039 A 
ATOM     22  C   UNL     1       1.857   2.039   9.346  0.00  0.00    +0.135 A 
ATOM     23  F   UNL     1       3.008   1.398   9.044  0.00  0.00    -0.205 F 
ENDBRANCH  14  17
ENDBRANCH  10  13
ENDBRANCH   2   7
BRANCH   1  25
ATOM     24  N   UNL     1      -0.047  -2.635   1.296  0.00  0.00    -0.311 N 
ATOM     25  C   UNL     1       0.039  -3.958   1.539  0.00  0.00    +0.238 C 
ATOM     26  O   UNL     1      -0.254  -4.754   0.672  0.00  0.00    -0.274 OA
ATOM     27  H   UNL     1       0.187  -1.998   1.989  0.00  0.00    +0.149 HD
BRANCH  24  28
ATOM     28  C   UNL     1      -0.493  -2.159  -0.016  0.00  0.00    +0.132 C 
BRANCH  28  29
ATOM     29  C   UNL     1      -0.501  -0.628  -0.027  0.00  0.00    +0.178 C 
BRANCH  29  31
ATOM     30  C   UNL     1       0.942   1.280   0.117  0.00  0.00    +0.194 C 
ATOM     31  O   UNL     1       0.836  -0.145   0.116  0.00  0.00    -0.381 OA
ENDBRANCH  29  31
ENDBRANCH  28  29
ENDBRANCH  24  28
ENDBRANCH   1  25
BRANCH   6  32
ATOM     32  C   UNL     1       1.731  -6.498   1.815  0.00  0.00    +0.147 C 
BRANCH  32  33
ATOM     33  C   UNL     1       3.168  -6.440   2.264  0.00  0.00    -0.030 A 
ATOM     34  C   UNL     1       3.954  -5.353   1.930  0.00  0.00    +0.008 A 
ATOM     35  C   UNL     1       5.272  -5.298   2.342  0.00  0.00    +0.038 A 
ATOM     36  C   UNL     1       5.806  -6.334   3.089  0.00  0.00    +0.123 A 
ATOM     37  C   UNL     1       5.019  -7.423   3.423  0.00  0.00    +0.038 A 
ATOM     38  C   UNL     1       3.699  -7.473   3.015  0.00  0.00    +0.008 A 
ATOM     39  F   UNL     1       7.095  -6.283   3.492  0.00  0.00    -0.205 F 
ENDBRANCH  32  33
ENDBRANCH   6  32
TORSDOF 9
