REMARK  Name = ZINC39673145
REMARK  8 active torsions:
REMARK  status: ('A' for Active; 'I' for Inactive)
REMARK    1  A    between atoms: C_1  and  C_2
REMARK    2  A    between atoms: C_5  and  C_9
REMARK    3  A    between atoms: C_7  and  C_8
REMARK    4  A    between atoms: C_9  and  N_10
REMARK    5  A    between atoms: C_11  and  C_13
REMARK    6  A    between atoms: C_24  and  C_26
REMARK    7  A    between atoms: C_31  and  S_32
REMARK    8  A    between atoms: S_32  and  C_33
REMARK                            x       y       z     vdW  Elec       q    Type
REMARK                         _______ _______ _______ _____ _____    ______ ____
ROOT
ATOM      1  C   UNL     1       3.137  -6.546  -0.050  0.00  0.00    +0.100 C 
ATOM      2  C   UNL     1       3.905  -6.004   1.176  0.00  0.00    +0.121 C 
ATOM      3  N   UNL     1       3.803  -7.081   2.188  0.00  0.00    -0.296 N 
ATOM      4  C   UNL     1       3.954  -8.334   1.410  0.00  0.00    +0.115 C 
ATOM      5  C   UNL     1       3.175  -8.075   0.105  0.00  0.00    -0.004 C 
ATOM      6  C   UNL     1       3.901  -8.709  -1.078  0.00  0.00    -0.010 C 
ATOM      7  C   UNL     1       3.874 -10.233  -0.931  0.00  0.00    -0.082 C 
ATOM      8  N   UNL     1       2.483 -10.697  -0.880  0.00  0.00    +0.379 N 
ATOM      9  C   UNL     1       1.818 -10.157   0.313  0.00  0.00    -0.082 C 
ATOM     10  C   UNL     1       1.758  -8.630   0.218  0.00  0.00    -0.010 C 
ATOM     11  C   UNL     1       3.615  -6.952   3.517  0.00  0.00    +0.249 C 
ATOM     12  O   UNL     1       3.411  -5.854   3.998  0.00  0.00    -0.270 OA
ATOM     13  H   UNL     1       1.994 -10.384  -1.706  0.00  0.00    -0.086 HD
ATOM     14  H   UNL     1       2.467 -11.705  -0.844  0.00  0.00    -0.086 HD
ENDROOT
BRANCH  11  15
ATOM     15  C   UNL     1       3.656  -8.141   4.386  0.00  0.00    +0.069 A 
ATOM     16  C   UNL     1       4.532  -9.197   4.108  0.00  0.00    +0.017 A 
ATOM     17  C   UNL     1       4.533 -10.291   4.955  0.00  0.00    +0.020 A 
ATOM     18  C   UNL     1       3.677 -10.312   6.043  0.00  0.00    +0.112 A 
ATOM     19  N   UNL     1       2.859  -9.307   6.288  0.00  0.00    -0.248 NA
ATOM     20  C   UNL     1       2.821  -8.234   5.513  0.00  0.00    +0.114 A 
BRANCH  20  21
ATOM     21  S   UNL     1       1.712  -6.918   5.893  0.00  0.00    -0.069 S 
BRANCH  21  22
ATOM     22  C   UNL     1       0.787  -7.522   7.264  0.00  0.00    +0.014 A 
ATOM     23  C   UNL     1       1.173  -7.202   8.560  0.00  0.00    +0.015 A 
ATOM     24  C   UNL     1       0.445  -7.677   9.633  0.00  0.00    +0.001 A 
ATOM     25  C   UNL     1      -0.667  -8.472   9.419  0.00  0.00    +0.000 A 
ATOM     26  C   UNL     1      -1.054  -8.793   8.130  0.00  0.00    +0.001 A 
ATOM     27  C   UNL     1      -0.334  -8.316   7.053  0.00  0.00    +0.015 A 
ENDBRANCH  21  22
ENDBRANCH  20  21
ENDBRANCH  11  15
BRANCH   1  29
ATOM     28  N   UNL     1       1.059  -5.855  -1.200  0.00  0.00    -0.311 N 
ATOM     29  C   UNL     1       1.714  -6.052  -0.038  0.00  0.00    +0.218 C 
ATOM     30  O   UNL     1       1.157  -5.831   1.016  0.00  0.00    -0.275 OA
ATOM     31  H   UNL     1       1.504  -6.032  -2.044  0.00  0.00    +0.149 HD
BRANCH  28  32
ATOM     32  C   UNL     1      -0.325  -5.375  -1.188  0.00  0.00    +0.139 C 
BRANCH  32  37
ATOM     33  C   UNL     1      -2.233  -4.856  -6.618  0.00  0.00    +0.044 C 
ATOM     34  C   UNL     1      -1.735  -4.992  -5.202  0.00  0.00    -0.048 A 
ATOM     35  C   UNL     1      -1.898  -6.185  -4.524  0.00  0.00    +0.004 A 
ATOM     36  C   UNL     1      -1.442  -6.309  -3.225  0.00  0.00    +0.005 A 
ATOM     37  C   UNL     1      -0.822  -5.240  -2.605  0.00  0.00    -0.030 A 
ATOM     38  C   UNL     1      -0.658  -4.048  -3.284  0.00  0.00    +0.008 A 
ATOM     39  C   UNL     1      -1.111  -3.925  -4.584  0.00  0.00    -0.047 A 
ATOM     40  C   UNL     1      -0.927  -2.626  -5.327  0.00  0.00    +0.044 C 
ENDBRANCH  32  37
ENDBRANCH  28  32
ENDBRANCH   1  29
TORSDOF 6
