REMARK  Name = ZINC63138504
REMARK  10 active torsions:
REMARK  status: ('A' for Active; 'I' for Inactive)
REMARK    1  A    between atoms: C_1  and  O_2
REMARK    2  A    between atoms: O_2  and  C_3
REMARK    3  A    between atoms: C_5  and  C_13
REMARK    4  A    between atoms: C_7  and  O_11
REMARK    5  A    between atoms: C_8  and  O_9
REMARK    6  A    between atoms: O_9  and  C_10
REMARK    7  A    between atoms: O_11  and  C_12
REMARK    8  A    between atoms: N_32  and  C_35
REMARK    9  A    between atoms: C_35  and  C_36
REMARK   10  A    between atoms: C_36  and  C_37
REMARK                            x       y       z     vdW  Elec       q    Type
REMARK                         _______ _______ _______ _____ _____    ______ ____
ROOT
ATOM      1  C   UNL     1       2.402   0.386  -4.230  0.00  0.00    +0.134 C 
ATOM      2  C   UNL     1       3.908   0.486  -3.992  0.00  0.00    +0.131 C 
ATOM      3  C   UNL     1       4.487  -0.864  -4.411  0.00  0.00    -0.034 C 
ATOM      4  C   UNL     1       5.058  -1.386  -3.334  0.00  0.00    -0.001 A 
ATOM      5  C   UNL     1       5.795  -2.643  -3.128  0.00  0.00    +0.010 A 
ATOM      6  C   UNL     1       6.251  -2.872  -1.868  0.00  0.00    +0.001 A 
ATOM      7  C   UNL     1       6.050  -1.986  -0.805  0.00  0.00    +0.002 A 
ATOM      8  C   UNL     1       5.384  -0.807  -0.904  0.00  0.00    +0.026 A 
ATOM      9  C   UNL     1       4.859  -0.455  -2.181  0.00  0.00    +0.043 A 
ATOM     10  N   UNL     1       4.194   0.619  -2.558  0.00  0.00    -0.375 N 
ATOM     11  C   UNL     1       4.328  -1.378  -5.815  0.00  0.00    +0.065 C 
ATOM     12  C   UNL     1       2.937  -1.084  -6.313  0.00  0.00    +0.167 C 
ATOM     13  N   UNL     1       2.095  -0.216  -5.519  0.00  0.00    -0.279 N 
ATOM     14  C   UNL     1       0.843   0.019  -6.035  0.00  0.00    +0.234 C 
ATOM     15  O   UNL     1       0.069   0.782  -5.498  0.00  0.00    -0.274 OA
ATOM     16  C   UNL     1       0.477  -0.720  -7.305  0.00  0.00    +0.203 C 
ATOM     17  N   UNL     1       0.914  -2.122  -7.173  0.00  0.00    -0.291 N 
ATOM     18  C   UNL     1       2.170  -2.327  -6.690  0.00  0.00    +0.237 C 
ATOM     19  O   UNL     1       2.642  -3.438  -6.573  0.00  0.00    -0.274 OA
ATOM     20  H   UNL     1       3.934   1.366  -1.996  0.00  0.00    +0.160 HD
ENDROOT
BRANCH   1  23
ATOM     21  C   UNL     1       0.606  -0.608  -1.056  0.00  0.00    +0.165 A 
ATOM     22  C   UNL     1       1.173   0.160  -2.063  0.00  0.00    +0.055 A 
ATOM     23  C   UNL     1       1.787  -0.452  -3.139  0.00  0.00    -0.018 A 
ATOM     24  C   UNL     1       1.839  -1.831  -3.217  0.00  0.00    +0.055 A 
ATOM     25  C   UNL     1       1.275  -2.606  -2.215  0.00  0.00    +0.165 A 
ATOM     26  C   UNL     1       0.661  -1.994  -1.128  0.00  0.00    +0.204 A 
BRANCH  21  28
ATOM     27  C   UNL     1      -0.017   1.425   0.010  0.00  0.00    +0.277 C 
ATOM     28  O   UNL     1       0.002  -0.004   0.002  0.00  0.00    -0.491 OA
ENDBRANCH  21  28
BRANCH  26  29
ATOM     29  O   UNL     1       0.111  -2.751  -0.140  0.00  0.00    -0.488 OA
ATOM     30  C   UNL     1      -1.260  -3.124  -0.295  0.00  0.00    +0.277 C 
ENDBRANCH  26  29
BRANCH  25  31
ATOM     31  O   UNL     1       1.326  -3.963  -2.293  0.00  0.00    -0.491 OA
ATOM     32  C   UNL     1       1.977  -4.523  -3.435  0.00  0.00    +0.277 C 
ENDBRANCH  25  31
ENDBRANCH   1  23
BRANCH  17  33
ATOM     33  C   UNL     1       0.040  -3.238  -7.543  0.00  0.00    +0.112 C 
BRANCH  33  34
ATOM     34  C   UNL     1       0.257  -3.590  -9.015  0.00  0.00    +0.049 C 
BRANCH  34  35
ATOM     35  C   UNL     1      -0.642  -4.738  -9.396  0.00  0.00    -0.072 C 
ATOM     36  C   UNL     1      -1.781  -4.461  -9.943  0.00  0.00    -0.028 C 
ATOM     37  C   UNL     1      -2.785  -5.494 -10.365  0.00  0.00    +0.027 C 
ATOM     38  C   UNL     1      -2.119  -6.869 -10.456  0.00  0.00    +0.004 C 
ATOM     39  C   UNL     1      -1.333  -7.114  -9.163  0.00  0.00    +0.005 C 
ATOM     40  C   UNL     1      -0.158  -6.132  -9.121  0.00  0.00    +0.030 C 
ENDBRANCH  34  35
ENDBRANCH  33  34
ENDBRANCH  17  33
TORSDOF 7
