REMARK  Name = ZINC20080536
REMARK  11 active torsions:
REMARK  status: ('A' for Active; 'I' for Inactive)
REMARK    1  A    between atoms: C_1  and  C_2
REMARK    2  A    between atoms: C_2  and  O_3
REMARK    3  A    between atoms: O_3  and  C_4
REMARK    4  A    between atoms: C_11  and  C_16
REMARK    5  A    between atoms: C_16  and  C_18
REMARK    6  A    between atoms: C_16  and  N_32
REMARK    7  A    between atoms: N_22  and  C_23
REMARK    8  A    between atoms: C_23  and  C_24
REMARK    9  A    between atoms: C_27  and  O_30
REMARK   10  A    between atoms: O_30  and  C_31
REMARK   11  A    between atoms: N_35  and  C_38
REMARK                            x       y       z     vdW  Elec       q    Type
REMARK                         _______ _______ _______ _____ _____    ______ ____
ROOT
ATOM      1  C   UNL     1      -0.013   1.086   0.008  0.00  0.00    +0.162 C 
ENDROOT
BRANCH   1   9
ATOM      2  C   UNL     1       6.180   0.978  -0.249  0.00  0.00    +0.121 A 
ATOM      3  C   UNL     1       6.359   2.355  -0.136  0.00  0.00    +0.047 A 
ATOM      4  C   UNL     1       5.274   3.196  -0.018  0.00  0.00    +0.030 A 
ATOM      5  C   UNL     1       3.986   2.672  -0.013  0.00  0.00    +0.049 A 
ATOM      6  C   UNL     1       3.801   1.281  -0.127  0.00  0.00    +0.002 A 
ATOM      7  C   UNL     1       4.910   0.437  -0.245  0.00  0.00    +0.055 A 
ATOM      8  C   UNL     1       2.439   0.743  -0.120  0.00  0.00    +0.021 A 
ATOM      9  C   UNL     1       1.401   1.607  -0.003  0.00  0.00    +0.042 A 
ATOM     10  C   UNL     1       1.640   2.994   0.103  0.00  0.00    +0.254 A 
ATOM     11  O   UNL     1       0.692   3.754   0.202  0.00  0.00    -0.268 OA
ATOM     12  N   UNL     1       2.886   3.498   0.104  0.00  0.00    -0.322 N 
ATOM     13  H   UNL     1       3.023   4.585   0.198  0.00  0.00    +0.169 HD
BRANCH   2  14
ATOM     14  O   UNL     1       7.262   0.163  -0.364  0.00  0.00    -0.492 OA
BRANCH  14  16
ATOM     15  C   UNL     1       9.634  -0.282  -0.498  0.00  0.00    +0.048 C 
ATOM     16  C   UNL     1       8.548   0.787  -0.361  0.00  0.00    +0.225 C 
ENDBRANCH  14  16
ENDBRANCH   2  14
ENDBRANCH   1   9
BRANCH   1  17
ATOM     17  N   UNL     1      -0.700   1.560   1.217  0.00  0.00    -0.292 NA
ATOM     18  C   UNL     1       0.034   1.167   2.428  0.00  0.00    +0.067 C 
ATOM     19  C   UNL     1      -0.670   1.746   3.658  0.00  0.00    -0.064 C 
ATOM     20  N   UNL     1      -2.055   1.256   3.702  0.00  0.00    +0.379 N 
ATOM     21  C   UNL     1      -2.789   1.648   2.491  0.00  0.00    -0.064 C 
ATOM     22  C   UNL     1      -2.085   1.069   1.261  0.00  0.00    +0.067 C 
ATOM     23  C   UNL     1      -2.743   1.730   4.911  0.00  0.00    -0.096 C 
ATOM     24  H   UNL     1      -2.026   0.157   3.740  0.00  0.00    -0.082 HD
ENDBRANCH   1  17
BRANCH   1  25
ATOM     25  C   UNL     1      -0.742   1.585  -1.213  0.00  0.00    +0.173 A 
ATOM     26  N   UNL     1      -1.200   2.797  -1.409  0.00  0.00    -0.111 NA
ATOM     27  N   UNL     1      -1.757   2.828  -2.571  0.00  0.00    -0.023 NA
ATOM     28  N   UNL     1      -1.673   1.665  -3.117  0.00  0.00    -0.044 NA
ATOM     29  N   UNL     1      -1.053   0.871  -2.311  0.00  0.00    -0.223 N 
BRANCH  29  30
ATOM     30  C   UNL     1      -0.746  -0.542  -2.546  0.00  0.00    +0.182 C 
BRANCH  30  31
ATOM     31  C   UNL     1      -1.880  -1.393  -2.037  0.00  0.00    -0.026 A 
ATOM     32  C   UNL     1      -1.867  -1.852  -0.732  0.00  0.00    +0.009 A 
ATOM     33  C   UNL     1      -2.909  -2.628  -0.261  0.00  0.00    +0.046 A 
ATOM     34  C   UNL     1      -3.962  -2.957  -1.101  0.00  0.00    +0.120 A 
ATOM     35  C   UNL     1      -3.970  -2.500  -2.411  0.00  0.00    +0.046 A 
ATOM     36  C   UNL     1      -2.929  -1.720  -2.876  0.00  0.00    +0.009 A 
BRANCH  34  37
ATOM     37  O   UNL     1      -4.985  -3.724  -0.642  0.00  0.00    -0.495 OA
ATOM     38  C   UNL     1      -4.911  -4.159   0.718  0.00  0.00    +0.277 C 
ENDBRANCH  34  37
ENDBRANCH  30  31
ENDBRANCH  29  30
ENDBRANCH   1  25
TORSDOF 8
