REMARK  Name = ZINC39531321
REMARK  1 active torsions:
REMARK  status: ('A' for Active; 'I' for Inactive)
REMARK    1  A    between atoms: C_6  and  C_10
REMARK                            x       y       z     vdW  Elec       q    Type
REMARK                         _______ _______ _______ _____ _____    ______ ____
ROOT
ATOM      1  C   UNL     1      -3.662  -3.423   0.003  0.00  0.00    +0.247 C 
ATOM      2  N   UNL     1      -2.950  -4.459  -0.763  0.00  0.00    -0.239 N 
ATOM      3  N   UNL     1      -3.792  -4.812  -1.823  0.00  0.00    -0.168 NA
ATOM      4  C   UNL     1      -4.906  -4.132  -1.797  0.00  0.00    +0.163 C 
ATOM      5  N   UNL     1      -4.932  -3.252  -0.717  0.00  0.00    -0.262 N 
ATOM      6  C   UNL     1      -6.014  -2.441  -0.501  0.00  0.00    +0.079 C 
ATOM      7  C   UNL     1      -7.079  -2.469  -1.319  0.00  0.00    +0.017 C 
ATOM      8  C   UNL     1      -7.120  -3.337  -2.431  0.00  0.00    +0.025 C 
ATOM      9  C   UNL     1      -6.069  -4.163  -2.695  0.00  0.00    +0.083 C 
ATOM     10 CL   UNL     1      -6.104  -5.236  -4.059  0.00  0.00    -0.080 Cl
ATOM     11  H   UNL     1      -2.072  -4.824  -0.571  0.00  0.00    +0.171 HD
ENDROOT
BRANCH   1  17
ATOM     12  C   UNL     1      -0.017   1.374   0.010  0.00  0.00    +0.002 A 
ATOM     13  C   UNL     1      -1.222   2.061   0.019  0.00  0.00    +0.002 A 
ATOM     14  C   UNL     1      -2.409   1.385   0.021  0.00  0.00    +0.030 A 
ATOM     15  C   UNL     1      -2.415  -0.012   0.014  0.00  0.00    +0.089 A 
ATOM     16  N   UNL     1      -3.402  -0.944   0.014  0.00  0.00    -0.229 NA
ATOM     17  C   UNL     1      -2.879  -2.135   0.005  0.00  0.00    +0.149 A 
ATOM     18  N   UNL     1      -1.521  -2.049  -0.001  0.00  0.00    -0.339 N 
ATOM     19  C   UNL     1      -1.194  -0.708   0.004  0.00  0.00    +0.066 A 
ATOM     20  C   UNL     1       0.002  -0.004   0.002  0.00  0.00    +0.028 A 
ATOM     21  H   UNL     1      -0.898  -2.793  -0.008  0.00  0.00    +0.167 HD
ENDBRANCH   1  17
TORSDOF 1
