REMARK  Name = ZINC06301950
REMARK  8 active torsions:
REMARK  status: ('A' for Active; 'I' for Inactive)
REMARK    1  A    between atoms: C_1  and  C_2
REMARK    2  A    between atoms: C_4  and  C_35
REMARK    3  A    between atoms: C_7  and  C_14
REMARK    4  A    between atoms: C_14  and  C_16
REMARK    5  A    between atoms: C_14  and  N_63
REMARK    6  A    between atoms: N_20  and  C_21
REMARK    7  A    between atoms: C_21  and  C_22
REMARK    8  A    between atoms: C_31  and  C_34
REMARK                            x       y       z     vdW  Elec       q    Type
REMARK                         _______ _______ _______ _____ _____    ______ ____
ROOT
ATOM      1  C   UNL     1       3.526   1.533  -1.198  0.00  0.00    +0.039 C 
ENDROOT
BRANCH   1   8
ATOM      2  C   UNL     1       7.030   1.084  -8.350  0.00  0.00    +0.044 C 
ATOM      3  C   UNL     1       6.436   1.392  -7.000  0.00  0.00    -0.048 A 
ATOM      4  C   UNL     1       6.554   2.671  -6.473  0.00  0.00    +0.007 A 
ATOM      5  C   UNL     1       6.023   2.972  -5.250  0.00  0.00    -0.041 A 
ATOM      6  C   UNL     1       5.354   1.982  -4.523  0.00  0.00    +0.002 A 
ATOM      7  C   UNL     1       4.773   2.270  -3.210  0.00  0.00    +0.018 A 
ATOM      8  C   UNL     1       4.135   1.270  -2.551  0.00  0.00    +0.011 A 
ATOM      9  C   UNL     1       4.045  -0.016  -3.126  0.00  0.00    +0.251 A 
ATOM     10  O   UNL     1       3.472  -0.901  -2.514  0.00  0.00    -0.268 OA
ATOM     11  N   UNL     1       4.571  -0.287  -4.333  0.00  0.00    -0.322 N 
ATOM     12  H   UNL     1       4.487  -1.181  -4.700  0.00  0.00    +0.169 HD
ATOM     13  C   UNL     1       5.231   0.684  -5.054  0.00  0.00    +0.050 A 
ATOM     14  C   UNL     1       5.780   0.402  -6.301  0.00  0.00    +0.029 A 
ATOM     15  C   UNL     1       6.158   4.364  -4.688  0.00  0.00    +0.044 C 
ENDBRANCH   1   8
BRANCH   1  22
ATOM     16  C   UNL     1       1.444   1.674  -2.425  0.00  0.00    -0.077 C 
ATOM     17  C   UNL     1       0.009   1.145  -2.487  0.00  0.00    -0.018 C 
ATOM     18  C   UNL     1      -0.749   1.594  -1.235  0.00  0.00    -0.001 C 
ATOM     19  C   UNL     1      -0.013   1.086   0.008  0.00  0.00    -0.031 C 
ATOM     20  C   UNL     1       1.423   1.616  -0.003  0.00  0.00    -0.074 C 
ATOM     21  C   UNL     1      -0.730   1.580   1.266  0.00  0.00    +0.005 C 
ATOM     22  N   UNL     1       2.105   1.129  -1.220  0.00  0.00    +0.389 N 
ATOM     23  H   UNL     1       2.050   0.104  -1.245  0.00  0.00    -0.080 HD
ENDBRANCH   1  22
BRANCH   1  24
ATOM     24  C   UNL     1       4.245   0.715  -0.157  0.00  0.00    +0.143 A 
ATOM     25  N   UNL     1       4.127  -0.575   0.044  0.00  0.00    -0.115 NA
ATOM     26  N   UNL     1       4.903  -0.898   1.021  0.00  0.00    -0.023 NA
ATOM     27  N   UNL     1       5.513   0.152   1.448  0.00  0.00    -0.044 NA
ATOM     28  N   UNL     1       5.138   1.166   0.744  0.00  0.00    -0.226 N 
BRANCH  28  29
ATOM     29  C   UNL     1       5.596   2.549   0.898  0.00  0.00    +0.182 C 
BRANCH  29  30
ATOM     30  C   UNL     1       4.699   3.269   1.872  0.00  0.00    -0.026 A 
ATOM     31  C   UNL     1       3.580   3.940   1.415  0.00  0.00    +0.005 A 
ATOM     32  C   UNL     1       2.755   4.596   2.309  0.00  0.00    +0.000 A 
ATOM     33  C   UNL     1       3.055   4.591   3.659  0.00  0.00    +0.000 A 
ATOM     34  C   UNL     1       4.177   3.925   4.115  0.00  0.00    +0.000 A 
ATOM     35  C   UNL     1       4.999   3.264   3.221  0.00  0.00    +0.005 A 
ENDBRANCH  29  30
ENDBRANCH  28  29
ENDBRANCH   1  24
TORSDOF 5
