REMARK  Name = ZINC58117514
REMARK  7 active torsions:
REMARK  status: ('A' for Active; 'I' for Inactive)
REMARK    1  A    between atoms: C_1  and  C_2
REMARK    2  A    between atoms: C_2  and  C_3
REMARK    3  A    between atoms: C_3  and  C_5
REMARK    4  A    between atoms: C_3  and  O_18
REMARK    5  A    between atoms: C_10  and  C_11
REMARK    6  A    between atoms: N_12  and  C_17
REMARK    7  A    between atoms: N_15  and  C_16
REMARK                            x       y       z     vdW  Elec       q    Type
REMARK                         _______ _______ _______ _____ _____    ______ ____
ROOT
ATOM      1  C   UNL     1       0.847  -1.998  -1.206  0.00  0.00    -0.014 A 
ATOM      2  C   UNL     1      -0.093  -2.791  -1.835  0.00  0.00    +0.034 A 
ATOM      3  C   UNL     1       0.026  -4.171  -1.788  0.00  0.00    +0.070 A 
ATOM      4  C   UNL     1       1.096  -4.754  -1.105  0.00  0.00    +0.070 A 
ATOM      5  C   UNL     1       2.034  -3.950  -0.476  0.00  0.00    +0.031 A 
ATOM      6  C   UNL     1       1.910  -2.576  -0.534  0.00  0.00    -0.043 A 
ATOM      7  C   UNL     1       2.934  -1.701   0.143  0.00  0.00    +0.044 C 
ATOM      8  N   UNL     1       0.950  -6.134  -1.231  0.00  0.00    -0.295 N 
ATOM      9  C   UNL     1      -0.158  -6.379  -1.957  0.00  0.00    +0.330 A 
ATOM     10  O   UNL     1      -0.572  -7.484  -2.251  0.00  0.00    -0.246 OA
ATOM     11  N   UNL     1      -0.737  -5.215  -2.307  0.00  0.00    -0.295 N 
ATOM     12  C   UNL     1      -1.960  -5.071  -3.100  0.00  0.00    +0.154 C 
ATOM     13  C   UNL     1       1.848  -7.146  -0.669  0.00  0.00    +0.154 C 
ENDROOT
BRANCH   1  14
ATOM     14  C   UNL     1       0.718  -0.497  -1.257  0.00  0.00    +0.145 C 
BRANCH  14  16
ATOM     15  C   UNL     1      -0.019   1.526   0.010  0.00  0.00    +0.007 C 
ATOM     16  C   UNL     1       0.002  -0.004   0.002  0.00  0.00    +0.033 C 
ENDBRANCH  14  16
BRANCH  14  17
ATOM     17  O   UNL     1      -0.036  -0.123  -2.412  0.00  0.00    -0.387 OA
ATOM     18  H   UNL     1      -0.931  -0.487  -2.431  0.00  0.00    +0.210 HD
ENDBRANCH  14  17
ENDBRANCH   1  14
TORSDOF 3
