REMARK  Name = ZINC08443996
REMARK  16 active torsions:
REMARK  status: ('A' for Active; 'I' for Inactive)
REMARK    1  A    between atoms: C_1  and  C_2
REMARK    2  A    between atoms: C_2  and  C_3
REMARK    3  A    between atoms: C_3  and  C_4
REMARK    4  A    between atoms: C_4  and  C_5
REMARK    5  A    between atoms: C_5  and  C_7
REMARK    6  A    between atoms: C_5  and  C_9
REMARK    7  A    between atoms: C_7  and  C_8
REMARK    8  A    between atoms: C_21  and  C_23
REMARK    9  A    between atoms: C_26  and  O_31
REMARK   10  A    between atoms: C_27  and  O_29
REMARK   11  A    between atoms: O_29  and  C_30
REMARK   12  A    between atoms: O_31  and  C_32
REMARK   13  A    between atoms: C_32  and  C_33
REMARK   14  A    between atoms: C_33  and  C_34
REMARK   15  A    between atoms: C_38  and  C_40
REMARK   16  A    between atoms: C_38  and  C_41
REMARK                            x       y       z     vdW  Elec       q    Type
REMARK                         _______ _______ _______ _____ _____    ______ ____
ROOT
ATOM      1  C   UNL     1      -3.926   0.962  -1.873  0.00  0.00    +0.224 C 
ATOM      2  O   UNL     1      -4.772   1.551  -2.511  0.00  0.00    -0.275 OA
ATOM      3  N   UNL     1      -3.151   1.635  -1.000  0.00  0.00    -0.258 N 
ATOM      4  C   UNL     1      -3.396   2.988  -0.767  0.00  0.00    +0.058 A 
ATOM      5  C   UNL     1      -3.175   3.942  -1.748  0.00  0.00    +0.025 A 
ATOM      6  C   UNL     1      -3.328   5.282  -1.439  0.00  0.00    +0.002 A 
ATOM      7  C   UNL     1      -3.700   5.670  -0.165  0.00  0.00    +0.002 A 
ATOM      8  C   UNL     1      -3.942   4.718   0.812  0.00  0.00    +0.025 A 
ATOM      9  C   UNL     1      -3.805   3.376   0.500  0.00  0.00    +0.053 A 
ATOM     10  N   UNL     1      -4.075   2.369   1.418  0.00  0.00    -0.316 N 
ATOM     11  C   UNL     1      -3.153   1.506   1.914  0.00  0.00    +0.017 C 
ATOM     12  C   UNL     1      -2.249   0.840   1.177  0.00  0.00    +0.037 C 
ATOM     13  C   UNL     1      -2.077   0.941  -0.320  0.00  0.00    +0.147 C 
ATOM     14  C   UNL     1      -1.346  -0.057   1.796  0.00  0.00    +0.163 C 
ATOM     15  O   UNL     1      -0.528  -0.634   1.107  0.00  0.00    -0.292 OA
ATOM     16  C   UNL     1      -1.362  -0.320   3.272  0.00  0.00    +0.086 C 
ATOM     17  C   UNL     1      -2.787  -0.096   3.793  0.00  0.00    -0.023 C 
ATOM     18  C   UNL     1      -3.198   1.329   3.423  0.00  0.00    +0.058 C 
ATOM     19  C   UNL     1      -3.742  -1.096   3.139  0.00  0.00    +0.011 C 
ATOM     20  C   UNL     1      -2.817  -0.267   5.313  0.00  0.00    +0.011 C 
ATOM     21  H   UNL     1      -4.990   2.276   1.727  0.00  0.00    +0.152 HD
ENDROOT
BRANCH  13  22
ATOM     22  C   UNL     1      -0.785   1.663  -0.606  0.00  0.00    -0.018 A 
ATOM     23  C   UNL     1      -0.629   2.979  -0.213  0.00  0.00    +0.009 A 
ATOM     24  C   UNL     1       0.552   3.647  -0.478  0.00  0.00    +0.050 A 
ATOM     25  C   UNL     1       1.585   2.995  -1.132  0.00  0.00    +0.162 A 
ATOM     26  C   UNL     1       1.429   1.669  -1.522  0.00  0.00    +0.162 A 
ATOM     27  C   UNL     1       0.243   1.005  -1.254  0.00  0.00    +0.055 A 
BRANCH  26  28
ATOM     28  O   UNL     1       2.440   1.025  -2.166  0.00  0.00    -0.491 OA
ATOM     29  C   UNL     1       2.210  -0.336  -2.536  0.00  0.00    +0.277 C 
ENDBRANCH  26  28
BRANCH  25  30
ATOM     30  O   UNL     1       2.747   3.651  -1.394  0.00  0.00    -0.488 OA
BRANCH  30  31
ATOM     31  C   UNL     1       2.835   5.011  -0.964  0.00  0.00    +0.229 C 
BRANCH  31  32
ATOM     32  C   UNL     1       4.205   5.578  -1.343  0.00  0.00    +0.038 C 
ATOM     33  C   UNL     1       4.300   7.034  -0.883  0.00  0.00    +0.007 C 
ENDBRANCH  31  32
ENDBRANCH  30  31
ENDBRANCH  25  30
ENDBRANCH  13  22
BRANCH   1  34
ATOM     34  C   UNL     1      -3.742  -0.523  -2.055  0.00  0.00    +0.075 C 
BRANCH  34  35
ATOM     35  C   UNL     1      -4.376  -1.264  -0.876  0.00  0.00    +0.009 C 
ATOM     36  C   UNL     1      -5.852  -0.875  -0.764  0.00  0.00    +0.004 C 
ENDBRANCH  34  35
BRANCH  34  37
ATOM     37  C   UNL     1      -4.415  -0.964  -3.356  0.00  0.00    +0.013 C 
BRANCH  37  38
ATOM     38  C   UNL     1      -4.147  -2.452  -3.590  0.00  0.00    +0.000 C 
BRANCH  38  40
ATOM     39  C   UNL     1      -4.447  -4.354  -5.182  0.00  0.00    +0.004 C 
ATOM     40  C   UNL     1      -4.714  -2.866  -4.949  0.00  0.00    -0.003 C 
ENDBRANCH  38  40
ENDBRANCH  37  38
ENDBRANCH  34  37
ENDBRANCH   1  34
TORSDOF 10
