REMARK  Name = ZINC64581718
REMARK  12 active torsions:
REMARK  status: ('A' for Active; 'I' for Inactive)
REMARK    1  A    between atoms: C_1  and  C_2
REMARK    2  A    between atoms: C_5  and  C_34
REMARK    3  A    between atoms: C_6  and  C_8
REMARK    4  A    between atoms: C_8  and  N_9
REMARK    5  A    between atoms: C_15  and  C_28
REMARK    6  A    between atoms: N_21  and  C_24
REMARK    7  A    between atoms: C_24  and  C_25
REMARK    8  A    between atoms: C_25  and  C_26
REMARK    9  A    between atoms: C_25  and  C_27
REMARK   10  A    between atoms: N_30  and  C_31
REMARK   11  A    between atoms: C_31  and  C_32
REMARK   12  A    between atoms: C_31  and  C_33
REMARK                            x       y       z     vdW  Elec       q    Type
REMARK                         _______ _______ _______ _____ _____    ______ ____
ROOT
ATOM      1  N   UNL     1       1.421  -3.280   2.782  0.00  0.00    -0.206 N 
ATOM      2  C   UNL     1       2.344  -2.594   3.486  0.00  0.00    +0.353 A 
ATOM      3  O   UNL     1       2.192  -1.497   3.994  0.00  0.00    -0.244 OA
ATOM      4  N   UNL     1       3.466  -3.342   3.526  0.00  0.00    -0.229 N 
ATOM      5  C   UNL     1       4.706  -3.104   4.119  0.00  0.00    +0.067 A 
ATOM      6  C   UNL     1       4.945  -1.930   4.816  0.00  0.00    +0.040 A 
ATOM      7  C   UNL     1       6.192  -1.716   5.400  0.00  0.00    +0.039 A 
ATOM      8  C   UNL     1       7.198  -2.678   5.285  0.00  0.00    +0.014 A 
ATOM      9  C   UNL     1       6.964  -3.847   4.593  0.00  0.00    +0.016 A 
ATOM     10  C   UNL     1       5.719  -4.067   4.007  0.00  0.00    +0.064 A 
ATOM     11  C   UNL     1       5.439  -5.310   3.260  0.00  0.00    +0.263 A 
ATOM     12  O   UNL     1       6.294  -6.167   3.143  0.00  0.00    -0.267 OA
ATOM     13  N   UNL     1       4.220  -5.481   2.710  0.00  0.00    -0.276 N 
ATOM     14  C   UNL     1       3.235  -4.511   2.836  0.00  0.00    +0.240 A 
ATOM     15  N   UNL     1       2.008  -4.489   2.388  0.00  0.00    -0.129 NA
ENDROOT
BRANCH   7  16
ATOM     16  C   UNL     1       6.452  -0.463   6.144  0.00  0.00    +0.244 C 
ATOM     17  O   UNL     1       5.578   0.377   6.245  0.00  0.00    -0.270 OA
ATOM     18  N   UNL     1       7.656  -0.252   6.710  0.00  0.00    -0.309 N 
ATOM     19  H   UNL     1       8.354  -0.922   6.630  0.00  0.00    +0.149 HD
BRANCH  18  20
ATOM     20  C   UNL     1       7.913   0.988   7.447  0.00  0.00    +0.067 C 
ATOM     21  C   UNL     1       9.025   0.751   8.471  0.00  0.00    +0.027 C 
ATOM     22  C   UNL     1       8.345   2.082   6.469  0.00  0.00    +0.027 C 
ENDBRANCH  18  20
ENDBRANCH   7  16
BRANCH   1  23
ATOM     23  C   UNL     1       0.054  -2.845   2.489  0.00  0.00    +0.184 C 
BRANCH  23  29
ATOM     24  C   UNL     1      -0.018   1.503   0.010  0.00  0.00    +0.044 C 
ATOM     25  C   UNL     1       0.002  -0.004   0.002  0.00  0.00    -0.050 A 
ATOM     26  C   UNL     1       0.006  -0.689  -1.199  0.00  0.00    +0.003 A 
ATOM     27  C   UNL     1       0.025  -2.071  -1.207  0.00  0.00    +0.004 A 
ATOM     28  C   UNL     1       0.040  -2.768  -0.013  0.00  0.00    -0.045 A 
ATOM     29  C   UNL     1       0.037  -2.084   1.188  0.00  0.00    -0.023 A 
ATOM     30  C   UNL     1       0.023  -0.702   1.195  0.00  0.00    +0.009 A 
ATOM     31  C   UNL     1       0.059  -4.275  -0.021  0.00  0.00    +0.044 C 
ENDBRANCH  23  29
ENDBRANCH   1  23
BRANCH  13  32
ATOM     32  C   UNL     1       3.931  -6.710   1.966  0.00  0.00    +0.131 C 
BRANCH  32  33
ATOM     33  C   UNL     1       3.370  -7.764   2.922  0.00  0.00    +0.003 C 
ATOM     34  C   UNL     1       2.951  -9.002   2.127  0.00  0.00    +0.009 C 
ATOM     35  C   UNL     1       4.443  -8.151   3.942  0.00  0.00    +0.009 C 
ENDBRANCH  32  33
ENDBRANCH  13  32
TORSDOF 6
