REMARK  Name = ZINC39779614
REMARK  6 active torsions:
REMARK  status: ('A' for Active; 'I' for Inactive)
REMARK    1  A    between atoms: C_1  and  C_2
REMARK    2  A    between atoms: C_7  and  N_8
REMARK    3  A    between atoms: C_9  and  C_11
REMARK    4  A    between atoms: C_16  and  N_17
REMARK    5  A    between atoms: N_17  and  S_18
REMARK    6  A    between atoms: S_18  and  C_21
REMARK                            x       y       z     vdW  Elec       q    Type
REMARK                         _______ _______ _______ _____ _____    ______ ____
ROOT
ATOM      1  C   UNL     1      -0.070   0.045   4.874  0.00  0.00    +0.059 A 
ATOM      2  C   UNL     1      -0.089   1.442   4.889  0.00  0.00    +0.015 A 
ATOM      3  C   UNL     1      -0.271   2.114   6.078  0.00  0.00    +0.001 A 
ATOM      4  C   UNL     1      -0.437   1.411   7.261  0.00  0.00    +0.002 A 
ATOM      5  C   UNL     1      -0.421   0.031   7.263  0.00  0.00    +0.025 A 
ATOM      6  C   UNL     1      -0.244  -0.664   6.072  0.00  0.00    +0.060 A 
ENDROOT
BRANCH   1   8
ATOM      7  N   UNL     1       0.292   0.005   2.456  0.00  0.00    -0.281 N 
ATOM      8  C   UNL     1       0.125  -0.680   3.605  0.00  0.00    +0.250 C 
ATOM      9  O   UNL     1       0.136  -1.896   3.595  0.00  0.00    -0.270 OA
ATOM     10  H   UNL     1       0.348   0.973   2.473  0.00  0.00    +0.155 HD
BRANCH   7  17
ATOM     11  C   UNL     1      -0.827   1.222   0.141  0.00  0.00    +0.046 C 
ATOM     12  C   UNL     1      -0.149  -0.123   0.085  0.00  0.00    -0.027 A 
ATOM     13  C   UNL     1      -0.052  -0.799  -1.116  0.00  0.00    +0.043 A 
ATOM     14  C   UNL     1       0.570  -2.034  -1.167  0.00  0.00    +0.124 A 
ATOM     15  C   UNL     1       1.097  -2.595  -0.016  0.00  0.00    +0.040 A 
ATOM     16  C   UNL     1       1.003  -1.923   1.187  0.00  0.00    +0.026 A 
ATOM     17  C   UNL     1       0.384  -0.681   1.240  0.00  0.00    +0.037 A 
ATOM     18  F   UNL     1       0.664  -2.694  -2.343  0.00  0.00    -0.205 F 
ENDBRANCH   7  17
ENDBRANCH   1   8
BRANCH   6  19
ATOM     19  N   UNL     1      -0.233  -2.053   6.070  0.00  0.00    -0.216 N 
ATOM     20  H   UNL     1       0.354  -2.532   5.464  0.00  0.00    +0.174 HD
BRANCH  19  21
ATOM     21  S   UNL     1      -1.221  -2.890   7.101  0.00  0.00    +0.072 S 
ATOM     22  O   UNL     1      -1.081  -4.265   6.771  0.00  0.00    -0.150 OA
ATOM     23  O   UNL     1      -0.964  -2.390   8.406  0.00  0.00    -0.150 OA
BRANCH  21  24
ATOM     24  C   UNL     1      -2.880  -2.444   6.709  0.00  0.00    +0.110 A 
ATOM     25  C   UNL     1      -3.484  -1.302   7.385  0.00  0.00    +0.031 A 
ATOM     26  C   UNL     1      -4.750  -0.907   7.131  0.00  0.00    +0.027 A 
ATOM     27  C   UNL     1      -5.551  -1.639   6.151  0.00  0.00    +0.056 A 
ATOM     28  N   UNL     1      -6.769  -1.526   5.684  0.00  0.00    -0.268 N 
ATOM     29  C   UNL     1      -6.973  -2.522   4.758  0.00  0.00    +0.308 C 
ATOM     30  O   UNL     1      -8.000  -2.698   4.138  0.00  0.00    -0.252 OA
ATOM     31  N   UNL     1      -5.838  -3.289   4.641  0.00  0.00    -0.267 N 
ATOM     32  C   UNL     1      -4.931  -2.812   5.457  0.00  0.00    +0.058 A 
ATOM     33  C   UNL     1      -3.553  -3.168   5.788  0.00  0.00    +0.054 A 
ATOM     34  H   UNL     1      -5.727  -4.053   4.054  0.00  0.00    +0.156 HD
ATOM     35  H   UNL     1      -7.417  -0.854   5.947  0.00  0.00    +0.156 HD
ENDBRANCH  21  24
ENDBRANCH  19  21
ENDBRANCH   6  19
TORSDOF 5
