REMARK  Name = ZINC05001890
REMARK  4 active torsions:
REMARK  status: ('A' for Active; 'I' for Inactive)
REMARK    1  A    between atoms: C_1  and  C_2
REMARK    2  A    between atoms: C_2  and  C_4
REMARK    3  A    between atoms: C_2  and  N_17
REMARK    4  A    between atoms: C_7  and  C_10
REMARK                            x       y       z     vdW  Elec       q    Type
REMARK                         _______ _______ _______ _____ _____    ______ ____
ROOT
ATOM      1  C   UNL     1       0.707  -0.490  -1.238  0.00  0.00    +0.171 A 
ATOM      2  N   UNL     1       1.938  -0.995  -1.277  0.00  0.00    -0.210 NA
ATOM      3  H   UNL     1       1.116  -1.145  -4.258  0.00  0.00    +0.191 HD
ATOM      4  C   UNL     1       2.246  -1.320  -2.515  0.00  0.00    +0.156 A 
ATOM      5  N   UNL     1       1.186  -1.018  -3.299  0.00  0.00    -0.258 N 
ATOM      6  N   UNL     1       0.205  -0.488  -2.445  0.00  0.00    -0.155 NA
ENDROOT
BRANCH   4   7
ATOM      7  C   UNL     1       3.525  -1.911  -2.969  0.00  0.00    +0.019 A 
ATOM      8  C   UNL     1       4.538  -2.178  -2.048  0.00  0.00    +0.013 A 
ATOM      9  C   UNL     1       5.728  -2.730  -2.476  0.00  0.00    +0.021 A 
ATOM     10  C   UNL     1       5.918  -3.017  -3.817  0.00  0.00    +0.041 A 
ATOM     11  C   UNL     1       4.916  -2.754  -4.735  0.00  0.00    +0.021 A 
ATOM     12  C   UNL     1       3.720  -2.209  -4.318  0.00  0.00    +0.013 A 
ATOM     13 CL   UNL     1       7.418  -3.710  -4.348  0.00  0.00    -0.084 Cl
ENDBRANCH   4   7
BRANCH   1  15
ATOM     14  C   UNL     1      -0.019   1.526   0.010  0.00  0.00    +0.036 C 
ATOM     15  C   UNL     1       0.002  -0.004   0.002  0.00  0.00    +0.141 C 
BRANCH  15  16
ATOM     16  N   UNL     1      -1.372  -0.511   0.012  0.00  0.00    -0.290 N 
ATOM     17  C   UNL     1      -2.029  -0.655   1.181  0.00  0.00    +0.303 C 
ATOM     18  O   UNL     1      -1.480  -0.364   2.226  0.00  0.00    -0.253 OA
ATOM     19  N   UNL     1      -3.293  -1.122   1.190  0.00  0.00    -0.286 N 
ATOM     20  C   UNL     1      -4.070  -1.516   0.006  0.00  0.00    +0.109 C 
ATOM     21  C   UNL     1      -5.464  -1.958   0.499  0.00  0.00    +0.020 C 
ATOM     22  C   UNL     1      -5.585  -1.254   1.876  0.00  0.00    +0.020 C 
ATOM     23  C   UNL     1      -4.124  -1.328   2.391  0.00  0.00    +0.109 C 
ATOM     24  H   UNL     1      -1.810  -0.743  -0.822  0.00  0.00    +0.151 HD
ENDBRANCH  15  16
ENDBRANCH   1  15
TORSDOF 3
