REMARK  Name = ZINC59776530
REMARK  10 active torsions:
REMARK  status: ('A' for Active; 'I' for Inactive)
REMARK    1  A    between atoms: C_1  and  C_2
REMARK    2  A    between atoms: C_5  and  C_7
REMARK    3  A    between atoms: C_7  and  S_8
REMARK    4  A    between atoms: S_8  and  C_9
REMARK    5  A    between atoms: C_15  and  C_17
REMARK    6  A    between atoms: C_17  and  S_18
REMARK    7  A    between atoms: S_18  and  C_19
REMARK    8  A    between atoms: C_22  and  C_27
REMARK    9  A    between atoms: N_23  and  C_24
REMARK   10  A    between atoms: C_24  and  C_25
REMARK                            x       y       z     vdW  Elec       q    Type
REMARK                         _______ _______ _______ _____ _____    ______ ____
ROOT
ATOM      1  C   UNL     1       2.140  -5.983   2.092  0.00  0.00    +0.160 A 
ATOM      2  N   UNL     1       1.099  -6.315   2.842  0.00  0.00    -0.133 NA
ATOM      3  N   UNL     1       1.102  -7.346   3.568  0.00  0.00    -0.125 NA
ATOM      4  C   UNL     1       2.144  -8.159   3.627  0.00  0.00    +0.189 A 
ATOM      5  S   UNL     1       3.249  -7.333   2.486  0.00  0.00    -0.024 S 
ATOM      6  N   UNL     1       2.326  -9.328   4.362  0.00  0.00    -0.263 N 
ATOM      7  C   UNL     1       1.344  -9.779   5.167  0.00  0.00    +0.229 C 
ATOM      8  O   UNL     1       0.300  -9.167   5.251  0.00  0.00    -0.275 OA
ATOM      9  H   UNL     1       3.161  -9.818   4.296  0.00  0.00    +0.157 HD
ENDROOT
BRANCH   1  10
ATOM     10  S   UNL     1       2.366  -4.610   1.011  0.00  0.00    -0.087 S 
BRANCH  10  11
ATOM     11  C   UNL     1       0.810  -3.687   1.143  0.00  0.00    +0.174 C 
BRANCH  11  16
ATOM     12  C   UNL     1       1.561   0.981  -0.588  0.00  0.00    +0.111 C 
ATOM     13  C   UNL     1       1.191  -0.476  -0.484  0.00  0.00    +0.214 A 
ATOM     14  N   UNL     1       0.694  -1.215  -1.435  0.00  0.00    -0.113 NA
ATOM     15  N   UNL     1       0.502  -2.408  -0.993  0.00  0.00    -0.112 NA
ATOM     16  C   UNL     1       0.871  -2.471   0.255  0.00  0.00    +0.227 A 
ATOM     17  O   UNL     1       1.319  -1.254   0.604  0.00  0.00    -0.424 OA
ENDBRANCH  11  16
ENDBRANCH  10  11
ENDBRANCH   1  10
BRANCH   7  18
ATOM     18  C   UNL     1       1.541 -11.043   5.963  0.00  0.00    +0.173 C 
BRANCH  18  19
ATOM     19  S   UNL     1       0.051 -11.383   6.939  0.00  0.00    -0.077 S 
BRANCH  19  20
ATOM     20  C   UNL     1       0.435 -12.871   7.801  0.00  0.00    +0.193 A 
ATOM     21  N   UNL     1       1.561 -13.545   7.728  0.00  0.00    -0.122 NA
ATOM     22  N   UNL     1       1.504 -14.582   8.486  0.00  0.00    -0.128 NA
ATOM     23  C   UNL     1       0.339 -14.633   9.088  0.00  0.00    +0.165 A 
ATOM     24  N   UNL     1      -0.379 -13.536   8.673  0.00  0.00    -0.298 N 
BRANCH  23  25
ATOM     25  C   UNL     1      -0.113 -15.671  10.039  0.00  0.00    +0.019 A 
ATOM     26  C   UNL     1      -1.458 -16.043  10.083  0.00  0.00    +0.011 A 
ATOM     27  C   UNL     1      -1.873 -17.012  10.973  0.00  0.00    +0.001 A 
ATOM     28  C   UNL     1      -0.960 -17.615  11.820  0.00  0.00    +0.000 A 
ATOM     29  C   UNL     1       0.374 -17.250  11.782  0.00  0.00    +0.001 A 
ATOM     30  C   UNL     1       0.803 -16.286  10.893  0.00  0.00    +0.011 A 
ENDBRANCH  23  25
BRANCH  24  31
ATOM     31  C   UNL     1      -1.736 -13.160   9.079  0.00  0.00    +0.152 C 
BRANCH  31  32
ATOM     32  C   UNL     1      -2.722 -13.658   8.054  0.00  0.00    -0.013 C 
ATOM     33  C   UNL     1      -3.742 -14.390   8.429  0.00  0.00    +0.005 C 
ENDBRANCH  31  32
ENDBRANCH  24  31
ENDBRANCH  19  20
ENDBRANCH  18  19
ENDBRANCH   7  18
TORSDOF 9
