REMARK  Name = ZINC39960927
REMARK  6 active torsions:
REMARK  status: ('A' for Active; 'I' for Inactive)
REMARK    1  A    between atoms: C_1  and  O_2
REMARK    2  A    between atoms: O_2  and  C_3
REMARK    3  A    between atoms: C_3  and  C_4
REMARK    4  A    between atoms: C_8  and  S_10
REMARK    5  A    between atoms: S_10  and  C_11
REMARK    6  A    between atoms: C_13  and  C_23
REMARK                            x       y       z     vdW  Elec       q    Type
REMARK                         _______ _______ _______ _____ _____    ______ ____
ROOT
ATOM      1  C   UNL     1       1.591  -6.818  -2.694  0.00  0.00    +0.171 C 
ATOM      2  C   UNL     1       2.007  -7.707  -3.850  0.00  0.00    -0.009 C 
ATOM      3  C   UNL     1       3.010  -8.647  -3.599  0.00  0.00    +0.001 A 
ATOM      4  C   UNL     1       3.458  -9.514  -4.618  0.00  0.00    +0.010 A 
ATOM      5  C   UNL     1       4.435 -10.419  -4.346  0.00  0.00    +0.001 A 
ATOM      6  C   UNL     1       5.007 -10.510  -3.080  0.00  0.00    +0.002 A 
ATOM      7  C   UNL     1       4.616  -9.701  -2.056  0.00  0.00    +0.024 A 
ATOM      8  C   UNL     1       3.610  -8.742  -2.264  0.00  0.00    +0.041 A 
ATOM      9  N   UNL     1       3.228  -7.948  -1.257  0.00  0.00    -0.284 N 
ATOM     10  C   UNL     1       2.295  -7.024  -1.373  0.00  0.00    +0.235 C 
ATOM     11  O   UNL     1       1.999  -6.337  -0.412  0.00  0.00    -0.274 OA
ATOM     12  H   UNL     1       3.662  -8.058  -0.397  0.00  0.00    +0.155 HD
ENDROOT
BRANCH   2  13
ATOM     13  C   UNL     1       1.405  -7.589  -5.129  0.00  0.00    -0.020 A 
ATOM     14  C   UNL     1       2.171  -7.190  -6.237  0.00  0.00    +0.008 A 
ATOM     15  C   UNL     1       1.577  -7.079  -7.474  0.00  0.00    +0.001 A 
ATOM     16  C   UNL     1       0.229  -7.359  -7.628  0.00  0.00    +0.000 A 
ATOM     17  C   UNL     1      -0.535  -7.753  -6.542  0.00  0.00    +0.001 A 
ATOM     18  C   UNL     1       0.041  -7.877  -5.297  0.00  0.00    +0.008 A 
ENDBRANCH   2  13
BRANCH   1  19
ATOM     19  S   UNL     1       1.846  -5.094  -3.197  0.00  0.00    -0.068 S 
BRANCH  19  24
ATOM     20  C   UNL     1       0.562  -2.098  -1.021  0.00  0.00    +0.075 A 
ATOM     21  C   UNL     1      -0.036  -2.724   0.056  0.00  0.00    +0.097 A 
ATOM     22  C   UNL     1      -0.038  -4.118   0.100  0.00  0.00    +0.274 A 
ATOM     23  N   UNL     1       0.533  -4.794  -0.889  0.00  0.00    -0.183 NA
ATOM     24  C   UNL     1       1.098  -4.157  -1.905  0.00  0.00    +0.193 A 
ATOM     25  N   UNL     1       1.109  -2.834  -1.976  0.00  0.00    -0.224 NA
ATOM     26  O   UNL     1      -0.613  -4.772   1.137  0.00  0.00    -0.266 OA
BRANCH  20  27
ATOM     27  C   UNL     1       0.588  -0.594  -1.110  0.00  0.00    +0.215 C 
BRANCH  27  29
ATOM     28  C   UNL     1      -0.100   1.391   0.046  0.00  0.00    +0.194 C 
ATOM     29  O   UNL     1      -0.068  -0.038   0.032  0.00  0.00    -0.377 OA
ENDBRANCH  27  29
ENDBRANCH  20  27
ENDBRANCH  19  24
ENDBRANCH   1  19
TORSDOF 5
