REMARK  Name = ZINC21573535
REMARK  9 active torsions:
REMARK  status: ('A' for Active; 'I' for Inactive)
REMARK    1  A    between atoms: C_1  and  C_2
REMARK    2  A    between atoms: C_5  and  N_9
REMARK    3  A    between atoms: C_7  and  C_8
REMARK    4  A    between atoms: C_10  and  S_14
REMARK    5  A    between atoms: S_14  and  C_15
REMARK    6  A    between atoms: C_15  and  C_17
REMARK    7  A    between atoms: C_15  and  C_18
REMARK    8  A    between atoms: N_20  and  C_21
REMARK    9  A    between atoms: C_21  and  C_22
REMARK                            x       y       z     vdW  Elec       q    Type
REMARK                         _______ _______ _______ _____ _____    ______ ____
ROOT
ATOM      1  S   UNL     1      -1.529  -4.516  -2.292  0.00  0.00    -0.072 S 
ENDROOT
BRANCH   1   3
ATOM      2  N   UNL     1       0.057  -4.173  -0.021  0.00  0.00    -0.187 N 
ATOM      3  C   UNL     1      -0.550  -5.000  -0.908  0.00  0.00    +0.215 A 
ATOM      4  N   UNL     1      -0.271  -6.232  -0.540  0.00  0.00    -0.101 NA
ATOM      5  N   UNL     1       0.466  -6.231   0.511  0.00  0.00    -0.022 NA
ATOM      6  N   UNL     1       0.714  -5.023   0.886  0.00  0.00    -0.038 NA
BRANCH   2  11
ATOM      7  C   UNL     1      -0.018   1.503   0.010  0.00  0.00    +0.044 C 
ATOM      8  C   UNL     1       0.002  -0.004   0.002  0.00  0.00    -0.047 A 
ATOM      9  C   UNL     1       0.006  -0.688  -1.200  0.00  0.00    +0.006 A 
ATOM     10  C   UNL     1       0.024  -2.068  -1.211  0.00  0.00    +0.028 A 
ATOM     11  C   UNL     1       0.039  -2.771  -0.013  0.00  0.00    +0.070 A 
ATOM     12  C   UNL     1       0.036  -2.082   1.192  0.00  0.00    +0.031 A 
ATOM     13  C   UNL     1       0.023  -0.700   1.196  0.00  0.00    -0.046 A 
ATOM     14  C   UNL     1       0.026   0.048   2.504  0.00  0.00    +0.044 C 
ENDBRANCH   2  11
ENDBRANCH   1   3
BRANCH   1  15
ATOM     15  C   UNL     1      -2.030  -6.088  -3.046  0.00  0.00    +0.137 C 
ATOM     16  C   UNL     1      -0.794  -6.815  -3.579  0.00  0.00    +0.029 C 
BRANCH  15  17
ATOM     17  C   UNL     1      -2.983  -5.818  -4.182  0.00  0.00    +0.226 C 
ATOM     18  O   UNL     1      -2.957  -4.749  -4.754  0.00  0.00    -0.275 OA
ATOM     19  N   UNL     1      -3.863  -6.765  -4.563  0.00  0.00    -0.314 N 
ATOM     20  H   UNL     1      -3.883  -7.620  -4.105  0.00  0.00    +0.149 HD
BRANCH  19  21
ATOM     21  C   UNL     1      -4.789  -6.503  -5.667  0.00  0.00    +0.107 C 
BRANCH  21  22
ATOM     22  C   UNL     1      -5.673  -7.731  -5.894  0.00  0.00    +0.006 C 
ATOM     23  C   UNL     1      -4.807  -8.903  -6.361  0.00  0.00    +0.005 C 
ATOM     24  C   UNL     1      -5.691 -10.132  -6.587  0.00  0.00    +0.000 C 
ATOM     25  C   UNL     1      -6.740  -9.815  -7.655  0.00  0.00    +0.000 C 
ATOM     26  C   UNL     1      -7.605  -8.643  -7.189  0.00  0.00    +0.000 C 
ATOM     27  C   UNL     1      -6.722  -7.415  -6.962  0.00  0.00    +0.005 C 
ENDBRANCH  21  22
ENDBRANCH  19  21
ENDBRANCH  15  17
ENDBRANCH   1  15
TORSDOF 6
