REMARK  Name = ZINC38965654
REMARK  10 active torsions:
REMARK  status: ('A' for Active; 'I' for Inactive)
REMARK    1  A    between atoms: C_1  and  O_2
REMARK    2  A    between atoms: O_2  and  C_3
REMARK    3  A    between atoms: C_6  and  C_11
REMARK    4  A    between atoms: C_8  and  O_9
REMARK    5  A    between atoms: O_9  and  C_10
REMARK    6  A    between atoms: C_11  and  C_12
REMARK    7  A    between atoms: C_12  and  N_13
REMARK    8  A    between atoms: N_13  and  C_14
REMARK    9  A    between atoms: N_17  and  S_18
REMARK   10  A    between atoms: S_18  and  C_21
REMARK                            x       y       z     vdW  Elec       q    Type
REMARK                         _______ _______ _______ _____ _____    ______ ____
ROOT
ATOM      1  C   UNL     1       1.315  -3.727   7.659  0.00  0.00    +0.217 C 
ATOM      2  C   UNL     1       1.948  -3.228   8.938  0.00  0.00    +0.167 C 
ATOM      3  N   UNL     1       2.308  -1.984   9.055  0.00  0.00    -0.111 NA
ATOM      4  N   UNL     1       2.132  -4.089   9.952  0.00  0.00    -0.338 N 
ATOM      5  C   UNL     1       1.776  -5.353   9.859  0.00  0.00    +0.064 A 
ATOM      6  C   UNL     1       1.987  -6.234  10.950  0.00  0.00    +0.028 A 
ATOM      7  C   UNL     1       1.624  -7.532  10.859  0.00  0.00    +0.002 A 
ATOM      8  C   UNL     1       1.031  -8.077   9.708  0.00  0.00    +0.002 A 
ATOM      9  C   UNL     1       0.785  -7.325   8.612  0.00  0.00    +0.027 A 
ATOM     10  C   UNL     1       1.151  -5.901   8.630  0.00  0.00    +0.060 A 
ATOM     11  N   UNL     1       0.930  -5.146   7.591  0.00  0.00    -0.362 N 
ATOM     12  H   UNL     1       0.521  -5.511   6.791  0.00  0.00    +0.162 HD
ATOM     13  H   UNL     1       2.538  -3.771  10.774  0.00  0.00    +0.167 HD
ENDROOT
BRANCH   3  14
ATOM     14  S   UNL     1       3.000  -1.451  10.462  0.00  0.00    +0.107 S 
ATOM     15  O   UNL     1       1.999  -1.542  11.466  0.00  0.00    -0.146 OA
ATOM     16  O   UNL     1       4.253  -2.111  10.573  0.00  0.00    -0.146 OA
BRANCH  14  17
ATOM     17  C   UNL     1       3.349   0.263  10.253  0.00  0.00    +0.150 A 
ATOM     18  C   UNL     1       2.568   1.334  10.535  0.00  0.00    +0.037 A 
ATOM     19  C   UNL     1       3.055   2.604  10.287  0.00  0.00    +0.010 A 
ATOM     20  C   UNL     1       4.301   2.740   9.769  0.00  0.00    +0.047 A 
ATOM     21  S   UNL     1       4.828   1.041   9.623  0.00  0.00    -0.076 S 
ENDBRANCH  14  17
ENDBRANCH   3  14
BRANCH   1  22
ATOM     22  N   UNL     1       2.255  -3.465   6.561  0.00  0.00    -0.290 NA
ATOM     23  H   UNL     1       2.708  -4.315   6.262  0.00  0.00    +0.124 HD
BRANCH  22  24
ATOM     24  C   UNL     1       1.580  -2.804   5.436  0.00  0.00    +0.088 C 
BRANCH  24  25
ATOM     25  C   UNL     1       2.590  -2.548   4.315  0.00  0.00    +0.050 C 
BRANCH  25  29
ATOM     26  C   UNL     1       0.626  -0.619   1.042  0.00  0.00    +0.161 A 
ATOM     27  C   UNL     1       1.202   0.137   2.051  0.00  0.00    +0.049 A 
ATOM     28  C   UNL     1       1.836  -0.490   3.108  0.00  0.00    +0.007 A 
ATOM     29  C   UNL     1       1.897  -1.870   3.161  0.00  0.00    -0.042 A 
ATOM     30  C   UNL     1       1.325  -2.630   2.158  0.00  0.00    +0.053 A 
ATOM     31  C   UNL     1       0.683  -2.008   1.099  0.00  0.00    +0.162 A 
BRANCH  26  33
ATOM     32  C   UNL     1      -0.017   1.425   0.010  0.00  0.00    +0.277 C 
ATOM     33  O   UNL     1       0.002  -0.004   0.002  0.00  0.00    -0.491 OA
ENDBRANCH  26  33
BRANCH  31  34
ATOM     34  O   UNL     1       0.115  -2.754   0.114  0.00  0.00    -0.491 OA
ATOM     35  C   UNL     1       0.211  -4.174   0.238  0.00  0.00    +0.277 C 
ENDBRANCH  31  34
ENDBRANCH  25  29
ENDBRANCH  24  25
ENDBRANCH  22  24
ENDBRANCH   1  22
TORSDOF 8
