REMARK  Name = ZINC16671960
REMARK  8 active torsions:
REMARK  status: ('A' for Active; 'I' for Inactive)
REMARK    1  A    between atoms: C_1  and  C_2
REMARK    2  A    between atoms: C_5  and  N_8
REMARK    3  A    between atoms: C_12  and  N_13
REMARK    4  A    between atoms: N_13  and  C_14
REMARK    5  A    between atoms: C_17  and  S_20
REMARK    6  A    between atoms: S_20  and  N_23
REMARK    7  A    between atoms: N_23  and  C_24
REMARK    8  A    between atoms: C_30  and  C_32
REMARK                            x       y       z     vdW  Elec       q    Type
REMARK                         _______ _______ _______ _____ _____    ______ ____
ROOT
ATOM      1  N   UNL     1       3.463  -6.554   4.980  0.00  0.00    -0.320 N 
ATOM      2  H   UNL     1       3.862  -6.056   5.711  0.00  0.00    +0.152 HD
ENDROOT
BRANCH   1   7
ATOM      3  N   UNL     1       5.394  -2.996   3.726  0.00  0.00    -0.156 N 
ATOM      4  C   UNL     1       4.886  -4.023   4.437  0.00  0.00    +0.273 C 
ATOM      5  O   UNL     1       4.959  -4.188   5.643  0.00  0.00    -0.268 OA
ATOM      6  C   UNL     1       4.227  -4.903   3.464  0.00  0.00    +0.075 C 
ATOM      7  C   UNL     1       3.559  -6.089   3.716  0.00  0.00    +0.087 C 
ATOM      8  C   UNL     1       4.430  -4.249   2.162  0.00  0.00    +0.070 C 
ATOM      9  N   UNL     1       5.100  -3.158   2.373  0.00  0.00    -0.176 NA
ATOM     10  C   UNL     1       3.944  -4.752   0.828  0.00  0.00    +0.068 C 
BRANCH   3  15
ATOM     11  C   UNL     1       8.284   1.364   5.926  0.00  0.00    +0.044 C 
ATOM     12  C   UNL     1       7.516   0.206   5.342  0.00  0.00    -0.050 A 
ATOM     13  C   UNL     1       7.285   0.149   3.980  0.00  0.00    +0.005 A 
ATOM     14  C   UNL     1       6.582  -0.911   3.441  0.00  0.00    +0.026 A 
ATOM     15  C   UNL     1       6.108  -1.920   4.269  0.00  0.00    +0.060 A 
ATOM     16  C   UNL     1       6.342  -1.860   5.637  0.00  0.00    +0.026 A 
ATOM     17  C   UNL     1       7.051  -0.800   6.168  0.00  0.00    +0.005 A 
ENDBRANCH   3  15
ENDBRANCH   1   7
BRANCH   1  18
ATOM     18  C   UNL     1       2.790  -7.751   5.235  0.00  0.00    +0.031 A 
ATOM     19  C   UNL     1       2.223  -8.468   4.189  0.00  0.00    +0.025 A 
ATOM     20  C   UNL     1       1.558  -9.651   4.444  0.00  0.00    +0.030 A 
ATOM     21  C   UNL     1       1.456 -10.122   5.740  0.00  0.00    +0.109 A 
ATOM     22  C   UNL     1       2.018  -9.411   6.784  0.00  0.00    +0.030 A 
ATOM     23  C   UNL     1       2.690  -8.231   6.535  0.00  0.00    +0.025 A 
BRANCH  21  24
ATOM     24  S   UNL     1       0.606 -11.632   6.062  0.00  0.00    +0.072 S 
ATOM     25  O   UNL     1       0.070 -11.525   7.373  0.00  0.00    -0.150 OA
ATOM     26  O   UNL     1      -0.206 -11.891   4.925  0.00  0.00    -0.150 OA
BRANCH  24  27
ATOM     27  N   UNL     1       1.745 -12.834   6.113  0.00  0.00    -0.216 N 
ATOM     28  H   UNL     1       1.885 -13.335   6.931  0.00  0.00    +0.174 HD
BRANCH  27  29
ATOM     29  C   UNL     1       2.504 -13.125   4.977  0.00  0.00    +0.048 A 
ATOM     30  C   UNL     1       1.934 -13.819   3.918  0.00  0.00    +0.024 A 
ATOM     31  C   UNL     1       2.688 -14.105   2.796  0.00  0.00    +0.002 A 
ATOM     32  C   UNL     1       4.008 -13.701   2.727  0.00  0.00    +0.000 A 
ATOM     33  C   UNL     1       4.579 -13.010   3.780  0.00  0.00    +0.002 A 
ATOM     34  C   UNL     1       3.830 -12.716   4.902  0.00  0.00    +0.024 A 
ENDBRANCH  27  29
ENDBRANCH  24  27
ENDBRANCH  21  24
ENDBRANCH   1  18
TORSDOF 6
