REMARK  Name = ZINC21736308
REMARK  13 active torsions:
REMARK  status: ('A' for Active; 'I' for Inactive)
REMARK    1  A    between atoms: C_1  and  C_2
REMARK    2  A    between atoms: C_2  and  C_3
REMARK    3  A    between atoms: C_3  and  C_4
REMARK    4  A    between atoms: C_4  and  C_5
REMARK    5  A    between atoms: C_5  and  C_6
REMARK    6  A    between atoms: C_6  and  C_7
REMARK    7  A    between atoms: C_11  and  S_13
REMARK    8  A    between atoms: S_13  and  C_14
REMARK    9  A    between atoms: C_14  and  C_15
REMARK   10  A    between atoms: N_29  and  C_36
REMARK   11  A    between atoms: N_32  and  C_33
REMARK   12  A    between atoms: C_33  and  C_34
REMARK   13  A    between atoms: C_34  and  C_35
REMARK                            x       y       z     vdW  Elec       q    Type
REMARK                         _______ _______ _______ _____ _____    ______ ____
ROOT
ATOM      1  C   UNL     1      -3.792   3.096   4.686  0.00  0.00    +0.133 A 
ATOM      2  N   UNL     1      -2.490   2.880   4.658  0.00  0.00    -0.214 NA
ATOM      3  C   UNL     1      -1.902   2.453   3.549  0.00  0.00    +0.154 A 
ATOM      4  C   UNL     1      -2.691   2.234   2.404  0.00  0.00    +0.114 A 
ATOM      5  C   UNL     1      -4.071   2.477   2.478  0.00  0.00    +0.115 A 
ATOM      6  N   UNL     1      -4.570   2.905   3.640  0.00  0.00    -0.225 NA
ATOM      7  C   UNL     1      -2.034   1.767   1.179  0.00  0.00    +0.268 A 
ATOM      8  O   UNL     1      -2.673   1.568   0.163  0.00  0.00    -0.267 OA
ATOM      9  N   UNL     1      -0.698   1.558   1.213  0.00  0.00    -0.263 N 
ATOM     10  C   UNL     1       0.011   1.782   2.331  0.00  0.00    +0.333 A 
ATOM     11  O   UNL     1       1.210   1.583   2.308  0.00  0.00    -0.246 OA
ATOM     12  N   UNL     1      -0.547   2.215   3.475  0.00  0.00    -0.278 N 
ATOM     13  C   UNL     1      -0.013   1.086   0.008  0.00  0.00    +0.157 C 
ENDROOT
BRANCH   1  14
ATOM     14  C   UNL     1      -4.416   3.581   5.969  0.00  0.00    +0.076 C 
BRANCH  14  15
ATOM     15  C   UNL     1      -4.844   2.379   6.814  0.00  0.00    +0.008 C 
BRANCH  15  16
ATOM     16  C   UNL     1      -5.477   2.872   8.117  0.00  0.00    +0.000 C 
BRANCH  16  17
ATOM     17  C   UNL     1      -5.906   1.670   8.962  0.00  0.00    -0.000 C 
BRANCH  17  19
ATOM     18  C   UNL     1      -6.968   0.961  11.109  0.00  0.00    +0.004 C 
ATOM     19  C   UNL     1      -6.539   2.163  10.264  0.00  0.00    -0.003 C 
ENDBRANCH  17  19
ENDBRANCH  16  17
ENDBRANCH  15  16
ENDBRANCH  14  15
ENDBRANCH   1  14
BRANCH   5  20
ATOM     20  S   UNL     1      -5.113   2.222   1.081  0.00  0.00    -0.097 S 
BRANCH  20  21
ATOM     21  C   UNL     1      -6.711   2.691   1.792  0.00  0.00    +0.150 C 
BRANCH  21  22
ATOM     22  C   UNL     1      -7.787   2.547   0.747  0.00  0.00    +0.121 A 
ATOM     23  N   UNL     1      -9.066   2.849   1.093  0.00  0.00    -0.310 N 
ATOM     24  H   UNL     1      -9.294   3.185   2.115  0.00  0.00    +0.170 HD
ATOM     25  C   UNL     1     -10.068   2.742   0.189  0.00  0.00    +0.259 A 
ATOM     26  O   UNL     1     -11.217   3.013   0.484  0.00  0.00    -0.267 OA
ATOM     27  C   UNL     1      -9.714   2.279  -1.161  0.00  0.00    +0.065 A 
ATOM     28  C   UNL     1     -10.671   2.130  -2.163  0.00  0.00    +0.015 A 
ATOM     29  C   UNL     1     -10.285   1.692  -3.411  0.00  0.00    +0.001 A 
ATOM     30  C   UNL     1      -8.953   1.400  -3.676  0.00  0.00    +0.002 A 
ATOM     31  C   UNL     1      -7.992   1.542  -2.700  0.00  0.00    +0.028 A 
ATOM     32  C   UNL     1      -8.359   1.984  -1.428  0.00  0.00    +0.078 A 
ATOM     33  N   UNL     1      -7.445   2.137  -0.437  0.00  0.00    -0.233 NA
ENDBRANCH  21  22
ENDBRANCH  20  21
ENDBRANCH   5  20
BRANCH  12  34
ATOM     34  C   UNL     1       0.294   2.435   4.655  0.00  0.00    +0.128 C 
BRANCH  34  35
ATOM     35  C   UNL     1       0.805   3.877   4.654  0.00  0.00    +0.018 C 
ATOM     36  C   UNL     1       1.684   4.107   5.886  0.00  0.00    +0.005 C 
ENDBRANCH  34  35
ENDBRANCH  12  34
TORSDOF 10
