REMARK  Name = ZINC52533132
REMARK  4 active torsions:
REMARK  status: ('A' for Active; 'I' for Inactive)
REMARK    1  A    between atoms: C_10  and  C_12
REMARK    2  A    between atoms: C_12  and  N_13
REMARK    3  A    between atoms: C_14  and  C_16
REMARK    4  A    between atoms: C_16  and  N_17
REMARK                            x       y       z     vdW  Elec       q    Type
REMARK                         _______ _______ _______ _____ _____    ______ ____
ROOT
ATOM      1  N   UNL     1       4.827   1.450  -0.551  0.00  0.00    -0.316 N 
ATOM      2  C   UNL     1       5.528   2.318  -1.307  0.00  0.00    +0.196 C 
ATOM      3  O   UNL     1       6.029   1.949  -2.348  0.00  0.00    -0.278 OA
ATOM      4  H   UNL     1       4.426   1.745   0.281  0.00  0.00    +0.149 HD
ENDROOT
BRANCH   1   5
ATOM      5  C   UNL     1       4.671   0.060  -0.987  0.00  0.00    +0.112 C 
BRANCH   5  15
ATOM      6  C   UNL     1       3.210  -4.671  -1.405  0.00  0.00    +0.000 A 
ATOM      7  C   UNL     1       3.032  -3.560  -2.208  0.00  0.00    +0.000 A 
ATOM      8  C   UNL     1       3.280  -2.302  -1.701  0.00  0.00    +0.004 A 
ATOM      9  C   UNL     1       3.708  -2.142  -0.389  0.00  0.00    -0.040 A 
ATOM     10  C   UNL     1       3.890  -3.249   0.409  0.00  0.00    -0.044 A 
ATOM     11  C   UNL     1       3.636  -4.515  -0.103  0.00  0.00    +0.004 A 
ATOM     12  C   UNL     1       4.367  -3.151   1.834  0.00  0.00    +0.035 C 
ATOM     13  C   UNL     1       4.185  -1.731   2.366  0.00  0.00    +0.005 C 
ATOM     14  C   UNL     1       4.813  -0.755   1.365  0.00  0.00    +0.010 C 
ATOM     15  C   UNL     1       3.953  -0.739   0.103  0.00  0.00    +0.036 C 
ENDBRANCH   5  15
ENDBRANCH   1   5
BRANCH   2  16
ATOM     16  C   UNL     1       5.689   3.748  -0.859  0.00  0.00    +0.019 C 
BRANCH  16  17
ATOM     17  N   UNL     1       6.487   4.484  -1.847  0.00  0.00    +0.386 N 
ATOM     18  C   UNL     1       5.754   4.545  -3.118  0.00  0.00    -0.073 C 
ATOM     19  C   UNL     1       6.618   5.237  -4.176  0.00  0.00    +0.046 C 
ATOM     20  C   UNL     1       6.956   6.653  -3.704  0.00  0.00    +0.167 C 
ATOM     21  C   UNL     1       7.647   6.586  -2.340  0.00  0.00    +0.046 C 
ATOM     22  C   UNL     1       6.744   5.842  -1.353  0.00  0.00    -0.073 C 
ATOM     23  O   UNL     1       7.830   7.280  -4.655  0.00  0.00    -0.346 OA
ATOM     24  C   UNL     1       6.954   8.051  -5.511  0.00  0.00    +0.191 C 
ATOM     25  C   UNL     1       5.880   8.539  -4.505  0.00  0.00    +0.191 C 
ATOM     26  O   UNL     1       5.754   7.426  -3.598  0.00  0.00    -0.346 OA
ATOM     27  H   UNL     1       7.365   4.008  -1.991  0.00  0.00    -0.081 HD
ENDBRANCH  16  17
ENDBRANCH   2  16
TORSDOF 4
