REMARK  Name = ZINC16495552
REMARK  8 active torsions:
REMARK  status: ('A' for Active; 'I' for Inactive)
REMARK    1  A    between atoms: C_1  and  C_2
REMARK    2  A    between atoms: C_2  and  C_3
REMARK    3  A    between atoms: C_2  and  C_4
REMARK    4  A    between atoms: C_4  and  C_6
REMARK    5  A    between atoms: C_4  and  N_16
REMARK    6  A    between atoms: C_17  and  C_19
REMARK    7  A    between atoms: C_19  and  C_20
REMARK    8  A    between atoms: C_26  and  C_28
REMARK                            x       y       z     vdW  Elec       q    Type
REMARK                         _______ _______ _______ _____ _____    ______ ____
ROOT
ATOM      1  N   UNL     1      -0.675   1.545   3.712  0.00  0.00    -0.308 N 
ATOM      2  C   UNL     1      -0.401   2.768   4.207  0.00  0.00    +0.219 C 
ATOM      3  O   UNL     1       0.413   3.477   3.655  0.00  0.00    -0.275 OA
ATOM      4  H   UNL     1      -1.326   0.977   4.153  0.00  0.00    +0.149 HD
ENDROOT
BRANCH   1   5
ATOM      5  C   UNL     1       0.011   1.072   2.506  0.00  0.00    +0.106 C 
BRANCH   5   6
ATOM      6  C   UNL     1       0.032  -0.434   2.498  0.00  0.00    -0.023 A 
ATOM      7  C   UNL     1      -1.081  -1.142   2.915  0.00  0.00    +0.009 A 
ATOM      8  C   UNL     1      -1.066  -2.524   2.909  0.00  0.00    +0.050 A 
ATOM      9  C   UNL     1       0.066  -3.205   2.486  0.00  0.00    +0.162 A 
ATOM     10  C   UNL     1       1.184  -2.494   2.065  0.00  0.00    +0.162 A 
ATOM     11  C   UNL     1       1.160  -1.107   2.069  0.00  0.00    +0.055 A 
ATOM     12  O   UNL     1       2.303  -3.142   1.642  0.00  0.00    -0.485 OA
ATOM     13  C   UNL     1       2.423  -4.522   2.004  0.00  0.00    +0.270 C 
ATOM     14  C   UNL     1       1.083  -5.212   1.715  0.00  0.00    +0.270 C 
ATOM     15  O   UNL     1       0.069  -4.566   2.494  0.00  0.00    -0.485 OA
ENDBRANCH   5   6
BRANCH   5  17
ATOM     16  C   UNL     1      -0.013   1.086   0.008  0.00  0.00    +0.009 C 
ATOM     17  C   UNL     1      -0.729   1.579   1.267  0.00  0.00    +0.008 C 
ATOM     18  C   UNL     1      -2.164   1.050   1.278  0.00  0.00    +0.009 C 
ENDBRANCH   5  17
ENDBRANCH   1   5
BRANCH   2  19
ATOM     19  C   UNL     1      -1.106   3.254   5.447  0.00  0.00    +0.151 C 
BRANCH  19  20
ATOM     20  C   UNL     1      -0.624   4.640   5.788  0.00  0.00    +0.059 A 
ATOM     21  C   UNL     1      -1.501   5.664   5.930  0.00  0.00    +0.072 A 
ATOM     22  S   UNL     1      -0.385   7.005   6.320  0.00  0.00    -0.060 S 
ATOM     23  C   UNL     1       1.093   6.096   6.250  0.00  0.00    +0.165 A 
ATOM     24  N   UNL     1       0.661   4.886   5.951  0.00  0.00    -0.229 NA
ATOM     25  N   UNL     1       2.395   6.532   6.455  0.00  0.00    -0.258 N 
ATOM     26  C   UNL     1       2.634   7.825   6.755  0.00  0.00    +0.285 C 
ATOM     27  O   UNL     1       1.708   8.609   6.846  0.00  0.00    -0.266 OA
ATOM     28  H   UNL     1       3.133   5.907   6.383  0.00  0.00    +0.157 HD
BRANCH  26  29
ATOM     29  C   UNL     1       4.009   8.285   6.972  0.00  0.00    +0.189 A 
ATOM     30  C   UNL     1       4.389   9.560   7.280  0.00  0.00    +0.054 A 
ATOM     31  C   UNL     1       5.788   9.547   7.397  0.00  0.00    +0.042 A 
ATOM     32  C   UNL     1       6.195   8.280   7.159  0.00  0.00    +0.196 A 
ATOM     33  O   UNL     1       5.120   7.522   6.908  0.00  0.00    -0.458 OA
ENDBRANCH  26  29
ENDBRANCH  19  20
ENDBRANCH   2  19
TORSDOF 6
