REMARK  Name = ZINC12360329
REMARK  4 active torsions:
REMARK  status: ('A' for Active; 'I' for Inactive)
REMARK    1  A    between atoms: C_9  and  O_24
REMARK    2  A    between atoms: C_10  and  C_11
REMARK    3  A    between atoms: N_12  and  C_13
REMARK    4  A    between atoms: C_14  and  C_22
REMARK                            x       y       z     vdW  Elec       q    Type
REMARK                         _______ _______ _______ _____ _____    ______ ____
ROOT
ATOM      1  C   UNL     1       4.978   0.086  -0.045  0.00  0.00    +0.124 C 
ATOM      2  N   UNL     1       6.113  -0.568  -0.059  0.00  0.00    -0.246 NA
ENDROOT
BRANCH   1  12
ATOM      3  C   UNL     1      -0.016   1.358   0.009  0.00  0.00    +0.001 A 
ATOM      4  C   UNL     1       1.167   2.091   0.002  0.00  0.00    +0.001 A 
ATOM      5  C   UNL     1       2.379   1.464  -0.013  0.00  0.00    +0.009 A 
ATOM      6  C   UNL     1       2.434   0.066  -0.021  0.00  0.00    -0.006 A 
ATOM      7  C   UNL     1       1.232  -0.682  -0.013  0.00  0.00    -0.017 A 
ATOM      8  C   UNL     1       0.002  -0.004   0.002  0.00  0.00    +0.008 A 
ATOM      9  C   UNL     1       1.290  -2.088  -0.021  0.00  0.00    +0.012 A 
ATOM     10  C   UNL     1       2.485  -2.737  -0.035  0.00  0.00    +0.046 A 
ATOM     11  C   UNL     1       3.696  -2.046  -0.043  0.00  0.00    +0.126 A 
ATOM     12  C   UNL     1       3.712  -0.647  -0.036  0.00  0.00    +0.042 A 
BRANCH  11  13
ATOM     13  O   UNL     1       4.864  -2.734  -0.056  0.00  0.00    -0.506 OA
ATOM     14  H   UNL     1       5.195  -2.930  -0.943  0.00  0.00    +0.292 HD
ENDBRANCH  11  13
ENDBRANCH   1  12
BRANCH   2  15
ATOM     15  C   UNL     1       7.281   0.108  -0.067  0.00  0.00    +0.119 A 
ATOM     16  C   UNL     1       8.589  -0.389  -0.087  0.00  0.00    +0.088 A 
ATOM     17  C   UNL     1       9.656   0.527  -0.092  0.00  0.00    -0.018 A 
ATOM     18  C   UNL     1       9.334   1.845  -0.075  0.00  0.00    -0.004 A 
ATOM     19  S   UNL     1       7.561   1.872  -0.062  0.00  0.00    -0.073 S 
ATOM     20  C   UNL     1      10.273   3.010  -0.074  0.00  0.00    +0.043 C 
ATOM     21  C   UNL     1      11.678   2.501   0.277  0.00  0.00    +0.005 C 
ATOM     22  C   UNL     1      11.979   1.266  -0.578  0.00  0.00    +0.005 C 
ATOM     23  C   UNL     1      11.119   0.090  -0.115  0.00  0.00    +0.037 C 
BRANCH  16  24
ATOM     24  C   UNL     1       8.836  -1.799  -0.103  0.00  0.00    +0.102 C 
ATOM     25  N   UNL     1       9.032  -2.918  -0.116  0.00  0.00    -0.191 NA
ENDBRANCH  16  24
ENDBRANCH   2  15
TORSDOF 4
