REMARK  Name = ZINC64340189
REMARK  8 active torsions:
REMARK  status: ('A' for Active; 'I' for Inactive)
REMARK    1  A    between atoms: C_1  and  C_2
REMARK    2  A    between atoms: N_4  and  C_5
REMARK    3  A    between atoms: C_5  and  C_7
REMARK    4  A    between atoms: C_5  and  C_17
REMARK    5  A    between atoms: C_7  and  C_8
REMARK    6  A    between atoms: N_19  and  N_20
REMARK    7  A    between atoms: C_21  and  C_23
REMARK    8  A    between atoms: C_25  and  C_33
REMARK                            x       y       z     vdW  Elec       q    Type
REMARK                         _______ _______ _______ _____ _____    ______ ____
ROOT
ATOM      1  C   UNL     1       1.248  -2.636  -0.459  0.00  0.00    +0.250 C 
ATOM      2  O   UNL     1       1.838  -1.908   0.311  0.00  0.00    -0.272 OA
ATOM      3  N   UNL     1       1.704  -3.882  -0.692  0.00  0.00    -0.233 N 
ATOM      4  H   UNL     1       1.232  -4.465  -1.307  0.00  0.00    +0.173 HD
ENDROOT
BRANCH   3   5
ATOM      5  N   UNL     1       2.860  -4.337  -0.045  0.00  0.00    -0.230 N 
ATOM      6  C   UNL     1       3.317  -5.584  -0.278  0.00  0.00    +0.261 C 
ATOM      7  O   UNL     1       2.725  -6.313  -1.049  0.00  0.00    -0.269 OA
ATOM      8  H   UNL     1       3.333  -3.755   0.571  0.00  0.00    +0.173 HD
BRANCH   6   9
ATOM      9  C   UNL     1       4.537  -6.064   0.405  0.00  0.00    +0.049 A 
ATOM     10  C   UNL     1       5.299  -5.220   1.198  0.00  0.00    +0.042 A 
ATOM     11  C   UNL     1       6.452  -5.719   1.829  0.00  0.00    +0.079 A 
ATOM     12  N   UNL     1       6.841  -6.972   1.694  0.00  0.00    -0.246 NA
ATOM     13  C   UNL     1       6.167  -7.851   0.950  0.00  0.00    +0.072 A 
ATOM     14  C   UNL     1       4.986  -7.451   0.276  0.00  0.00    +0.013 A 
ATOM     15  C   UNL     1       4.280  -8.378  -0.499  0.00  0.00    +0.011 A 
ATOM     16  C   UNL     1       4.732  -9.661  -0.593  0.00  0.00    +0.001 A 
ATOM     17  C   UNL     1       5.889 -10.061   0.072  0.00  0.00    +0.002 A 
ATOM     18  C   UNL     1       6.606  -9.182   0.824  0.00  0.00    +0.028 A 
BRANCH  11  19
ATOM     19  C   UNL     1       7.254  -4.811   2.671  0.00  0.00    +0.038 A 
ATOM     20  C   UNL     1       8.404  -5.071   3.370  0.00  0.00    +0.017 A 
ATOM     21  C   UNL     1       8.982  -4.054   4.094  0.00  0.00    +0.008 A 
ATOM     22  C   UNL     1       8.399  -2.826   4.095  0.00  0.00    +0.046 A 
ATOM     23  S   UNL     1       6.983  -3.084   3.038  0.00  0.00    -0.095 S 
ENDBRANCH  11  19
ENDBRANCH   6   9
ENDBRANCH   3   5
BRANCH   1  24
ATOM     24  C   UNL     1       0.004  -2.146  -1.155  0.00  0.00    +0.164 C 
BRANCH  24  28
ATOM     25  C   UNL     1      -0.060   1.480   0.070  0.00  0.00    +0.109 C 
ATOM     26  C   UNL     1      -0.031  -0.026   0.046  0.00  0.00    +0.211 C 
ATOM     27  O   UNL     1      -0.014  -0.649   1.087  0.00  0.00    -0.276 OA
ATOM     28  N   UNL     1      -0.025  -0.682  -1.132  0.00  0.00    -0.304 N 
ATOM     29  H   UNL     1      -0.039  -0.184  -1.964  0.00  0.00    +0.149 HD
ENDBRANCH  24  28
BRANCH  24  30
ATOM     30  C   UNL     1      -1.231  -2.692  -0.435  0.00  0.00    +0.065 C 
BRANCH  30  31
ATOM     31  C   UNL     1      -2.471  -2.305  -1.201  0.00  0.00    -0.039 C 
ATOM     32  C   UNL     1      -3.127  -3.053  -2.117  0.00  0.00    -0.001 A 
ATOM     33  C   UNL     1      -2.891  -4.397  -2.656  0.00  0.00    +0.010 A 
ATOM     34  C   UNL     1      -3.740  -4.889  -3.587  0.00  0.00    +0.001 A 
ATOM     35  C   UNL     1      -4.836  -4.147  -4.050  0.00  0.00    +0.002 A 
ATOM     36  C   UNL     1      -5.117  -2.905  -3.602  0.00  0.00    +0.026 A 
ATOM     37  C   UNL     1      -4.291  -2.290  -2.622  0.00  0.00    +0.043 A 
ATOM     38  N   UNL     1      -4.353  -1.117  -2.040  0.00  0.00    -0.380 N 
ATOM     39  C   UNL     1      -3.236  -1.005  -1.095  0.00  0.00    +0.144 C 
ATOM     40  H   UNL     1      -5.026  -0.439  -2.204  0.00  0.00    +0.160 HD
ENDBRANCH  30  31
ENDBRANCH  24  30
ENDBRANCH   1  24
TORSDOF 7
