REMARK  Name = ZINC65133371
REMARK  9 active torsions:
REMARK  status: ('A' for Active; 'I' for Inactive)
REMARK    1  A    between atoms: C_1  and  C_2
REMARK    2  A    between atoms: C_2  and  C_3
REMARK    3  A    between atoms: C_2  and  C_4
REMARK    4  A    between atoms: C_4  and  C_5
REMARK    5  A    between atoms: C_5  and  N_6
REMARK    6  A    between atoms: N_9  and  N_10
REMARK    7  A    between atoms: C_11  and  C_13
REMARK    8  A    between atoms: C_13  and  N_19
REMARK    9  A    between atoms: C_20  and  C_22
REMARK                            x       y       z     vdW  Elec       q    Type
REMARK                         _______ _______ _______ _____ _____    ______ ____
ROOT
ATOM      1  N   UNL     1       4.072  -1.342  -4.732  0.00  0.00    -0.231 N 
ATOM      2  C   UNL     1       4.736  -1.874  -5.777  0.00  0.00    +0.253 C 
ATOM      3  O   UNL     1       5.919  -1.649  -5.921  0.00  0.00    -0.272 OA
ATOM      4  H   UNL     1       3.112  -1.460  -4.656  0.00  0.00    +0.173 HD
ENDROOT
BRANCH   1   8
ATOM      5  N   UNL     1       2.769  -0.249  -2.605  0.00  0.00    -0.298 N 
ATOM      6  C   UNL     1       4.103  -0.084  -2.711  0.00  0.00    +0.316 C 
ATOM      7  O   UNL     1       4.706   0.545  -1.863  0.00  0.00    -0.251 OA
ATOM      8  N   UNL     1       4.767  -0.617  -3.755  0.00  0.00    -0.218 N 
ATOM      9  H   UNL     1       2.288  -0.751  -3.281  0.00  0.00    +0.150 HD
ATOM     10  H   UNL     1       5.727  -0.498  -3.831  0.00  0.00    +0.174 HD
BRANCH   5  11
ATOM     11  C   UNL     1       2.047   0.329  -1.469  0.00  0.00    +0.106 C 
BRANCH  11  12
ATOM     12  C   UNL     1       0.558  -0.002  -1.589  0.00  0.00    +0.022 C 
BRANCH  12  14
ATOM     13  C   UNL     1      -0.114   2.128  -0.471  0.00  0.00    +0.007 C 
ATOM     14  C   UNL     1      -0.196   0.602  -0.403  0.00  0.00    -0.016 C 
ATOM     15  C   UNL     1      -1.662   0.167  -0.456  0.00  0.00    +0.007 C 
ENDBRANCH  12  14
ENDBRANCH  11  12
ENDBRANCH   5  11
ENDBRANCH   1   8
BRANCH   2  16
ATOM     16  C   UNL     1       4.009  -2.748  -6.766  0.00  0.00    +0.112 C 
ATOM     17  C   UNL     1       5.008  -3.679  -7.455  0.00  0.00    +0.035 C 
ATOM     18  C   UNL     1       4.270  -4.566  -8.459  0.00  0.00    +0.003 C 
ATOM     19  C   UNL     1       3.584  -3.688  -9.508  0.00  0.00    +0.000 C 
ATOM     20  C   UNL     1       2.585  -2.757  -8.819  0.00  0.00    +0.003 C 
ATOM     21  C   UNL     1       3.323  -1.870  -7.814  0.00  0.00    +0.035 C 
BRANCH  16  22
ATOM     22  N   UNL     1       3.001  -3.547  -6.063  0.00  0.00    -0.302 N 
ATOM     23  C   UNL     1       3.363  -4.326  -5.025  0.00  0.00    +0.211 C 
ATOM     24  O   UNL     1       4.535  -4.437  -4.730  0.00  0.00    -0.276 OA
ATOM     25  C   UNL     1       2.313  -5.060  -4.232  0.00  0.00    +0.109 C 
ATOM     26  H   UNL     1       2.074  -3.514  -6.345  0.00  0.00    +0.150 HD
ENDBRANCH  16  22
ENDBRANCH   2  16
TORSDOF 6
