REMARK  Name = ZINC01373739
REMARK  11 active torsions:
REMARK  status: ('A' for Active; 'I' for Inactive)
REMARK    1  A    between atoms: C_1  and  C_2
REMARK    2  A    between atoms: C_2  and  C_3
REMARK    3  A    between atoms: C_3  and  C_4
REMARK    4  A    between atoms: C_3  and  C_5
REMARK    5  A    between atoms: C_3  and  N_6
REMARK    6  A    between atoms: C_7  and  C_11
REMARK    7  A    between atoms: C_11  and  N_12
REMARK    8  A    between atoms: N_12  and  C_13
REMARK    9  A    between atoms: N_12  and  C_21
REMARK   10  A    between atoms: C_13  and  C_14
REMARK   11  A    between atoms: C_21  and  C_22
REMARK                            x       y       z     vdW  Elec       q    Type
REMARK                         _______ _______ _______ _____ _____    ______ ____
ROOT
ATOM      1  N   UNL     1       3.647  -2.172  -2.657  0.00  0.00    -0.287 NA
ENDROOT
BRANCH   1   2
ATOM      2  C   UNL     1       2.194  -2.373  -2.582  0.00  0.00    +0.163 C 
BRANCH   2   4
ATOM      3  N   UNL     1       1.438  -2.440  -0.147  0.00  0.00    -0.222 N 
ATOM      4  C   UNL     1       1.846  -3.044  -1.278  0.00  0.00    +0.166 A 
ATOM      5  N   UNL     1       1.882  -4.330  -1.026  0.00  0.00    -0.112 NA
ATOM      6  N   UNL     1       1.515  -4.506   0.196  0.00  0.00    -0.023 NA
ATOM      7  N   UNL     1       1.251  -3.366   0.732  0.00  0.00    -0.043 NA
BRANCH   3   8
ATOM      8  C   UNL     1       1.247  -1.001   0.051  0.00  0.00    +0.061 C 
ATOM      9  C   UNL     1       0.103  -0.511  -0.838  0.00  0.00    +0.036 C 
ATOM     10  C   UNL     1       2.534  -0.261  -0.320  0.00  0.00    +0.036 C 
BRANCH   8  12
ATOM     11  C   UNL     1       0.708   0.774   1.724  0.00  0.00    +0.006 C 
ATOM     12  C   UNL     1       0.907  -0.729   1.517  0.00  0.00    +0.026 C 
ENDBRANCH   8  12
ENDBRANCH   3   8
ENDBRANCH   2   4
ENDBRANCH   1   2
BRANCH   1  13
ATOM     13  C   UNL     1       4.353  -3.458  -2.727  0.00  0.00    +0.120 C 
BRANCH  13  14
ATOM     14  C   UNL     1       5.820  -3.241  -2.460  0.00  0.00    -0.033 A 
ATOM     15  C   UNL     1       6.702  -3.104  -3.517  0.00  0.00    +0.008 A 
ATOM     16  C   UNL     1       8.047  -2.904  -3.273  0.00  0.00    +0.038 A 
ATOM     17  C   UNL     1       8.513  -2.841  -1.971  0.00  0.00    +0.123 A 
ATOM     18  C   UNL     1       7.629  -2.978  -0.914  0.00  0.00    +0.038 A 
ATOM     19  C   UNL     1       6.283  -3.173  -1.159  0.00  0.00    +0.008 A 
ATOM     20  F   UNL     1       9.828  -2.646  -1.732  0.00  0.00    -0.205 F 
ENDBRANCH  13  14
ENDBRANCH   1  13
BRANCH   1  21
ATOM     21  C   UNL     1       4.002  -1.314  -3.796  0.00  0.00    +0.125 C 
BRANCH  21  22
ATOM     22  C   UNL     1       3.639   0.114  -3.480  0.00  0.00    +0.031 A 
ATOM     23  C   UNL     1       4.570   0.946  -2.949  0.00  0.00    +0.020 A 
ATOM     24  C   UNL     1       4.188   2.327  -2.655  0.00  0.00    +0.003 A 
ATOM     25  C   UNL     1       5.106   3.229  -2.105  0.00  0.00    +0.059 A 
ATOM     26  C   UNL     1       4.718   4.525  -1.839  0.00  0.00    +0.163 A 
ATOM     27  C   UNL     1       3.412   4.940  -2.118  0.00  0.00    +0.164 A 
ATOM     28  C   UNL     1       2.497   4.053  -2.659  0.00  0.00    +0.075 A 
ATOM     29  C   UNL     1       2.872   2.745  -2.932  0.00  0.00    +0.053 A 
ATOM     30  N   UNL     1       1.972   1.848  -3.472  0.00  0.00    -0.322 N 
ATOM     31  H   UNL     1       1.066   2.136  -3.663  0.00  0.00    +0.169 HD
ATOM     32  C   UNL     1       2.336   0.582  -3.744  0.00  0.00    +0.254 A 
ATOM     33  O   UNL     1       1.516  -0.181  -4.226  0.00  0.00    -0.268 OA
ATOM     34  O   UNL     1       3.023   6.219  -1.865  0.00  0.00    -0.485 OA
ATOM     35  C   UNL     1       3.848   6.981  -0.978  0.00  0.00    +0.270 C 
ATOM     36  C   UNL     1       5.312   6.785  -1.395  0.00  0.00    +0.270 C 
ATOM     37  O   UNL     1       5.622   5.391  -1.301  0.00  0.00    -0.485 OA
ENDBRANCH  21  22
ENDBRANCH   1  21
TORSDOF 8
