REMARK  Name = ZINC60274702
REMARK  9 active torsions:
REMARK  status: ('A' for Active; 'I' for Inactive)
REMARK    1  A    between atoms: C_1  and  C_2
REMARK    2  A    between atoms: C_2  and  C_3
REMARK    3  A    between atoms: C_3  and  C_4
REMARK    4  A    between atoms: C_4  and  N_5
REMARK    5  A    between atoms: C_7  and  C_11
REMARK    6  A    between atoms: C_8  and  C_10
REMARK    7  A    between atoms: C_12  and  C_13
REMARK    8  A    between atoms: C_19  and  C_22
REMARK    9  A    between atoms: C_22  and  N_23
REMARK                            x       y       z     vdW  Elec       q    Type
REMARK                         _______ _______ _______ _____ _____    ______ ____
ROOT
ATOM      1  C   UNL     1      -6.967  -4.838   3.359  0.00  0.00    +0.239 C 
ATOM      2  O   UNL     1      -8.099  -4.434   3.165  0.00  0.00    -0.271 OA
ATOM      3  N   UNL     1      -6.737  -5.764   4.311  0.00  0.00    -0.298 N 
ATOM      4  C   UNL     1      -5.365  -6.180   4.634  0.00  0.00    +0.108 C 
ATOM      5  C   UNL     1      -5.276  -7.706   4.533  0.00  0.00    +0.019 C 
ATOM      6  C   UNL     1      -6.349  -8.336   5.423  0.00  0.00    +0.008 C 
ATOM      7  C   UNL     1      -7.735  -7.900   4.940  0.00  0.00    +0.020 C 
ATOM      8  C   UNL     1      -7.852  -6.372   5.049  0.00  0.00    +0.112 C 
ENDROOT
BRANCH   1  10
ATOM      9  C   UNL     1      -6.136  -3.493   1.557  0.00  0.00    +0.018 C 
ATOM     10  C   UNL     1      -5.892  -4.336   2.584  0.00  0.00    +0.068 C 
BRANCH   9  13
ATOM     11  N   UNL     1      -3.112  -2.051   0.172  0.00  0.00    -0.252 N 
ATOM     12  C   UNL     1      -3.865  -2.384   1.236  0.00  0.00    +0.134 A 
ATOM     13  C   UNL     1      -5.022  -2.972   0.754  0.00  0.00    +0.034 A 
ATOM     14  C   UNL     1      -4.929  -2.976  -0.658  0.00  0.00    +0.069 A 
ATOM     15  N   UNL     1      -3.796  -2.423  -0.990  0.00  0.00    -0.175 NA
ATOM     16  C   UNL     1      -5.962  -3.519  -1.611  0.00  0.00    +0.068 C 
ATOM     17 CL   UNL     1      -3.460  -2.125   2.904  0.00  0.00    -0.062 Cl
BRANCH  11  18
ATOM     18  C   UNL     1      -1.800  -1.401   0.222  0.00  0.00    +0.145 C 
BRANCH  18  19
ATOM     19  C   UNL     1      -1.981   0.117   0.200  0.00  0.00    +0.023 C 
BRANCH  19  21
ATOM     20  C   UNL     1      -0.792   2.315   0.230  0.00  0.00    +0.004 C 
ATOM     21  C   UNL     1      -0.611   0.795   0.252  0.00  0.00    -0.002 C 
ENDBRANCH  19  21
ENDBRANCH  18  19
ENDBRANCH  11  18
ENDBRANCH   9  13
ENDBRANCH   1  10
BRANCH   7  22
ATOM     22  C   UNL     1      -8.809  -8.557   5.809  0.00  0.00    +0.089 C 
BRANCH  22  23
ATOM     23  N   UNL     1     -10.139  -8.197   5.300  0.00  0.00    -0.299 NA
ATOM     24  C   UNL     1     -11.187  -8.558   6.264  0.00  0.00    +0.103 C 
ATOM     25  C   UNL     1     -12.532  -8.005   5.782  0.00  0.00    +0.122 C 
ATOM     26  N   UNL     1     -12.764  -8.474   4.407  0.00  0.00    -0.314 N 
ATOM     27  C   UNL     1     -11.698  -8.270   3.413  0.00  0.00    +0.122 C 
ATOM     28  C   UNL     1     -10.386  -8.812   3.989  0.00  0.00    +0.103 C 
ATOM     29  C   UNL     1     -13.958  -9.093   4.056  0.00  0.00    +0.099 A 
ATOM     30  C   UNL     1     -15.005  -9.141   4.970  0.00  0.00    +0.042 A 
ATOM     31  C   UNL     1     -16.187  -9.759   4.608  0.00  0.00    +0.005 A 
ATOM     32  C   UNL     1     -16.283 -10.312   3.337  0.00  0.00    +0.018 A 
ATOM     33  C   UNL     1     -15.205 -10.229   2.480  0.00  0.00    +0.084 A 
ATOM     34  N   UNL     1     -14.090  -9.627   2.851  0.00  0.00    -0.350 N 
ATOM     35  H   UNL     1     -13.348  -9.579   2.228  0.00  0.00    +0.166 HD
ENDBRANCH  22  23
ENDBRANCH   7  22
TORSDOF 7
