REMARK  Name = ZINC34835409
REMARK  15 active torsions:
REMARK  status: ('A' for Active; 'I' for Inactive)
REMARK    1  A    between atoms: C_1  and  C_2
REMARK    2  A    between atoms: C_2  and  C_3
REMARK    3  A    between atoms: C_3  and  N_4
REMARK    4  A    between atoms: N_4  and  C_5
REMARK    5  A    between atoms: C_5  and  C_6
REMARK    6  A    between atoms: C_7  and  C_27
REMARK    7  A    between atoms: N_9  and  C_20
REMARK    8  A    between atoms: C_10  and  N_11
REMARK    9  A    between atoms: N_14  and  C_17
REMARK   10  A    between atoms: C_17  and  C_18
REMARK   11  A    between atoms: C_17  and  C_19
REMARK   12  A    between atoms: C_27  and  C_28
REMARK   13  A    between atoms: C_29  and  C_31
REMARK   14  A    between atoms: C_31  and  C_32
REMARK   15  A    between atoms: C_32  and  C_33
REMARK                            x       y       z     vdW  Elec       q    Type
REMARK                         _______ _______ _______ _____ _____    ______ ____
ROOT
ATOM      1  C   UNL     1      -2.475  -3.347   2.165  0.00  0.00    +0.033 A 
ATOM      2  C   UNL     1      -3.283  -2.347   2.715  0.00  0.00    +0.070 A 
ATOM      3  N   UNL     1      -4.472  -2.429   2.173  0.00  0.00    -0.169 NA
ATOM      4  N   UNL     1      -4.467  -3.486   1.254  0.00  0.00    -0.218 N 
ATOM      5  C   UNL     1      -3.223  -4.037   1.260  0.00  0.00    +0.130 A 
ENDROOT
BRANCH   5   6
ATOM      6  N   UNL     1      -2.794  -5.111   0.485  0.00  0.00    -0.318 N 
ATOM      7  C   UNL     1      -3.307  -6.469   0.725  0.00  0.00    +0.088 C 
ATOM      8  C   UNL     1      -3.785  -7.050  -0.610  0.00  0.00    -0.059 C 
ATOM      9  N   UNL     1      -2.697  -6.978  -1.593  0.00  0.00    +0.383 N 
ATOM     10  C   UNL     1      -2.365  -5.574  -1.869  0.00  0.00    -0.059 C 
ATOM     11  C   UNL     1      -1.820  -4.919  -0.601  0.00  0.00    +0.088 C 
ATOM     12  H   UNL     1      -1.883  -7.449  -1.226  0.00  0.00    -0.081 HD
BRANCH   9  13
ATOM     13  C   UNL     1      -3.119  -7.633  -2.837  0.00  0.00    -0.075 C 
ATOM     14  C   UNL     1      -1.985  -7.559  -3.863  0.00  0.00    -0.014 C 
ATOM     15  C   UNL     1      -3.454  -9.099  -2.553  0.00  0.00    -0.014 C 
ENDBRANCH   9  13
ENDBRANCH   5   6
BRANCH   4  16
ATOM     16  C   UNL     1      -5.550  -3.899   0.464  0.00  0.00    +0.068 A 
ATOM     17  C   UNL     1      -5.336  -4.336  -0.836  0.00  0.00    +0.030 A 
ATOM     18  C   UNL     1      -6.404  -4.743  -1.611  0.00  0.00    +0.040 A 
ATOM     19  C   UNL     1      -7.688  -4.714  -1.093  0.00  0.00    +0.124 A 
ATOM     20  C   UNL     1      -7.904  -4.278   0.203  0.00  0.00    +0.040 A 
ATOM     21  C   UNL     1      -6.838  -3.877   0.984  0.00  0.00    +0.030 A 
ATOM     22  F   UNL     1      -8.731  -5.112  -1.854  0.00  0.00    -0.205 F 
ENDBRANCH   4  16
BRANCH   2  23
ATOM     23  C   UNL     1      -2.858  -1.346   3.757  0.00  0.00    +0.054 C 
ATOM     24  C   UNL     1      -2.444  -0.041   3.073  0.00  0.00    +0.010 C 
ENDBRANCH   2  23
BRANCH   1  25
ATOM     25  C   UNL     1      -1.032  -3.609   2.507  0.00  0.00    +0.148 C 
BRANCH  25  26
ATOM     26  N   UNL     1      -0.948  -4.738   3.438  0.00  0.00    -0.297 N 
ATOM     27  C   UNL     1      -0.920  -4.516   4.767  0.00  0.00    +0.216 C 
ATOM     28  O   UNL     1      -1.030  -3.386   5.195  0.00  0.00    -0.276 OA
BRANCH  26  29
ATOM     29  C   UNL     1      -0.895  -6.109   2.923  0.00  0.00    +0.108 C 
BRANCH  29  31
ATOM     30  C   UNL     1       0.613  -7.919   2.091  0.00  0.00    +0.005 C 
ATOM     31  C   UNL     1       0.558  -6.487   2.629  0.00  0.00    +0.016 C 
ENDBRANCH  29  31
ENDBRANCH  26  29
BRANCH  27  32
ATOM     32  C   UNL     1      -0.754  -5.670   5.721  0.00  0.00    +0.096 C 
BRANCH  32  33
ATOM     33  C   UNL     1      -0.755  -5.148   7.159  0.00  0.00    +0.013 C 
BRANCH  33  34
ATOM     34  C   UNL     1      -0.585  -6.320   8.127  0.00  0.00    -0.011 C 
ATOM     35  C   UNL     1       0.850  -6.895   8.037  0.00  0.00    +0.003 C 
ATOM     36  C   UNL     1       1.030  -7.584   9.412  0.00  0.00    +0.000 C 
ATOM     37  C   UNL     1       0.319  -6.640  10.404  0.00  0.00    +0.000 C 
ATOM     38  C   UNL     1      -0.708  -5.837   9.587  0.00  0.00    +0.003 C 
ENDBRANCH  33  34
ENDBRANCH  32  33
ENDBRANCH  27  32
ENDBRANCH  25  26
ENDBRANCH   1  25
TORSDOF 11
