REMARK  Name = ZINC19832286
REMARK  3 active torsions:
REMARK  status: ('A' for Active; 'I' for Inactive)
REMARK    1  A    between atoms: C_1  and  N_2
REMARK    2  A    between atoms: C_6  and  C_7
REMARK    3  A    between atoms: C_12  and  C_13
REMARK                            x       y       z     vdW  Elec       q    Type
REMARK                         _______ _______ _______ _____ _____    ______ ____
ROOT
ATOM      1  C   UNL     1      -1.637   4.351  -0.001  0.00  0.00    +0.024 A 
ATOM      2  C   UNL     1      -3.049   4.205   0.104  0.00  0.00    -0.016 A 
ATOM      3  C   UNL     1      -3.791   5.354   0.081  0.00  0.00    +0.047 A 
ATOM      4  N   UNL     1      -3.211   6.555  -0.012  0.00  0.00    -0.236 NA
ATOM      5  C   UNL     1      -1.914   6.746  -0.102  0.00  0.00    +0.135 A 
ATOM      6  C   UNL     1      -1.063   5.630  -0.109  0.00  0.00    +0.101 A 
ATOM      7  N   UNL     1      -1.394   8.025  -0.186  0.00  0.00    -0.342 N 
ATOM      8  C   UNL     1      -5.297   5.431   0.148  0.00  0.00    +0.056 C 
ATOM      9  C   UNL     1      -5.831   5.129   1.534  0.00  0.00    +0.006 C 
ATOM     10  C   UNL     1      -4.965   4.158   2.322  0.00  0.00    +0.000 C 
ATOM     11  C   UNL     1      -5.380   2.788   1.831  0.00  0.00    +0.000 C 
ATOM     12  C   UNL     1      -4.970   2.541   0.378  0.00  0.00    +0.005 C 
ATOM     13  C   UNL     1      -3.469   2.759   0.238  0.00  0.00    +0.037 C 
ATOM     14  H   UNL     1      -0.306   8.173  -0.261  0.00  0.00    +0.144 HD
ATOM     15  H   UNL     1      -2.068   8.895  -0.179  0.00  0.00    +0.144 HD
ENDROOT
BRANCH   1  21
ATOM     16  C   UNL     1       0.616   3.775   2.044  0.00  0.00    +0.149 C 
ATOM     17  N   UNL     1       0.248   2.917   0.915  0.00  0.00    -0.350 N 
ATOM     18  C   UNL     1       0.839   1.736   0.590  0.00  0.00    +0.086 A 
ATOM     19  C   UNL     1       0.229   1.238  -0.510  0.00  0.00    +0.020 A 
ATOM     20  C   UNL     1      -0.773   2.143  -0.889  0.00  0.00    +0.028 A 
ATOM     21  C   UNL     1      -0.751   3.172   0.008  0.00  0.00    +0.050 A 
ENDBRANCH   1  21
BRANCH   6  22
ATOM     22  C   UNL     1       0.356   5.788  -0.224  0.00  0.00    +0.103 C 
ATOM     23  N   UNL     1       1.482   5.913  -0.316  0.00  0.00    -0.191 NA
ENDBRANCH   6  22
TORSDOF 2
