REMARK  Name = ZINC40990060
REMARK  5 active torsions:
REMARK  status: ('A' for Active; 'I' for Inactive)
REMARK    1  A    between atoms: C_4  and  N_15
REMARK    2  A    between atoms: C_7  and  O_11
REMARK    3  A    between atoms: O_11  and  C_12
REMARK    4  A    between atoms: C_16  and  C_18
REMARK    5  A    between atoms: C_20  and  C_23
REMARK                            x       y       z     vdW  Elec       q    Type
REMARK                         _______ _______ _______ _____ _____    ______ ____
ROOT
ATOM      1  N   UNL     1       3.675   3.408  -0.015  0.00  0.00    -0.280 N 
ATOM      2  C   UNL     1       4.868   4.027   0.080  0.00  0.00    +0.270 C 
ATOM      3  O   UNL     1       5.894   3.376   0.067  0.00  0.00    -0.268 OA
ATOM      4  H   UNL     1       2.861   3.931  -0.085  0.00  0.00    +0.155 HD
ENDROOT
BRANCH   1   8
ATOM      5  C   UNL     1       0.451   1.363  -1.786  0.00  0.00    +0.020 A 
ATOM      6  C   UNL     1       1.478   2.069  -1.223  0.00  0.00    +0.013 A 
ATOM      7  C   UNL     1       2.520   1.351  -0.611  0.00  0.00    +0.025 A 
ATOM      8  C   UNL     1       3.611   2.013  -0.010  0.00  0.00    +0.043 A 
ATOM      9  C   UNL     1       4.613   1.274   0.581  0.00  0.00    +0.027 A 
ATOM     10  C   UNL     1       4.560  -0.116   0.591  0.00  0.00    +0.050 A 
ATOM     11  C   UNL     1       3.508  -0.788   0.012  0.00  0.00    +0.153 A 
ATOM     12  C   UNL     1       2.465  -0.064  -0.601  0.00  0.00    +0.114 A 
ATOM     13  N   UNL     1       1.433  -0.694  -1.169  0.00  0.00    -0.251 NA
ATOM     14  C   UNL     1       0.459  -0.028  -1.741  0.00  0.00    +0.111 A 
BRANCH  11  15
ATOM     15  O   UNL     1       3.475  -2.147   0.032  0.00  0.00    -0.432 OA
BRANCH  15  16
ATOM     16  C   UNL     1       4.566  -2.814   0.670  0.00  0.00    +0.541 C 
ATOM     17  F   UNL     1       5.760  -2.477   0.025  0.00  0.00    -0.166 F 
ATOM     18  F   UNL     1       4.633  -2.421   2.011  0.00  0.00    -0.166 F 
ENDBRANCH  15  16
ENDBRANCH  11  15
ENDBRANCH   1   8
BRANCH   2  19
ATOM     19  C   UNL     1       4.929   5.505   0.199  0.00  0.00    +0.168 A 
ATOM     20  C   UNL     1       6.104   6.281   0.299  0.00  0.00    +0.086 A 
ATOM     21  C   UNL     1       5.735   7.587   0.389  0.00  0.00    +0.168 A 
ATOM     22  O   UNL     1       4.391   7.642   0.348  0.00  0.00    -0.354 OA
ATOM     23  N   UNL     1       3.901   6.319   0.223  0.00  0.00    -0.073 NA
BRANCH  21  24
ATOM     24  C   UNL     1       6.650   8.742   0.510  0.00  0.00    +0.020 A 
ATOM     25  C   UNL     1       8.032   8.546   0.535  0.00  0.00    +0.012 A 
ATOM     26  C   UNL     1       8.870   9.631   0.651  0.00  0.00    +0.004 A 
ATOM     27  C   UNL     1       8.357  10.920   0.743  0.00  0.00    -0.044 A 
ATOM     28  C   UNL     1       6.994  11.121   0.713  0.00  0.00    -0.044 A 
ATOM     29  C   UNL     1       6.140  10.035   0.595  0.00  0.00    +0.015 A 
ATOM     30  C   UNL     1       6.374  12.492   0.792  0.00  0.00    +0.035 C 
ATOM     31  C   UNL     1       7.379  13.505   1.336  0.00  0.00    +0.005 C 
ATOM     32  C   UNL     1       8.675  13.385   0.526  0.00  0.00    +0.005 C 
ATOM     33  C   UNL     1       9.339  12.055   0.876  0.00  0.00    +0.035 C 
ENDBRANCH  21  24
ENDBRANCH   2  19
TORSDOF 5
