REMARK  Name = ZINC13000638
REMARK  5 active torsions:
REMARK  status: ('A' for Active; 'I' for Inactive)
REMARK    1  A    between atoms: C_1  and  C_2
REMARK    2  A    between atoms: C_2  and  C_4
REMARK    3  A    between atoms: C_2  and  N_14
REMARK    4  A    between atoms: C_15  and  C_17
REMARK    5  A    between atoms: C_17  and  N_18
REMARK                            x       y       z     vdW  Elec       q    Type
REMARK                         _______ _______ _______ _____ _____    ______ ____
ROOT
ATOM      1  C   UNL     1      -2.784   3.515  -1.446  0.00  0.00    +0.213 C 
ENDROOT
BRANCH   1   2
ATOM      2  N   UNL     1      -1.785   2.798  -0.650  0.00  0.00    -0.215 N 
ATOM      3  C   UNL     1      -0.775   2.071  -1.175  0.00  0.00    +0.251 C 
ATOM      4  O   UNL     1      -0.528   1.893  -2.349  0.00  0.00    -0.272 OA
ATOM      5  C   UNL     1      -0.019   1.530   0.011  0.00  0.00    +0.138 C 
ATOM      6  C   UNL     1       0.002  -0.004   0.002  0.00  0.00    +0.045 C 
ATOM      7  C   UNL     1       1.363  -0.308  -0.665  0.00  0.00    +0.038 C 
ATOM      8  C   UNL     1       2.221   0.909  -0.389  0.00  0.00    -0.042 A 
ATOM      9  C   UNL     1       1.420   1.970  -0.001  0.00  0.00    -0.012 A 
ATOM     10  C   UNL     1       1.998   3.192   0.300  0.00  0.00    +0.006 A 
ATOM     11  C   UNL     1       3.367   3.355   0.217  0.00  0.00    +0.000 A 
ATOM     12  C   UNL     1       4.166   2.295  -0.169  0.00  0.00    +0.000 A 
ATOM     13  C   UNL     1       3.593   1.076  -0.472  0.00  0.00    +0.004 A 
ATOM     14  N   UNL     1      -0.738   2.048   1.175  0.00  0.00    -0.281 N 
ATOM     15  C   UNL     1      -1.760   2.782   0.689  0.00  0.00    +0.310 C 
ATOM     16  O   UNL     1      -2.566   3.363   1.388  0.00  0.00    -0.252 OA
ATOM     17  H   UNL     1      -0.522   1.895   2.108  0.00  0.00    +0.152 HD
ENDBRANCH   1   2
BRANCH   1  19
ATOM     18  N   UNL     1      -3.058   5.763  -2.441  0.00  0.00    -0.311 N 
ATOM     19  C   UNL     1      -2.298   4.914  -1.721  0.00  0.00    +0.231 C 
ATOM     20  O   UNL     1      -1.223   5.277  -1.293  0.00  0.00    -0.274 OA
ATOM     21  H   UNL     1      -3.918   5.472  -2.783  0.00  0.00    +0.149 HD
BRANCH  18  23
ATOM     22  C   UNL     1      -2.949   8.030  -1.530  0.00  0.00    +0.028 C 
ATOM     23  C   UNL     1      -2.585   7.123  -2.708  0.00  0.00    +0.076 C 
BRANCH  23  24
ATOM     24  C   UNL     1      -3.247   7.653  -3.982  0.00  0.00    -0.010 C 
ATOM     25  C   UNL     1      -2.883   6.746  -5.160  0.00  0.00    +0.012 C 
ATOM     26  C   UNL     1      -3.545   7.275  -6.434  0.00  0.00    -0.010 C 
ATOM     27  C   UNL     1      -3.051   8.696  -6.712  0.00  0.00    +0.007 C 
ATOM     28  C   UNL     1      -3.415   9.603  -5.535  0.00  0.00    -0.010 C 
ATOM     29  C   UNL     1      -2.753   9.074  -4.261  0.00  0.00    +0.012 C 
ATOM     30  C   UNL     1      -4.934   9.617  -5.352  0.00  0.00    +0.007 C 
ATOM     31  C   UNL     1      -5.428   8.196  -5.074  0.00  0.00    -0.010 C 
ATOM     32  C   UNL     1      -5.064   7.290  -6.251  0.00  0.00    +0.007 C 
ATOM     33  C   UNL     1      -4.766   7.667  -3.800  0.00  0.00    +0.012 C 
ENDBRANCH  23  24
ENDBRANCH  18  23
ENDBRANCH   1  19
TORSDOF 4
