REMARK  Name = ZINC21659863
REMARK  8 active torsions:
REMARK  status: ('A' for Active; 'I' for Inactive)
REMARK    1  A    between atoms: C_1  and  C_2
REMARK    2  A    between atoms: C_5  and  C_7
REMARK    3  A    between atoms: C_7  and  C_9
REMARK    4  A    between atoms: C_7  and  N_28
REMARK    5  A    between atoms: C_9  and  N_10
REMARK    6  A    between atoms: C_11  and  C_13
REMARK    7  A    between atoms: C_15  and  C_18
REMARK    8  A    between atoms: C_31  and  C_34
REMARK                            x       y       z     vdW  Elec       q    Type
REMARK                         _______ _______ _______ _____ _____    ______ ____
ROOT
ATOM      1  N   UNL     1      -5.389   4.349   3.083  0.00  0.00    -0.311 N 
ATOM      2  C   UNL     1      -5.915   5.555   2.791  0.00  0.00    +0.266 C 
ATOM      3  O   UNL     1      -5.251   6.377   2.190  0.00  0.00    -0.268 OA
ATOM      4  H   UNL     1      -5.990   3.605   3.627  0.00  0.00    +0.149 HD
ENDROOT
BRANCH   2   5
ATOM      5  C   UNL     1      -7.303   5.880   3.202  0.00  0.00    +0.168 A 
ATOM      6  C   UNL     1      -7.994   7.098   2.977  0.00  0.00    +0.086 A 
ATOM      7  C   UNL     1      -9.222   6.886   3.540  0.00  0.00    +0.168 A 
ATOM      8  O   UNL     1      -9.196   5.640   4.046  0.00  0.00    -0.354 OA
ATOM      9  N   UNL     1      -8.132   5.100   3.851  0.00  0.00    -0.073 NA
BRANCH   7  10
ATOM     10  C   UNL     1     -10.351   7.839   3.590  0.00  0.00    +0.020 A 
ATOM     11  C   UNL     1     -10.227   9.106   3.017  0.00  0.00    +0.012 A 
ATOM     12  C   UNL     1     -11.286   9.984   3.074  0.00  0.00    +0.004 A 
ATOM     13  C   UNL     1     -12.477   9.623   3.695  0.00  0.00    -0.044 A 
ATOM     14  C   UNL     1     -12.606   8.372   4.258  0.00  0.00    -0.044 A 
ATOM     15  C   UNL     1     -11.547   7.478   4.204  0.00  0.00    +0.015 A 
ATOM     16  C   UNL     1     -13.872   7.915   4.936  0.00  0.00    +0.035 C 
ATOM     17  C   UNL     1     -14.752   9.111   5.293  0.00  0.00    +0.005 C 
ATOM     18  C   UNL     1     -14.922   9.977   4.039  0.00  0.00    +0.005 C 
ATOM     19  C   UNL     1     -13.584  10.645   3.729  0.00  0.00    +0.035 C 
ENDBRANCH   7  10
ENDBRANCH   2   5
BRANCH   1  20
ATOM     20  C   UNL     1      -4.019   4.029   2.677  0.00  0.00    +0.097 C 
BRANCH  20  21
ATOM     21  C   UNL     1      -3.672   2.609   3.128  0.00  0.00    +0.016 C 
BRANCH  21  22
ATOM     22  N   UNL     1      -4.673   1.670   2.603  0.00  0.00    +0.387 N 
ATOM     23  C   UNL     1      -4.777   1.774   1.142  0.00  0.00    -0.078 C 
ATOM     24  C   UNL     1      -5.926   0.892   0.647  0.00  0.00    -0.015 C 
ATOM     25  C   UNL     1      -5.660  -0.559   1.056  0.00  0.00    -0.018 C 
ATOM     26  C   UNL     1      -5.507  -0.633   2.578  0.00  0.00    -0.015 C 
ATOM     27  C   UNL     1      -4.371   0.294   3.017  0.00  0.00    -0.078 C 
ATOM     28  C   UNL     1      -6.834  -1.437   0.617  0.00  0.00    +0.007 C 
ATOM     29  H   UNL     1      -5.650   1.942   3.030  0.00  0.00    -0.081 HD
ENDBRANCH  21  22
BRANCH  21  34
ATOM     30  C   UNL     1      -0.013   1.086   0.008  0.00  0.00    +0.086 C 
ATOM     31  C   UNL     1      -0.718   1.572   1.248  0.00  0.00    +0.102 A 
ATOM     32  C   UNL     1      -0.136   1.835   2.432  0.00  0.00    +0.044 A 
ATOM     33  C   UNL     1      -1.162   2.263   3.306  0.00  0.00    +0.043 A 
ATOM     34  C   UNL     1      -2.309   2.234   2.604  0.00  0.00    +0.093 A 
ATOM     35  O   UNL     1      -2.033   1.821   1.357  0.00  0.00    -0.466 OA
ENDBRANCH  21  34
ENDBRANCH  20  21
ENDBRANCH   1  20
TORSDOF 6
