REMARK  Name = ZINC02335798
REMARK  9 active torsions:
REMARK  status: ('A' for Active; 'I' for Inactive)
REMARK    1  A    between atoms: C_1  and  C_2
REMARK    2  A    between atoms: C_2  and  C_3
REMARK    3  A    between atoms: C_3  and  C_4
REMARK    4  A    between atoms: C_4  and  C_5
REMARK    5  A    between atoms: C_5  and  N_6
REMARK    6  A    between atoms: C_7  and  N_29
REMARK    7  A    between atoms: C_8  and  C_19
REMARK    8  A    between atoms: N_21  and  C_22
REMARK    9  A    between atoms: C_22  and  C_23
REMARK                            x       y       z     vdW  Elec       q    Type
REMARK                         _______ _______ _______ _____ _____    ______ ____
ROOT
ATOM      1  N   UNL     1      -1.339   2.989   0.030  0.00  0.00    -0.312 N 
ATOM      2  C   UNL     1      -1.207   1.635   0.017  0.00  0.00    +0.112 A 
ATOM      3  C   UNL     1      -2.457   1.025   0.020  0.00  0.00    +0.103 A 
ATOM      4  C   UNL     1      -3.451   2.111   0.030  0.00  0.00    +0.122 A 
ATOM      5  C   UNL     1      -2.670   3.351   0.033  0.00  0.00    +0.162 A 
ATOM      6  N   UNL     1      -3.296   4.509   0.040  0.00  0.00    -0.226 NA
ATOM      7  C   UNL     1      -4.634   4.544   0.047  0.00  0.00    +0.092 A 
ATOM      8  C   UNL     1      -5.311   5.778   0.055  0.00  0.00    +0.030 A 
ATOM      9  C   UNL     1      -6.671   5.804   0.062  0.00  0.00    +0.002 A 
ATOM     10  C   UNL     1      -7.411   4.623   0.060  0.00  0.00    +0.002 A 
ATOM     11  C   UNL     1      -6.793   3.411   0.052  0.00  0.00    +0.030 A 
ATOM     12  C   UNL     1      -5.387   3.343   0.045  0.00  0.00    +0.090 A 
ATOM     13  N   UNL     1      -4.768   2.157   0.036  0.00  0.00    -0.241 NA
ENDROOT
BRANCH   3  14
ATOM     14  C   UNL     1      -2.730  -0.410   0.014  0.00  0.00    +0.250 C 
ATOM     15  O   UNL     1      -2.838  -1.014   1.066  0.00  0.00    -0.270 OA
ATOM     16  N   UNL     1      -2.861  -1.067  -1.156  0.00  0.00    -0.309 N 
ATOM     17  H   UNL     1      -2.775  -0.586  -1.994  0.00  0.00    +0.149 HD
BRANCH  16  18
ATOM     18  C   UNL     1      -3.135  -2.506  -1.162  0.00  0.00    +0.136 C 
BRANCH  18  19
ATOM     19  C   UNL     1      -3.237  -2.999  -2.606  0.00  0.00    +0.135 C 
ATOM     20  C   UNL     1      -3.525  -4.513  -2.624  0.00  0.00    +0.035 C 
ATOM     21  C   UNL     1      -4.857  -4.638  -3.404  0.00  0.00    +0.031 C 
ATOM     22  C   UNL     1      -4.896  -3.305  -4.194  0.00  0.00    +0.160 C 
ATOM     23  O   UNL     1      -4.334  -2.348  -3.269  0.00  0.00    -0.375 OA
ENDBRANCH  18  19
ENDBRANCH  16  18
ENDBRANCH   3  14
BRANCH   2  24
ATOM     24  N   UNL     1      -0.011   0.966   0.007  0.00  0.00    -0.344 N 
ATOM     25  H   UNL     1       0.002  -0.004   0.002  0.00  0.00    +0.144 HD
ATOM     26  H   UNL     1       0.822   1.462   0.002  0.00  0.00    +0.144 HD
ENDBRANCH   2  24
BRANCH   1  27
ATOM     27  C   UNL     1      -0.219   3.934   0.037  0.00  0.00    +0.125 C 
BRANCH  27  28
ATOM     28  C   UNL     1       0.167   4.278  -1.403  0.00  0.00    +0.022 C 
BRANCH  28  29
ATOM     29  C   UNL     1       1.336   5.265  -1.396  0.00  0.00    +0.001 C 
BRANCH  29  31
ATOM     30  C   UNL     1       2.892   6.595  -2.829  0.00  0.00    +0.004 C 
ATOM     31  C   UNL     1       1.723   5.608  -2.836  0.00  0.00    -0.003 C 
ENDBRANCH  29  31
ENDBRANCH  28  29
ENDBRANCH  27  28
ENDBRANCH   1  27
TORSDOF 8
