REMARK  Name = ZINC51392229
REMARK  5 active torsions:
REMARK  status: ('A' for Active; 'I' for Inactive)
REMARK    1  A    between atoms: C_1  and  C_2
REMARK    2  A    between atoms: C_2  and  C_3
REMARK    3  A    between atoms: C_3  and  N_4
REMARK    4  A    between atoms: C_8  and  C_14
REMARK    5  A    between atoms: C_14  and  C_16
REMARK                            x       y       z     vdW  Elec       q    Type
REMARK                         _______ _______ _______ _____ _____    ______ ____
ROOT
ATOM      1  N   UNL     1      -1.413  -1.998   0.005  0.00  0.00    -0.274 N 
ATOM      2  C   UNL     1      -1.407  -2.817  -1.124  0.00  0.00    +0.090 A 
ATOM      3  C   UNL     1      -1.417  -2.560  -2.486  0.00  0.00    +0.030 A 
ATOM      4  C   UNL     1      -1.408  -3.610  -3.384  0.00  0.00    +0.007 A 
ATOM      5  C   UNL     1      -1.388  -4.916  -2.927  0.00  0.00    -0.031 A 
ATOM      6  C   UNL     1      -1.378  -5.180  -1.571  0.00  0.00    +0.053 A 
ATOM      7  C   UNL     1      -1.387  -4.133  -0.663  0.00  0.00    +0.157 A 
ATOM      8  O   UNL     1      -1.382  -4.084   0.692  0.00  0.00    -0.407 OA
ATOM      9  C   UNL     1      -1.392  -2.801   1.087  0.00  0.00    +0.421 A 
ATOM     10  O   UNL     1      -1.385  -2.422   2.243  0.00  0.00    -0.223 OA
ENDROOT
BRANCH   5  11
ATOM     11  C   UNL     1      -1.379  -6.056  -3.913  0.00  0.00    +0.083 C 
ATOM     12  C   UNL     1      -0.076  -6.026  -4.714  0.00  0.00    +0.024 C 
ATOM     13 BR   UNL     1      -2.906  -5.875  -5.137  0.00  0.00    -0.083 Br
ENDBRANCH   5  11
BRANCH   1  14
ATOM     14  C   UNL     1      -1.433  -0.534   0.013  0.00  0.00    +0.128 C 
BRANCH  14  16
ATOM     15  C   UNL     1      -0.019   1.526   0.010  0.00  0.00    +0.005 C 
ATOM     16  C   UNL     1       0.002  -0.004   0.002  0.00  0.00    +0.018 C 
ENDBRANCH  14  16
ENDBRANCH   1  14
TORSDOF 3
