REMARK  Name = ZINC35371963
REMARK  8 active torsions:
REMARK  status: ('A' for Active; 'I' for Inactive)
REMARK    1  A    between atoms: C_1  and  C_2
REMARK    2  A    between atoms: C_2  and  C_3
REMARK    3  A    between atoms: C_3  and  C_5
REMARK    4  A    between atoms: C_3  and  N_6
REMARK    5  A    between atoms: C_7  and  C_9
REMARK    6  A    between atoms: C_9  and  N_10
REMARK    7  A    between atoms: N_21  and  C_24
REMARK    8  A    between atoms: C_24  and  C_25
REMARK                            x       y       z     vdW  Elec       q    Type
REMARK                         _______ _______ _______ _____ _____    ______ ____
ROOT
ATOM      1  N   UNL     1      -5.587   0.404  -2.322  0.00  0.00    -0.325 N 
ATOM      2  C   UNL     1      -6.447  -0.660  -2.491  0.00  0.00    +0.052 A 
ATOM      3  C   UNL     1      -6.246  -1.981  -2.883  0.00  0.00    +0.026 A 
ATOM      4  C   UNL     1      -7.317  -2.843  -2.965  0.00  0.00    +0.002 A 
ATOM      5  C   UNL     1      -8.599  -2.408  -2.660  0.00  0.00    +0.001 A 
ATOM      6  C   UNL     1      -8.819  -1.116  -2.273  0.00  0.00    +0.012 A 
ATOM      7  C   UNL     1      -7.748  -0.226  -2.183  0.00  0.00    +0.026 A 
ATOM      8  C   UNL     1      -7.637   1.190  -1.809  0.00  0.00    +0.103 A 
ATOM      9  C   UNL     1      -6.288   1.521  -1.908  0.00  0.00    +0.134 A 
ATOM     10  C   UNL     1      -5.898   2.844  -1.594  0.00  0.00    +0.278 A 
ATOM     11  O   UNL     1      -4.729   3.184  -1.668  0.00  0.00    -0.265 OA
ATOM     12  N   UNL     1      -6.851   3.721  -1.210  0.00  0.00    -0.293 N 
ATOM     13  C   UNL     1      -8.149   3.335  -1.131  0.00  0.00    +0.203 A 
ATOM     14  N   UNL     1      -8.527   2.123  -1.423  0.00  0.00    -0.235 NA
ENDROOT
BRANCH   1  15
ATOM     15  C   UNL     1      -4.140   0.357  -2.544  0.00  0.00    +0.218 C 
BRANCH  15  17
ATOM     16  N   UNL     1      -2.105  -0.148  -1.230  0.00  0.00    -0.311 N 
ATOM     17  C   UNL     1      -3.448  -0.040  -1.265  0.00  0.00    +0.233 C 
ATOM     18  O   UNL     1      -4.100  -0.261  -0.267  0.00  0.00    -0.274 OA
ATOM     19  H   UNL     1      -1.584   0.029  -2.029  0.00  0.00    +0.149 HD
BRANCH  16  20
ATOM     20  C   UNL     1      -1.433  -0.534   0.013  0.00  0.00    +0.070 C 
ATOM     21  C   UNL     1      -1.413  -2.059   0.130  0.00  0.00    +0.028 C 
BRANCH  20  23
ATOM     22  C   UNL     1      -0.019   1.526   0.010  0.00  0.00    +0.005 C 
ATOM     23  C   UNL     1       0.002  -0.004   0.002  0.00  0.00    +0.018 C 
ENDBRANCH  20  23
ENDBRANCH  16  20
ENDBRANCH  15  17
ENDBRANCH   1  15
BRANCH  12  24
ATOM     24  C   UNL     1      -6.479   5.098  -0.878  0.00  0.00    +0.163 C 
BRANCH  24  25
ATOM     25  C   UNL     1      -6.548   5.951  -2.119  0.00  0.00    -0.009 A 
ATOM     26  C   UNL     1      -5.391   6.255  -2.813  0.00  0.00    +0.007 A 
ATOM     27  C   UNL     1      -5.454   7.037  -3.951  0.00  0.00    +0.000 A 
ATOM     28  C   UNL     1      -6.673   7.515  -4.396  0.00  0.00    +0.001 A 
ATOM     29  C   UNL     1      -7.829   7.212  -3.703  0.00  0.00    +0.020 A 
ATOM     30  C   UNL     1      -7.768   6.424  -2.566  0.00  0.00    +0.046 A 
ATOM     31 CL   UNL     1      -9.221   6.037  -1.699  0.00  0.00    -0.083 Cl
ENDBRANCH  24  25
ENDBRANCH  12  24
TORSDOF 6
