REMARK  Name = ZINC39537140
REMARK  6 active torsions:
REMARK  status: ('A' for Active; 'I' for Inactive)
REMARK    1  A    between atoms: C_1  and  C_2
REMARK    2  A    between atoms: C_4  and  C_30
REMARK    3  A    between atoms: C_6  and  N_8
REMARK    4  A    between atoms: C_14  and  N_19
REMARK    5  A    between atoms: N_19  and  C_20
REMARK    6  A    between atoms: C_20  and  C_21
REMARK                            x       y       z     vdW  Elec       q    Type
REMARK                         _______ _______ _______ _____ _____    ______ ____
ROOT
ATOM      1  N   UNL     1       0.052  -2.796   2.390  0.00  0.00    -0.247 N 
ATOM      2  C   UNL     1       0.148  -2.242   3.745  0.00  0.00    +0.120 C 
ATOM      3  C   UNL     1       1.369  -1.332   3.900  0.00  0.00    +0.028 C 
ATOM      4  C   UNL     1       1.590  -1.061   5.391  0.00  0.00    +0.001 C 
ATOM      5  C   UNL     1       1.961  -2.344   6.133  0.00  0.00    -0.011 C 
ATOM      6  C   UNL     1       0.791  -3.341   6.075  0.00  0.00    -0.041 C 
ATOM      7  C   UNL     1       0.370  -3.461   4.626  0.00  0.00    -0.047 C 
ATOM      8  C   UNL     1       0.228  -4.523   3.882  0.00  0.00    +0.087 C 
ATOM      9  N   UNL     1      -0.026  -4.189   2.560  0.00  0.00    -0.271 N 
ATOM     10  H   UNL     1      -0.226  -4.824   1.855  0.00  0.00    +0.169 HD
ENDROOT
BRANCH   1  16
ATOM     11  C   UNL     1      -0.154   1.498   0.009  0.00  0.00    +0.044 C 
ATOM     12  C   UNL     1      -0.063  -0.006   0.001  0.00  0.00    -0.048 A 
ATOM     13  C   UNL     1       0.006  -0.688  -1.200  0.00  0.00    +0.006 A 
ATOM     14  C   UNL     1       0.090  -2.068  -1.211  0.00  0.00    -0.048 A 
ATOM     15  C   UNL     1       0.105  -2.771  -0.022  0.00  0.00    +0.028 A 
ATOM     16  C   UNL     1       0.037  -2.089   1.186  0.00  0.00    +0.049 A 
ATOM     17  C   UNL     1      -0.042  -0.702   1.194  0.00  0.00    +0.028 A 
ATOM     18  C   UNL     1       0.163  -2.807  -2.523  0.00  0.00    +0.044 C 
ENDBRANCH   1  16
BRANCH   6  19
ATOM     19  N   UNL     1       1.220  -4.649   6.587  0.00  0.00    +0.388 N 
ATOM     20  H   UNL     1       0.473  -5.317   6.470  0.00  0.00    -0.084 HD
ATOM     21  H   UNL     1       2.033  -4.960   6.077  0.00  0.00    -0.084 HD
BRANCH  19  22
ATOM     22  C   UNL     1       1.552  -4.531   8.013  0.00  0.00    -0.006 C 
BRANCH  22  23
ATOM     23  C   UNL     1       1.992  -5.873   8.539  0.00  0.00    +0.091 A 
ATOM     24  N   UNL     1       1.192  -6.805   8.968  0.00  0.00    -0.234 NA
ATOM     25  C   UNL     1       1.916  -7.881   9.368  0.00  0.00    +0.089 A 
ATOM     26  C   UNL     1       1.577  -9.128   9.899  0.00  0.00    +0.030 A 
ATOM     27  C   UNL     1       2.559 -10.025  10.210  0.00  0.00    +0.002 A 
ATOM     28  C   UNL     1       3.894  -9.713  10.005  0.00  0.00    +0.002 A 
ATOM     29  C   UNL     1       4.253  -8.488   9.482  0.00  0.00    +0.028 A 
ATOM     30  C   UNL     1       3.269  -7.564   9.159  0.00  0.00    +0.066 A 
ATOM     31  N   UNL     1       3.284  -6.289   8.629  0.00  0.00    -0.343 N 
ATOM     32  H   UNL     1       4.071  -5.783   8.371  0.00  0.00    +0.167 HD
ENDBRANCH  22  23
ENDBRANCH  19  22
ENDBRANCH   6  19
TORSDOF 4
