REMARK  Name = ZINC36316015
REMARK  18 active torsions:
REMARK  status: ('A' for Active; 'I' for Inactive)
REMARK    1  A    between atoms: C_1  and  C_2
REMARK    2  A    between atoms: C_5  and  O_8
REMARK    3  A    between atoms: O_8  and  C_9
REMARK    4  A    between atoms: C_10  and  C_21
REMARK    5  A    between atoms: C_11  and  C_15
REMARK    6  A    between atoms: N_13  and  C_14
REMARK    7  A    between atoms: C_21  and  N_22
REMARK    8  A    between atoms: N_22  and  C_23
REMARK    9  A    between atoms: N_22  and  C_29
REMARK   10  A    between atoms: C_23  and  C_24
REMARK   11  A    between atoms: C_29  and  C_30
REMARK   12  A    between atoms: C_30  and  C_32
REMARK   13  A    between atoms: C_30  and  O_38
REMARK   14  A    between atoms: C_32  and  O_33
REMARK   15  A    between atoms: O_33  and  C_34
REMARK   16  A    between atoms: C_34  and  C_35
REMARK   17  A    between atoms: C_34  and  C_36
REMARK   18  A    between atoms: C_34  and  C_37
REMARK                            x       y       z     vdW  Elec       q    Type
REMARK                         _______ _______ _______ _____ _____    ______ ____
ROOT
ATOM      1  C   UNL     1       0.692  -4.559   1.207  0.00  0.00    +0.221 A 
ATOM      2  C   UNL     1       0.454  -5.888   1.349  0.00  0.00    +0.025 A 
ATOM      3  C   UNL     1       0.086  -6.119   2.688  0.00  0.00    +0.098 A 
ATOM      4  N   UNL     1       0.104  -4.965   3.322  0.00  0.00    -0.168 NA
ATOM      5  N   UNL     1       0.488  -3.971   2.413  0.00  0.00    -0.235 N 
ATOM      6  C   UNL     1       0.639  -2.545   2.712  0.00  0.00    +0.176 C 
ENDROOT
BRANCH   3   7
ATOM      7  C   UNL     1      -0.262  -7.434   3.282  0.00  0.00    +0.002 A 
ATOM      8  C   UNL     1      -1.084  -8.319   2.588  0.00  0.00    +0.010 A 
ATOM      9  C   UNL     1      -1.404  -9.540   3.144  0.00  0.00    +0.001 A 
ATOM     10  C   UNL     1      -0.911  -9.886   4.390  0.00  0.00    +0.000 A 
ATOM     11  C   UNL     1      -0.095  -9.011   5.084  0.00  0.00    +0.001 A 
ATOM     12  C   UNL     1       0.236  -7.789   4.534  0.00  0.00    +0.010 A 
ENDBRANCH   3   7
BRANCH   1  13
ATOM     13  O   UNL     1       1.071  -3.932   0.064  0.00  0.00    -0.438 OA
BRANCH  13  18
ATOM     14  C   UNL     1      -2.954  -1.751  -3.216  0.00  0.00    +0.044 C 
ATOM     15  C   UNL     1      -1.877  -2.334  -2.338  0.00  0.00    -0.050 A 
ATOM     16  C   UNL     1      -0.545  -2.122  -2.646  0.00  0.00    +0.007 A 
ATOM     17  C   UNL     1       0.444  -2.656  -1.843  0.00  0.00    +0.046 A 
ATOM     18  C   UNL     1       0.100  -3.406  -0.727  0.00  0.00    +0.130 A 
ATOM     19  C   UNL     1      -1.236  -3.617  -0.420  0.00  0.00    +0.046 A 
ATOM     20  C   UNL     1      -2.222  -3.076  -1.224  0.00  0.00    +0.007 A 
ENDBRANCH  13  18
ENDBRANCH   1  13
BRANCH   2  21
ATOM     21  C   UNL     1       0.565  -6.931   0.267  0.00  0.00    -0.035 C 
BRANCH  21  22
ATOM     22  N   UNL     1       1.965  -7.354   0.136  0.00  0.00    +0.389 N 
ATOM     23  H   UNL     1       2.548  -6.545  -0.018  0.00  0.00    -0.081 HD
BRANCH  22  24
ATOM     24  C   UNL     1       2.094  -8.274  -1.003  0.00  0.00    -0.003 C 
BRANCH  24  25
ATOM     25  C   UNL     1       1.766  -7.543  -2.279  0.00  0.00    +0.089 A 
ATOM     26  C   UNL     1       2.649  -6.916  -3.076  0.00  0.00    +0.042 A 
ATOM     27  C   UNL     1       1.914  -6.370  -4.153  0.00  0.00    +0.041 A 
ATOM     28  C   UNL     1       0.625  -6.697  -3.950  0.00  0.00    +0.195 A 
ATOM     29  O   UNL     1       0.542  -7.412  -2.817  0.00  0.00    -0.470 OA
ENDBRANCH  24  25
ENDBRANCH  22  24
BRANCH  22  30
ATOM     30  C   UNL     1       2.388  -8.036   1.366  0.00  0.00    -0.044 C 
BRANCH  30  31
ATOM     31  C   UNL     1       3.880  -8.366   1.279  0.00  0.00    +0.124 C 
BRANCH  31  32
ATOM     32  O   UNL     1       4.635  -7.153   1.240  0.00  0.00    -0.391 OA
ATOM     33  H   UNL     1       4.512  -6.588   2.015  0.00  0.00    +0.210 HD
ENDBRANCH  31  32
BRANCH  31  34
ATOM     34  C   UNL     1       4.293  -9.184   2.504  0.00  0.00    +0.189 C 
BRANCH  34  35
ATOM     35  O   UNL     1       5.656  -9.591   2.367  0.00  0.00    -0.372 OA
BRANCH  35  36
ATOM     36  C   UNL     1       6.144 -10.366   3.464  0.00  0.00    +0.061 C 
ATOM     37  C   UNL     1       5.305 -11.638   3.604  0.00  0.00    +0.041 C 
ATOM     38  C   UNL     1       7.605 -10.744   3.211  0.00  0.00    +0.041 C 
ATOM     39  C   UNL     1       6.045  -9.546   4.752  0.00  0.00    +0.041 C 
ENDBRANCH  35  36
ENDBRANCH  34  35
ENDBRANCH  31  34
ENDBRANCH  30  31
ENDBRANCH  22  30
ENDBRANCH  21  22
ENDBRANCH   2  21
TORSDOF 13
