REMARK  Name = ZINC35464938
REMARK  13 active torsions:
REMARK  status: ('A' for Active; 'I' for Inactive)
REMARK    1  A    between atoms: C_3  and  O_12
REMARK    2  A    between atoms: O_12  and  C_13
REMARK    3  A    between atoms: C_15  and  C_37
REMARK    4  A    between atoms: C_16  and  O_36
REMARK    5  A    between atoms: C_18  and  O_19
REMARK    6  A    between atoms: O_19  and  C_20
REMARK    7  A    between atoms: C_22  and  O_35
REMARK    8  A    between atoms: C_24  and  O_34
REMARK    9  A    between atoms: C_26  and  O_33
REMARK   10  A    between atoms: C_28  and  C_31
REMARK   11  A    between atoms: C_31  and  O_32
REMARK   12  A    between atoms: C_37  and  C_38
REMARK   13  A    between atoms: C_38  and  C_39
REMARK                            x       y       z     vdW  Elec       q    Type
REMARK                         _______ _______ _______ _____ _____    ______ ____
ROOT
ATOM      1  C   UNL     1       3.460   3.473  -0.118  0.00  0.00    +0.170 A 
ATOM      2  C   UNL     1       2.225   4.101  -0.095  0.00  0.00    +0.057 A 
ATOM      3  C   UNL     1       2.146   5.477  -0.194  0.00  0.00    -0.002 A 
ATOM      4  C   UNL     1       3.303   6.233  -0.316  0.00  0.00    +0.124 A 
ATOM      5  C   UNL     1       4.541   5.609  -0.340  0.00  0.00    +0.095 A 
ATOM      6  C   UNL     1       4.622   4.230  -0.235  0.00  0.00    +0.169 A 
ENDROOT
BRANCH   4   7
ATOM      7  O   UNL     1       3.223   7.587  -0.413  0.00  0.00    -0.506 OA
ATOM      8  H   UNL     1       3.249   8.045   0.439  0.00  0.00    +0.292 HD
ENDBRANCH   4   7
BRANCH   1   9
ATOM      9  O   UNL     1       3.537   2.119  -0.021  0.00  0.00    -0.452 OA
BRANCH   9  12
ATOM     10  C   UNL     1       0.440   0.661  -1.222  0.00  0.00    +0.015 A 
ATOM     11  C   UNL     1       1.608   1.368  -1.193  0.00  0.00    +0.047 A 
ATOM     12  C   UNL     1       2.378   1.412  -0.033  0.00  0.00    +0.132 A 
ATOM     13  C   UNL     1       1.971   0.741   1.109  0.00  0.00    +0.093 A 
ATOM     14  C   UNL     1       0.787   0.018   1.098  0.00  0.00    +0.143 A 
ATOM     15  C   UNL     1       0.014  -0.023  -0.078  0.00  0.00    +0.018 A 
ATOM     16  C   UNL     1      -1.234  -0.789  -0.079  0.00  0.00    +0.018 A 
ATOM     17  C   UNL     1      -1.594  -1.432   1.063  0.00  0.00    +0.092 A 
ATOM     18  C   UNL     1      -0.770  -1.347   2.204  0.00  0.00    +0.337 A 
ATOM     19  O   UNL     1      -1.105  -1.929   3.221  0.00  0.00    -0.245 OA
ATOM     20  O   UNL     1       0.372  -0.643   2.199  0.00  0.00    -0.422 OA
ENDBRANCH   9  12
ENDBRANCH   1   9
BRANCH   6  21
ATOM     21  O   UNL     1       5.835   3.616  -0.251  0.00  0.00    -0.457 OA
BRANCH  21  22
ATOM     22  C   UNL     1       6.986   4.456  -0.373  0.00  0.00    +0.339 C 
ATOM     23  C   UNL     1       8.224   3.591  -0.623  0.00  0.00    +0.214 C 
ATOM     24  C   UNL     1       9.461   4.493  -0.693  0.00  0.00    +0.180 C 
ATOM     25  C   UNL     1       9.566   5.298   0.606  0.00  0.00    +0.177 C 
ATOM     26  C   UNL     1       8.275   6.096   0.808  0.00  0.00    +0.179 C 
ATOM     27  O   UNL     1       7.162   5.201   0.833  0.00  0.00    -0.331 OA
BRANCH  25  28
ATOM     28  O   UNL     1       9.755   4.406   1.706  0.00  0.00    -0.386 OA
ATOM     29  H   UNL     1      10.553   3.865   1.641  0.00  0.00    +0.210 HD
ENDBRANCH  25  28
BRANCH  24  30
ATOM     30  O   UNL     1      10.630   3.688  -0.855  0.00  0.00    -0.386 OA
ATOM     31  H   UNL     1      10.627   3.147  -1.656  0.00  0.00    +0.210 HD
ENDBRANCH  24  30
BRANCH  23  32
ATOM     32  O   UNL     1       8.074   2.888  -1.858  0.00  0.00    -0.383 OA
ATOM     33  H   UNL     1       7.307   2.300  -1.885  0.00  0.00    +0.210 HD
ENDBRANCH  23  32
BRANCH  26  34
ATOM     34  C   UNL     1       8.349   6.857   2.134  0.00  0.00    +0.190 C 
BRANCH  34  35
ATOM     35  O   UNL     1       7.197   7.692   2.268  0.00  0.00    -0.392 OA
ATOM     36  H   UNL     1       7.176   8.205   3.088  0.00  0.00    +0.210 HD
ENDBRANCH  34  35
ENDBRANCH  26  34
ENDBRANCH  21  22
ENDBRANCH   6  21
BRANCH   3  37
ATOM     37  C   UNL     1       0.802   6.158  -0.169  0.00  0.00    +0.050 C 
BRANCH  37  38
ATOM     38  C   UNL     1       0.539   6.717   1.230  0.00  0.00    +0.130 C 
BRANCH  38  39
ATOM     39  C   UNL     1      -0.806   7.397   1.255  0.00  0.00    +0.356 C 
ATOM     40  O   UNL     1      -1.490   7.432   0.246  0.00  0.00    -0.246 OA
ATOM     41  O   UNL     1      -1.209   7.913   2.283  0.00  0.00    -0.246 OA
ENDBRANCH  38  39
ENDBRANCH  37  38
ENDBRANCH   3  37
TORSDOF 13
