REMARK  Name = ZINC39324343
REMARK  13 active torsions:
REMARK  status: ('A' for Active; 'I' for Inactive)
REMARK    1  A    between atoms: C_1  and  C_2
REMARK    2  A    between atoms: C_2  and  C_3
REMARK    3  A    between atoms: C_3  and  C_4
REMARK    4  A    between atoms: C_5  and  C_24
REMARK    5  A    between atoms: C_6  and  C_14
REMARK    6  A    between atoms: C_8  and  C_12
REMARK    7  A    between atoms: C_9  and  N_11
REMARK    8  A    between atoms: C_17  and  C_20
REMARK    9  A    between atoms: C_20  and  O_22
REMARK   10  A    between atoms: O_22  and  C_23
REMARK   11  A    between atoms: C_24  and  O_26
REMARK   12  A    between atoms: O_26  and  C_27
REMARK   13  A    between atoms: C_27  and  C_28
REMARK                            x       y       z     vdW  Elec       q    Type
REMARK                         _______ _______ _______ _____ _____    ______ ____
ROOT
ATOM      1  C   UNL     1      -1.512  -2.045   0.007  0.00  0.00    +0.118 C 
ATOM      2  C   UNL     1      -1.398  -2.697   1.172  0.00  0.00    +0.087 C 
ATOM      3  C   UNL     1      -1.267  -4.194   1.217  0.00  0.00    +0.105 C 
ATOM      4  C   UNL     1      -1.678  -4.786  -0.104  0.00  0.00    +0.098 C 
ATOM      5  C   UNL     1      -1.777  -4.010  -1.211  0.00  0.00    +0.198 C 
ATOM      6  O   UNL     1      -1.519  -2.691  -1.170  0.00  0.00    -0.445 OA
ENDROOT
BRANCH   3   7
ATOM      7  C   UNL     1       0.166  -4.562   1.504  0.00  0.00    -0.034 A 
ATOM      8  C   UNL     1       1.167  -4.157   0.639  0.00  0.00    +0.005 A 
ATOM      9  C   UNL     1       2.481  -4.490   0.895  0.00  0.00    +0.015 A 
ATOM     10  C   UNL     1       2.800  -5.238   2.030  0.00  0.00    +0.059 A 
ATOM     11  C   UNL     1       1.784  -5.644   2.899  0.00  0.00    +0.015 A 
ATOM     12  C   UNL     1       0.475  -5.299   2.633  0.00  0.00    +0.005 A 
BRANCH  10  13
ATOM     13  C   UNL     1       4.204  -5.599   2.311  0.00  0.00    +0.339 C 
ATOM     14  O   UNL     1       5.085  -5.245   1.554  0.00  0.00    -0.245 OA
BRANCH  13  15
ATOM     15  O   UNL     1       4.508  -6.322   3.407  0.00  0.00    -0.464 OA
ATOM     16  C   UNL     1       5.887  -6.635   3.616  0.00  0.00    +0.280 C 
ENDBRANCH  13  15
ENDBRANCH  10  13
ENDBRANCH   3   7
BRANCH   5  17
ATOM     17  N   UNL     1      -2.154  -4.582  -2.400  0.00  0.00    -0.328 N 
ATOM     18  H   UNL     1      -2.345  -5.532  -2.442  0.00  0.00    +0.145 HD
ATOM     19  H   UNL     1      -2.228  -4.037  -3.199  0.00  0.00    +0.145 HD
ENDBRANCH   5  17
BRANCH   4  20
ATOM     20  C   UNL     1      -1.967  -6.186  -0.193  0.00  0.00    +0.101 C 
ATOM     21  N   UNL     1      -2.196  -7.296  -0.264  0.00  0.00    -0.191 NA
ENDBRANCH   4  20
BRANCH   2  22
ATOM     22  C   UNL     1      -1.403  -1.962   2.383  0.00  0.00    +0.339 C 
ATOM     23  O   UNL     1      -0.353  -1.711   2.946  0.00  0.00    -0.245 OA
BRANCH  22  24
ATOM     24  O   UNL     1      -2.570  -1.541   2.913  0.00  0.00    -0.462 OA
BRANCH  24  25
ATOM     25  C   UNL     1      -2.499  -0.805   4.136  0.00  0.00    +0.229 C 
ATOM     26  C   UNL     1      -3.911  -0.415   4.579  0.00  0.00    +0.048 C 
ENDBRANCH  24  25
ENDBRANCH  22  24
ENDBRANCH   2  22
BRANCH   1  27
ATOM     27  C   UNL     1      -1.640  -0.544   0.018  0.00  0.00    +0.075 C 
BRANCH  27  29
ATOM     28  C   UNL     1      -0.384   1.612  -0.101  0.00  0.00    +0.004 C 
ATOM     29  C   UNL     1      -0.253   0.088  -0.113  0.00  0.00    +0.004 C 
ENDBRANCH  27  29
ENDBRANCH   1  27
TORSDOF 10
