REMARK  Name = ZINC39606950
REMARK  8 active torsions:
REMARK  status: ('A' for Active; 'I' for Inactive)
REMARK    1  A    between atoms: C_1  and  C_2
REMARK    2  A    between atoms: C_5  and  C_9
REMARK    3  A    between atoms: C_6  and  C_8
REMARK    4  A    between atoms: C_9  and  N_10
REMARK    5  A    between atoms: C_11  and  C_13
REMARK    6  A    between atoms: C_24  and  C_26
REMARK    7  A    between atoms: C_29  and  O_32
REMARK    8  A    between atoms: O_32  and  C_33
REMARK                            x       y       z     vdW  Elec       q    Type
REMARK                         _______ _______ _______ _____ _____    ______ ____
ROOT
ATOM      1  C   UNL     1      -2.440  -6.644   1.020  0.00  0.00    +0.100 C 
ATOM      2  C   UNL     1      -3.202  -6.269   2.312  0.00  0.00    +0.121 C 
ATOM      3  N   UNL     1      -3.994  -7.476   2.644  0.00  0.00    -0.296 N 
ATOM      4  C   UNL     1      -3.089  -8.608   2.331  0.00  0.00    +0.115 C 
ATOM      5  C   UNL     1      -2.368  -8.180   1.037  0.00  0.00    -0.004 C 
ATOM      6  C   UNL     1      -3.084  -8.756  -0.181  0.00  0.00    -0.010 C 
ATOM      7  C   UNL     1      -2.950 -10.281  -0.172  0.00  0.00    -0.082 C 
ATOM      8  N   UNL     1      -1.529 -10.649  -0.195  0.00  0.00    +0.379 N 
ATOM      9  C   UNL     1      -0.868 -10.171   1.025  0.00  0.00    -0.082 C 
ATOM     10  C   UNL     1      -0.914  -8.641   1.067  0.00  0.00    -0.010 C 
ATOM     11  C   UNL     1      -5.253  -7.532   3.122  0.00  0.00    +0.247 C 
ATOM     12  O   UNL     1      -5.916  -6.517   3.208  0.00  0.00    -0.270 OA
ATOM     13  H   UNL     1      -1.444 -11.653  -0.251  0.00  0.00    -0.086 HD
ATOM     14  H   UNL     1      -1.088 -10.232  -1.001  0.00  0.00    -0.086 HD
ENDROOT
BRANCH  11  15
ATOM     15  C   UNL     1      -5.825  -8.826   3.542  0.00  0.00    +0.037 A 
ATOM     16  C   UNL     1      -4.983  -9.894   3.864  0.00  0.00    +0.016 A 
ATOM     17  C   UNL     1      -5.521 -11.099   4.256  0.00  0.00    +0.047 A 
ATOM     18  C   UNL     1      -6.900 -11.255   4.331  0.00  0.00    +0.130 A 
ATOM     19  C   UNL     1      -7.741 -10.195   4.012  0.00  0.00    +0.047 A 
ATOM     20  C   UNL     1      -7.211  -8.985   3.625  0.00  0.00    +0.016 A 
BRANCH  18  21
ATOM     21  O   UNL     1      -7.427 -12.445   4.717  0.00  0.00    -0.406 OA
BRANCH  21  22
ATOM     22  C   UNL     1      -8.852 -12.536   4.773  0.00  0.00    +0.575 C 
ATOM     23  F   UNL     1      -9.385 -12.282   3.505  0.00  0.00    -0.133 F 
ATOM     24  F   UNL     1      -9.221 -13.821   5.186  0.00  0.00    -0.133 F 
ATOM     25  F   UNL     1      -9.344 -11.594   5.683  0.00  0.00    -0.133 F 
ENDBRANCH  21  22
ENDBRANCH  18  21
ENDBRANCH  11  15
BRANCH   1  27
ATOM     26  N   UNL     1      -0.450  -5.716  -0.119  0.00  0.00    -0.311 N 
ATOM     27  C   UNL     1      -1.054  -6.053   1.038  0.00  0.00    +0.218 C 
ATOM     28  O   UNL     1      -0.482  -5.881   2.093  0.00  0.00    -0.275 OA
ATOM     29  H   UNL     1      -0.908  -5.854  -0.963  0.00  0.00    +0.149 HD
BRANCH  26  30
ATOM     30  C   UNL     1       0.897  -5.142  -0.102  0.00  0.00    +0.139 C 
BRANCH  30  35
ATOM     31  C   UNL     1       2.591  -4.049  -5.517  0.00  0.00    +0.044 C 
ATOM     32  C   UNL     1       2.150  -4.334  -4.105  0.00  0.00    -0.050 A 
ATOM     33  C   UNL     1       2.591  -5.474  -3.459  0.00  0.00    +0.004 A 
ATOM     34  C   UNL     1       2.186  -5.736  -2.164  0.00  0.00    +0.006 A 
ATOM     35  C   UNL     1       1.340  -4.857  -1.514  0.00  0.00    -0.027 A 
ATOM     36  C   UNL     1       0.899  -3.717  -2.159  0.00  0.00    -0.046 A 
ATOM     37  C   UNL     1       1.308  -3.453  -3.453  0.00  0.00    +0.007 A 
ATOM     38  C   UNL     1      -0.024  -2.759  -1.450  0.00  0.00    +0.044 C 
ENDBRANCH  30  35
ENDBRANCH  26  30
ENDBRANCH   1  27
TORSDOF 6
