REMARK  Name = ZINC03302767
REMARK  11 active torsions:
REMARK  status: ('A' for Active; 'I' for Inactive)
REMARK    1  A    between atoms: C_1  and  C_2
REMARK    2  A    between atoms: C_2  and  O_3
REMARK    3  A    between atoms: O_3  and  C_4
REMARK    4  A    between atoms: C_4  and  C_5
REMARK    5  A    between atoms: C_5  and  N_6
REMARK    6  A    between atoms: C_7  and  C_27
REMARK    7  A    between atoms: C_10  and  S_11
REMARK    8  A    between atoms: S_11  and  C_12
REMARK    9  A    between atoms: C_12  and  C_13
REMARK   10  A    between atoms: N_15  and  C_16
REMARK   11  A    between atoms: C_18  and  C_23
REMARK                            x       y       z     vdW  Elec       q    Type
REMARK                         _______ _______ _______ _____ _____    ______ ____
ROOT
ATOM      1  N   UNL     1       1.409  -4.204   2.664  0.00  0.00    -0.300 N 
ATOM      2  C   UNL     1       0.606  -5.118   3.307  0.00  0.00    +0.165 A 
ATOM      3  N   UNL     1       1.117  -6.306   3.081  0.00  0.00    -0.128 NA
ATOM      4  N   UNL     1       2.169  -6.199   2.352  0.00  0.00    -0.122 NA
ATOM      5  C   UNL     1       2.392  -4.937   2.062  0.00  0.00    +0.192 A 
ENDROOT
BRANCH   2   6
ATOM      6  C   UNL     1      -0.605  -4.818   4.101  0.00  0.00    +0.019 A 
ATOM      7  C   UNL     1      -1.273  -3.604   3.929  0.00  0.00    +0.013 A 
ATOM      8  C   UNL     1      -2.401  -3.330   4.674  0.00  0.00    +0.021 A 
ATOM      9  C   UNL     1      -2.872  -4.256   5.590  0.00  0.00    +0.041 A 
ATOM     10  C   UNL     1      -2.213  -5.462   5.764  0.00  0.00    +0.021 A 
ATOM     11  C   UNL     1      -1.087  -5.750   5.022  0.00  0.00    +0.013 A 
ATOM     12 CL   UNL     1      -4.292  -3.904   6.523  0.00  0.00    -0.084 Cl
ENDBRANCH   2   6
BRANCH   1  13
ATOM     13  C   UNL     1       1.241  -2.749   2.627  0.00  0.00    +0.154 C 
BRANCH  13  14
ATOM     14  C   UNL     1       0.470  -2.357   1.364  0.00  0.00    +0.181 C 
BRANCH  14  15
ATOM     15  O   UNL     1       0.306  -0.938   1.328  0.00  0.00    -0.378 OA
BRANCH  15  17
ATOM     16  C   UNL     1      -0.520   1.060   0.249  0.00  0.00    +0.034 C 
ATOM     17  C   UNL     1      -0.405  -0.464   0.183  0.00  0.00    +0.156 C 
ENDBRANCH  15  17
ENDBRANCH  14  15
ENDBRANCH  13  14
ENDBRANCH   1  13
BRANCH   5  18
ATOM     18  S   UNL     1       3.715  -4.307   1.084  0.00  0.00    -0.077 S 
BRANCH  18  19
ATOM     19  C   UNL     1       4.645  -5.787   0.597  0.00  0.00    +0.173 C 
BRANCH  19  20
ATOM     20  C   UNL     1       5.820  -5.383  -0.256  0.00  0.00    +0.228 C 
ATOM     21  O   UNL     1       6.011  -4.213  -0.510  0.00  0.00    -0.275 OA
ATOM     22  N   UNL     1       6.658  -6.324  -0.735  0.00  0.00    -0.284 N 
ATOM     23  H   UNL     1       6.470  -7.263  -0.586  0.00  0.00    +0.155 HD
BRANCH  22  24
ATOM     24  C   UNL     1       7.801  -5.944  -1.449  0.00  0.00    +0.052 A 
ATOM     25  C   UNL     1       7.768  -4.825  -2.271  0.00  0.00    +0.037 A 
ATOM     26  C   UNL     1       8.897  -4.453  -2.974  0.00  0.00    +0.057 A 
ATOM     27  C   UNL     1      10.059  -5.193  -2.861  0.00  0.00    +0.014 A 
ATOM     28  C   UNL     1      10.097  -6.307  -2.044  0.00  0.00    +0.022 A 
ATOM     29  C   UNL     1       8.972  -6.682  -1.333  0.00  0.00    +0.062 A 
ATOM     30 CL   UNL     1       9.021  -8.078  -0.301  0.00  0.00    -0.082 Cl
BRANCH  26  31
ATOM     31  C   UNL     1       8.861  -3.239  -3.866  0.00  0.00    +0.417 C 
ATOM     32  F   UNL     1       9.231  -2.108  -3.130  0.00  0.00    -0.166 F 
ATOM     33  F   UNL     1       9.753  -3.415  -4.930  0.00  0.00    -0.166 F 
ATOM     34  F   UNL     1       7.566  -3.066  -4.367  0.00  0.00    -0.166 F 
ENDBRANCH  26  31
ENDBRANCH  22  24
ENDBRANCH  19  20
ENDBRANCH  18  19
ENDBRANCH   5  18
TORSDOF 10
