REMARK  Name = ZINC33936802
REMARK  10 active torsions:
REMARK  status: ('A' for Active; 'I' for Inactive)
REMARK    1  A    between atoms: C_1  and  C_2
REMARK    2  A    between atoms: C_9  and  C_14
REMARK    3  A    between atoms: C_14  and  C_16
REMARK    4  A    between atoms: C_14  and  N_28
REMARK    5  A    between atoms: N_20  and  C_21
REMARK    6  A    between atoms: C_21  and  C_22
REMARK    7  A    between atoms: N_28  and  C_29
REMARK    8  A    between atoms: N_28  and  C_36
REMARK    9  A    between atoms: C_29  and  C_30
REMARK   10  A    between atoms: C_36  and  C_37
REMARK                            x       y       z     vdW  Elec       q    Type
REMARK                         _______ _______ _______ _____ _____    ______ ____
ROOT
ATOM      1  C   UNL     1       0.927  -5.400   4.224  0.00  0.00    +0.163 C 
ENDROOT
BRANCH   1  10
ATOM      2  C   UNL     1       3.475   1.377   2.436  0.00  0.00    +0.044 C 
ATOM      3  C   UNL     1       3.160  -0.049   2.064  0.00  0.00    -0.050 A 
ATOM      4  C   UNL     1       3.410  -0.495   0.773  0.00  0.00    +0.005 A 
ATOM      5  C   UNL     1       3.131  -1.795   0.411  0.00  0.00    +0.026 A 
ATOM      6  C   UNL     1       2.592  -2.671   1.347  0.00  0.00    +0.049 A 
ATOM      7  C   UNL     1       2.340  -2.216   2.655  0.00  0.00    -0.001 A 
ATOM      8  C   UNL     1       2.637  -0.894   3.001  0.00  0.00    +0.013 A 
ATOM      9  C   UNL     1       1.773  -3.146   3.633  0.00  0.00    +0.021 A 
ATOM     10  C   UNL     1       1.511  -4.418   3.241  0.00  0.00    +0.042 A 
ATOM     11  C   UNL     1       1.782  -4.824   1.917  0.00  0.00    +0.254 A 
ATOM     12  O   UNL     1       1.539  -5.972   1.586  0.00  0.00    -0.268 OA
ATOM     13  N   UNL     1       2.303  -3.977   1.012  0.00  0.00    -0.322 N 
ATOM     14  H   UNL     1       2.477  -4.289   0.110  0.00  0.00    +0.169 HD
ENDBRANCH   1  10
BRANCH   1  15
ATOM     15  C   UNL     1       1.896  -6.535   4.434  0.00  0.00    +0.173 A 
ATOM     16  N   UNL     1       2.073  -7.569   3.648  0.00  0.00    -0.111 NA
ATOM     17  N   UNL     1       2.986  -8.314   4.170  0.00  0.00    -0.023 NA
ATOM     18  N   UNL     1       3.395  -7.783   5.268  0.00  0.00    -0.044 NA
ATOM     19  N   UNL     1       2.751  -6.682   5.463  0.00  0.00    -0.225 N 
BRANCH  19  20
ATOM     20  C   UNL     1       2.916  -5.766   6.594  0.00  0.00    +0.179 C 
BRANCH  20  21
ATOM     21  C   UNL     1       1.987  -6.188   7.734  0.00  0.00    +0.140 C 
ATOM     22  C   UNL     1       2.200  -5.277   8.968  0.00  0.00    +0.035 C 
ATOM     23  C   UNL     1       0.826  -5.416   9.678  0.00  0.00    +0.031 C 
ATOM     24  C   UNL     1      -0.146  -5.553   8.487  0.00  0.00    +0.160 C 
ATOM     25  O   UNL     1       0.614  -5.995   7.355  0.00  0.00    -0.375 OA
ENDBRANCH  20  21
ENDBRANCH  19  20
ENDBRANCH   1  15
BRANCH   1  26
ATOM     26  N   UNL     1      -0.338  -5.928   3.695  0.00  0.00    -0.280 NA
BRANCH  26  27
ATOM     27  C   UNL     1      -0.932  -6.899   4.624  0.00  0.00    +0.121 C 
BRANCH  27  28
ATOM     28  C   UNL     1      -0.275  -8.242   4.436  0.00  0.00    -0.033 A 
ATOM     29  C   UNL     1      -0.411  -8.915   3.236  0.00  0.00    +0.005 A 
ATOM     30  C   UNL     1       0.192 -10.147   3.063  0.00  0.00    +0.000 A 
ATOM     31  C   UNL     1       0.931 -10.705   4.090  0.00  0.00    +0.000 A 
ATOM     32  C   UNL     1       1.068 -10.031   5.288  0.00  0.00    +0.000 A 
ATOM     33  C   UNL     1       0.469  -8.797   5.460  0.00  0.00    +0.005 A 
ENDBRANCH  27  28
ENDBRANCH  26  27
BRANCH  26  34
ATOM     34  C   UNL     1      -1.279  -4.840   3.398  0.00  0.00    +0.128 C 
BRANCH  34  35
ATOM     35  C   UNL     1      -1.181  -4.476   1.939  0.00  0.00    +0.004 A 
ATOM     36  C   UNL     1      -1.634  -5.155   0.858  0.00  0.00    +0.012 A 
ATOM     37  C   UNL     1      -1.430  -4.624  -0.402  0.00  0.00    +0.008 A 
ATOM     38  C   UNL     1      -0.783  -3.438  -0.518  0.00  0.00    +0.045 A 
ATOM     39  S   UNL     1      -0.446  -3.033   1.187  0.00  0.00    -0.100 S 
ENDBRANCH  34  35
ENDBRANCH  26  34
ENDBRANCH   1  26
TORSDOF 9
