REMARK  Name = ZINC00496313
REMARK  4 active torsions:
REMARK  status: ('A' for Active; 'I' for Inactive)
REMARK    1  A    between atoms: C_1  and  C_2
REMARK    2  A    between atoms: C_13  and  C_21
REMARK    3  A    between atoms: C_15  and  C_19
REMARK    4  A    between atoms: C_16  and  N_18
REMARK                            x       y       z     vdW  Elec       q    Type
REMARK                         _______ _______ _______ _____ _____    ______ ____
ROOT
ATOM      1  C   UNL     1       4.204   0.755  -1.336  0.00  0.00    +0.113 C 
ATOM      2  C   UNL     1       3.460   0.830  -0.028  0.00  0.00    +0.229 C 
ATOM      3  O   UNL     1       4.072   0.941   1.012  0.00  0.00    -0.273 OA
ATOM      4  N   UNL     1       2.113   0.773  -0.015  0.00  0.00    -0.280 N 
ATOM      5  C   UNL     1       1.369  -0.381  -0.013  0.00  0.00    +0.060 A 
ATOM      6  C   UNL     1       1.737  -1.723  -0.023  0.00  0.00    +0.027 A 
ATOM      7  C   UNL     1       0.715  -2.657  -0.018  0.00  0.00    +0.002 A 
ATOM      8  C   UNL     1      -0.620  -2.290  -0.002  0.00  0.00    +0.001 A 
ATOM      9  C   UNL     1      -1.014  -0.964   0.008  0.00  0.00    +0.013 A 
ATOM     10  C   UNL     1       0.002  -0.004   0.003  0.00  0.00    +0.043 A 
ATOM     11  C   UNL     1      -0.018   1.447   0.009  0.00  0.00    +0.160 A 
ATOM     12  C   UNL     1       1.272   1.863  -0.001  0.00  0.00    +0.083 A 
ATOM     13  C   UNL     1       1.649   3.324   0.004  0.00  0.00    +0.122 C 
ATOM     14  C   UNL     1       0.413   4.136  -0.289  0.00  0.00    +0.100 C 
ATOM     15  C   UNL     1      -0.828   3.600  -0.262  0.00  0.00    +0.199 C 
ATOM     16  O   UNL     1      -1.071   2.305   0.018  0.00  0.00    -0.439 OA
ENDROOT
BRANCH  13  17
ATOM     17  C   UNL     1       2.194   3.702   1.357  0.00  0.00    +0.004 A 
ATOM     18  C   UNL     1       3.415   4.194   1.678  0.00  0.00    +0.012 A 
ATOM     19  C   UNL     1       3.699   4.473   3.002  0.00  0.00    +0.008 A 
ATOM     20  C   UNL     1       2.747   4.245   3.940  0.00  0.00    +0.045 A 
ATOM     21  S   UNL     1       1.395   3.625   2.952  0.00  0.00    -0.101 S 
ENDBRANCH  13  17
BRANCH  15  22
ATOM     22  N   UNL     1      -1.896   4.418  -0.538  0.00  0.00    -0.328 N 
ATOM     23  H   UNL     1      -1.750   5.354  -0.746  0.00  0.00    +0.145 HD
ATOM     24  H   UNL     1      -2.797   4.059  -0.526  0.00  0.00    +0.145 HD
ENDBRANCH  15  22
BRANCH  14  25
ATOM     25  C   UNL     1       0.559   5.525  -0.608  0.00  0.00    +0.101 C 
ATOM     26  N   UNL     1       0.675   6.627  -0.860  0.00  0.00    -0.191 NA
ENDBRANCH  14  25
TORSDOF 3
