REMARK  Name = ZINC47595777
REMARK  4 active torsions:
REMARK  status: ('A' for Active; 'I' for Inactive)
REMARK    1  A    between atoms: C_4  and  C_7
REMARK    2  A    between atoms: C_7  and  C_8
REMARK    3  A    between atoms: C_8  and  N_9
REMARK    4  A    between atoms: N_12  and  C_13
REMARK                            x       y       z     vdW  Elec       q    Type
REMARK                         _______ _______ _______ _____ _____    ______ ____
ROOT
ATOM      1  N   UNL     1       3.687  -2.457  -3.680  0.00  0.00    -0.299 N 
ATOM      2  C   UNL     1       3.915  -3.774  -3.853  0.00  0.00    +0.300 C 
ATOM      3  O   UNL     1       3.552  -4.570  -3.009  0.00  0.00    -0.253 OA
ATOM      4  N   UNL     1       4.546  -4.209  -4.962  0.00  0.00    -0.295 N 
ATOM      5  H   UNL     1       3.976  -1.822  -4.354  0.00  0.00    +0.150 HD
ATOM      6  H   UNL     1       4.835  -3.574  -5.635  0.00  0.00    +0.151 HD
ENDROOT
BRANCH   4   7
ATOM      7  C   UNL     1       4.794  -5.640  -5.150  0.00  0.00    +0.097 C 
ATOM      8  C   UNL     1       3.557  -6.293  -5.788  0.00  0.00    +0.046 C 
ATOM      9  C   UNL     1       3.952  -7.721  -6.261  0.00  0.00    +0.168 C 
ATOM     10  S   UNL     1       5.628  -7.394  -6.954  0.00  0.00    -0.029 S 
ATOM     11  O   UNL     1       5.508  -7.120  -8.343  0.00  0.00    -0.174 OA
ATOM     12  O   UNL     1       6.516  -8.414  -6.516  0.00  0.00    -0.174 OA
ATOM     13  C   UNL     1       6.024  -5.832  -6.069  0.00  0.00    +0.188 C 
ENDBRANCH   4   7
BRANCH   1  14
ATOM     14  C   UNL     1       3.001  -1.985  -2.475  0.00  0.00    +0.106 C 
BRANCH  14  15
ATOM     15  C   UNL     1       2.870  -0.461  -2.526  0.00  0.00    +0.022 C 
BRANCH  15  19
ATOM     16  C   UNL     1      -0.019   1.526   0.010  0.00  0.00    +0.000 C 
ATOM     17  C   UNL     1       1.417   2.055  -0.000  0.00  0.00    +0.000 C 
ATOM     18  C   UNL     1       2.133   1.562  -1.259  0.00  0.00    +0.003 C 
ATOM     19  C   UNL     1       2.154   0.032  -1.268  0.00  0.00    -0.010 C 
ATOM     20  C   UNL     1       0.718  -0.497  -1.257  0.00  0.00    +0.003 C 
ATOM     21  C   UNL     1       0.002  -0.004   0.002  0.00  0.00    +0.000 C 
ENDBRANCH  15  19
ENDBRANCH  14  15
ENDBRANCH   1  14
TORSDOF 4
