REMARK  Name = ZINC40063017
REMARK  6 active torsions:
REMARK  status: ('A' for Active; 'I' for Inactive)
REMARK    1  A    between atoms: C_1  and  C_2
REMARK    2  A    between atoms: C_3  and  C_24
REMARK    3  A    between atoms: C_7  and  N_23
REMARK    4  A    between atoms: C_9  and  S_11
REMARK    5  A    between atoms: S_11  and  C_12
REMARK    6  A    between atoms: C_12  and  C_13
REMARK                            x       y       z     vdW  Elec       q    Type
REMARK                         _______ _______ _______ _____ _____    ______ ____
ROOT
ATOM      1  C   UNL     1      -1.287   1.427   0.444  0.00  0.00    +0.045 C 
ATOM      2  C   UNL     1      -1.146  -0.073   0.394  0.00  0.00    -0.028 A 
ATOM      3  C   UNL     1      -1.693  -0.773  -0.610  0.00  0.00    -0.008 A 
ATOM      4  S   UNL     1      -1.260  -2.459  -0.227  0.00  0.00    -0.073 S 
ATOM      5  C   UNL     1      -0.356  -2.179   1.272  0.00  0.00    +0.115 A 
ATOM      6  C   UNL     1      -0.410  -0.777   1.431  0.00  0.00    +0.050 A 
ATOM      7  C   UNL     1       0.255  -0.264   2.579  0.00  0.00    +0.129 A 
ATOM      8  N   UNL     1       0.869  -1.101   3.400  0.00  0.00    -0.207 NA
ATOM      9  C   UNL     1       0.886  -2.411   3.188  0.00  0.00    +0.191 A 
ATOM     10  N   UNL     1       0.274  -2.947   2.139  0.00  0.00    -0.215 NA
ATOM     11  C   UNL     1      -2.486  -0.257  -1.783  0.00  0.00    +0.052 C 
ENDROOT
BRANCH   7  12
ATOM     12  N   UNL     1       0.261   1.095   2.835  0.00  0.00    -0.343 N 
ATOM     13  H   UNL     1       0.109   1.725   2.113  0.00  0.00    +0.144 HD
ATOM     14  H   UNL     1       0.416   1.418   3.736  0.00  0.00    +0.144 HD
ENDBRANCH   7  12
BRANCH   9  15
ATOM     15  S   UNL     1       1.725  -3.460   4.328  0.00  0.00    -0.081 S 
BRANCH  15  16
ATOM     16  C   UNL     1       2.381  -2.318   5.575  0.00  0.00    +0.112 C 
BRANCH  16  17
ATOM     17  C   UNL     1       3.132  -3.096   6.624  0.00  0.00    -0.032 A 
ATOM     18  C   UNL     1       2.466  -3.574   7.737  0.00  0.00    +0.054 A 
ATOM     19  C   UNL     1       3.154  -4.290   8.703  0.00  0.00    +0.168 A 
ATOM     20  C   UNL     1       4.518  -4.528   8.549  0.00  0.00    +0.184 A 
ATOM     21  C   UNL     1       5.179  -4.046   7.431  0.00  0.00    +0.087 A 
ATOM     22  C   UNL     1       4.484  -3.337   6.468  0.00  0.00    +0.028 A 
ATOM     23 CL   UNL     1       6.879  -4.340   7.234  0.00  0.00    -0.080 Cl
ATOM     24  O   UNL     1       4.959  -5.247   9.623  0.00  0.00    -0.451 OA
ATOM     25  C   UNL     1       3.942  -5.096  10.631  0.00  0.00    +0.466 C 
ATOM     26  O   UNL     1       2.741  -4.860   9.873  0.00  0.00    -0.453 OA
ENDBRANCH  16  17
ENDBRANCH  15  16
ENDBRANCH   9  15
TORSDOF 4
