REMARK  Name = ZINC20831765
REMARK  9 active torsions:
REMARK  status: ('A' for Active; 'I' for Inactive)
REMARK    1  A    between atoms: C_1  and  C_2
REMARK    2  A    between atoms: N_7  and  S_9
REMARK    3  A    between atoms: S_9  and  C_12
REMARK    4  A    between atoms: C_15  and  N_18
REMARK    5  A    between atoms: C_19  and  C_21
REMARK    6  A    between atoms: C_21  and  S_22
REMARK    7  A    between atoms: S_22  and  C_23
REMARK    8  A    between atoms: N_28  and  N_29
REMARK    9  A    between atoms: C_30  and  C_31
REMARK                            x       y       z     vdW  Elec       q    Type
REMARK                         _______ _______ _______ _____ _____    ______ ____
ROOT
ATOM      1  N   UNL     1      -6.683  -1.282  -0.913  0.00  0.00    -0.285 N 
ATOM      2  C   UNL     1      -7.730  -0.961  -1.700  0.00  0.00    +0.227 C 
ATOM      3  O   UNL     1      -7.544  -0.381  -2.749  0.00  0.00    -0.275 OA
ATOM      4  H   UNL     1      -6.842  -1.883  -0.006  0.00  0.00    +0.155 HD
ENDROOT
BRANCH   1   8
ATOM      5  C   UNL     1      -2.849   0.002  -1.919  0.00  0.00    +0.106 A 
ATOM      6  C   UNL     1      -3.026  -1.217  -1.291  0.00  0.00    +0.030 A 
ATOM      7  C   UNL     1      -4.296  -1.643  -0.952  0.00  0.00    +0.025 A 
ATOM      8  C   UNL     1      -5.396  -0.851  -1.252  0.00  0.00    +0.034 A 
ATOM      9  C   UNL     1      -5.215   0.370  -1.888  0.00  0.00    +0.025 A 
ATOM     10  C   UNL     1      -3.943   0.793  -2.220  0.00  0.00    +0.030 A 
BRANCH   5  11
ATOM     11  S   UNL     1      -1.228   0.544  -2.344  0.00  0.00    +0.061 S 
ATOM     12  O   UNL     1      -1.376   1.464  -3.417  0.00  0.00    -0.153 OA
ATOM     13  O   UNL     1      -0.423  -0.622  -2.447  0.00  0.00    -0.153 OA
BRANCH  11  19
ATOM     14  C   UNL     1      -1.630   4.692   0.553  0.00  0.00    +0.009 C 
ATOM     15  C   UNL     1      -1.515   3.176   0.386  0.00  0.00    +0.002 C 
ATOM     16  C   UNL     1      -0.646   2.602   1.508  0.00  0.00    +0.006 C 
ATOM     17  C   UNL     1      -0.554   1.081   1.361  0.00  0.00    +0.017 C 
ATOM     18  C   UNL     1       0.099   0.741   0.018  0.00  0.00    +0.109 C 
ATOM     19  N   UNL     1      -0.648   1.409  -1.057  0.00  0.00    -0.176 NA
ATOM     20  C   UNL     1      -0.869   2.858  -0.967  0.00  0.00    +0.112 C 
ENDBRANCH  11  19
ENDBRANCH   5  11
ENDBRANCH   1   8
BRANCH   2  21
ATOM     21  C   UNL     1      -9.130  -1.322  -1.276  0.00  0.00    +0.173 C 
BRANCH  21  22
ATOM     22  S   UNL     1     -10.307  -0.759  -2.536  0.00  0.00    -0.075 S 
BRANCH  22  23
ATOM     23  C   UNL     1     -11.877  -1.249  -1.901  0.00  0.00    +0.211 A 
ATOM     24  N   UNL     1     -13.086  -1.042  -2.503  0.00  0.00    -0.186 NA
ATOM     25  C   UNL     1     -14.055  -1.568  -1.694  0.00  0.00    +0.232 A 
ATOM     26  N   UNL     1     -13.469  -2.078  -0.638  0.00  0.00    -0.245 N 
ATOM     27  N   UNL     1     -12.089  -1.881  -0.771  0.00  0.00    -0.144 NA
ATOM     28  N   UNL     1     -15.419  -1.563  -1.948  0.00  0.00    -0.205 N 
ATOM     29  H   UNL     1     -15.806  -1.106  -2.870  0.00  0.00    +0.177 HD
ATOM     30  H   UNL     1     -14.072  -2.554   0.149  0.00  0.00    +0.192 HD
BRANCH  28  31
ATOM     31  N   UNL     1     -16.305  -2.141  -1.028  0.00  0.00    -0.188 NA
ATOM     32  C   UNL     1     -17.581  -2.136  -1.265  0.00  0.00    +0.138 C 
BRANCH  32  33
ATOM     33  C   UNL     1     -18.513  -2.744  -0.297  0.00  0.00    -0.005 A 
ATOM     34  C   UNL     1     -18.025  -3.331   0.873  0.00  0.00    +0.009 A 
ATOM     35  C   UNL     1     -18.903  -3.892   1.776  0.00  0.00    +0.001 A 
ATOM     36  C   UNL     1     -20.263  -3.886   1.520  0.00  0.00    +0.000 A 
ATOM     37  C   UNL     1     -20.753  -3.311   0.360  0.00  0.00    +0.001 A 
ATOM     38  C   UNL     1     -19.887  -2.740  -0.549  0.00  0.00    +0.009 A 
ENDBRANCH  32  33
ENDBRANCH  28  31
ENDBRANCH  22  23
ENDBRANCH  21  22
ENDBRANCH   2  21
TORSDOF 8
