REMARK  Name = ZINC04978049
REMARK  5 active torsions:
REMARK  status: ('A' for Active; 'I' for Inactive)
REMARK    1  A    between atoms: C_4  and  O_23
REMARK    2  A    between atoms: C_5  and  C_7
REMARK    3  A    between atoms: C_9  and  C_14
REMARK    4  A    between atoms: C_15  and  C_16
REMARK    5  A    between atoms: C_19  and  O_22
REMARK                            x       y       z     vdW  Elec       q    Type
REMARK                         _______ _______ _______ _____ _____    ______ ____
ROOT
ATOM      1  C   UNL     1       2.427   3.933   0.000  0.00  0.00    +0.169 A 
ATOM      2  N   UNL     1       3.589   3.286  -0.014  0.00  0.00    -0.208 NA
ATOM      3  C   UNL     1       4.732   3.972  -0.021  0.00  0.00    +0.158 A 
ATOM      4  N   UNL     1       4.709   5.305  -0.013  0.00  0.00    -0.195 NA
ATOM      5  C   UNL     1       3.547   5.948   0.000  0.00  0.00    +0.216 A 
ATOM      6  N   UNL     1       2.406   5.264   0.001  0.00  0.00    -0.195 NA
ATOM      7  N   UNL     1       3.522   7.329   0.007  0.00  0.00    -0.327 N 
ATOM      8  H   UNL     1       4.354   7.828   0.002  0.00  0.00    +0.145 HD
ATOM      9  H   UNL     1       2.674   7.799   0.017  0.00  0.00    +0.145 HD
ENDROOT
BRANCH   1  14
ATOM     10  C   UNL     1      -0.013   1.076   0.008  0.00  0.00    +0.001 A 
ATOM     11  C   UNL     1      -1.222   1.749   0.017  0.00  0.00    +0.004 A 
ATOM     12  C   UNL     1      -1.252   3.130   0.030  0.00  0.00    +0.046 A 
ATOM     13  C   UNL     1      -0.068   3.850   0.022  0.00  0.00    +0.128 A 
ATOM     14  C   UNL     1       1.156   3.173   0.008  0.00  0.00    +0.061 A 
ATOM     15  C   UNL     1       1.174   1.779   0.000  0.00  0.00    +0.015 A 
BRANCH  13  16
ATOM     16  O   UNL     1      -0.096   5.207   0.029  0.00  0.00    -0.506 OA
ATOM     17  H   UNL     1      -0.112   5.605  -0.852  0.00  0.00    +0.292 HD
ENDBRANCH  13  16
ENDBRANCH   1  14
BRANCH   3  18
ATOM     18  C   UNL     1       6.019   3.258  -0.036  0.00  0.00    +0.049 C 
ATOM     19  C   UNL     1       7.172   3.951  -0.043  0.00  0.00    +0.011 C 
BRANCH  19  20
ATOM     20  C   UNL     1       8.459   3.237  -0.059  0.00  0.00    -0.025 A 
ATOM     21  C   UNL     1       8.486   1.838  -0.060  0.00  0.00    +0.011 A 
ATOM     22  C   UNL     1       9.692   1.175  -0.080  0.00  0.00    +0.046 A 
ATOM     23  C   UNL     1      10.882   1.892  -0.087  0.00  0.00    +0.117 A 
ATOM     24  C   UNL     1      10.861   3.282  -0.080  0.00  0.00    +0.046 A 
ATOM     25  C   UNL     1       9.659   3.954  -0.066  0.00  0.00    +0.011 A 
BRANCH  23  26
ATOM     26  O   UNL     1      12.070   1.234  -0.102  0.00  0.00    -0.507 OA
ATOM     27  H   UNL     1      12.421   1.038   0.778  0.00  0.00    +0.292 HD
ENDBRANCH  23  26
ENDBRANCH  19  20
ENDBRANCH   3  18
TORSDOF 5
