REMARK  Name = ZINC12001555
REMARK  7 active torsions:
REMARK  status: ('A' for Active; 'I' for Inactive)
REMARK    1  A    between atoms: C_1  and  C_2
REMARK    2  A    between atoms: C_2  and  C_4
REMARK    3  A    between atoms: C_2  and  N_9
REMARK    4  A    between atoms: C_10  and  C_12
REMARK    5  A    between atoms: C_15  and  C_20
REMARK    6  A    between atoms: C_20  and  N_55
REMARK    7  A    between atoms: C_23  and  C_26
REMARK                            x       y       z     vdW  Elec       q    Type
REMARK                         _______ _______ _______ _____ _____    ______ ____
ROOT
ATOM      1  C   UNL     1      -2.000   2.467   3.511  0.00  0.00    +0.101 A 
ATOM      2  C   UNL     1      -1.937   1.101   3.244  0.00  0.00    +0.020 A 
ATOM      3  C   UNL     1      -1.279   0.668   2.093  0.00  0.00    +0.020 A 
ATOM      4  C   UNL     1      -0.712   1.571   1.252  0.00  0.00    +0.003 A 
ATOM      5  N   UNL     1      -0.766   2.900   1.508  0.00  0.00    -0.327 N 
ATOM      6  H   UNL     1      -0.349   3.522   0.891  0.00  0.00    +0.169 HD
ATOM      7  C   UNL     1      -1.393   3.371   2.602  0.00  0.00    +0.261 A 
ATOM      8  O   UNL     1      -1.435   4.571   2.813  0.00  0.00    -0.267 OA
ENDROOT
BRANCH   1  10
ATOM      9  N   UNL     1      -2.639   4.274   5.024  0.00  0.00    -0.304 N 
ATOM     10  C   UNL     1      -2.684   2.963   4.715  0.00  0.00    +0.250 C 
ATOM     11  O   UNL     1      -3.292   2.190   5.432  0.00  0.00    -0.270 OA
ATOM     12  H   UNL     1      -2.219   4.902   4.416  0.00  0.00    +0.150 HD
BRANCH   9  14
ATOM     13  C   UNL     1      -2.201   4.600   7.409  0.00  0.00    +0.033 C 
ATOM     14  C   UNL     1      -3.223   4.752   6.280  0.00  0.00    +0.107 C 
BRANCH  14  15
ATOM     15  C   UNL     1      -3.603   6.203   6.138  0.00  0.00    +0.010 A 
ATOM     16  C   UNL     1      -4.702   6.847   6.600  0.00  0.00    +0.013 A 
ATOM     17  C   UNL     1      -4.842   8.199   6.348  0.00  0.00    +0.008 A 
ATOM     18  C   UNL     1      -3.876   8.841   5.646  0.00  0.00    +0.045 A 
ATOM     19  S   UNL     1      -2.717   7.522   5.323  0.00  0.00    -0.100 S 
ENDBRANCH  14  15
ENDBRANCH   9  14
ENDBRANCH   1  10
BRANCH   4  20
ATOM     20  C   UNL     1      -0.005   1.084   0.013  0.00  0.00    -0.024 C 
BRANCH  20  26
ATOM     21  C   UNL     1       0.058   1.305  -2.400  0.00  0.00    -0.073 C 
ATOM     22  C   UNL     1      -0.853   1.513  -3.612  0.00  0.00    +0.017 C 
ATOM     23  C   UNL     1      -1.578   2.824  -3.482  0.00  0.00    -0.048 C 
ATOM     24  C   UNL     1      -1.669   3.475  -2.343  0.00  0.00    -0.041 C 
ATOM     25  C   UNL     1      -1.052   2.982  -1.066  0.00  0.00    -0.050 C 
ATOM     26  N   UNL     1      -0.746   1.544  -1.184  0.00  0.00    +0.386 N 
ATOM     27  H   UNL     1      -1.625   1.018  -1.255  0.00  0.00    -0.081 HD
BRANCH  23  28
ATOM     28  C   UNL     1      -2.216   3.403  -4.683  0.00  0.00    -0.022 A 
ATOM     29  C   UNL     1      -3.280   2.742  -5.298  0.00  0.00    +0.011 A 
ATOM     30  C   UNL     1      -3.876   3.290  -6.415  0.00  0.00    +0.039 A 
ATOM     31  C   UNL     1      -3.412   4.489  -6.933  0.00  0.00    +0.123 A 
ATOM     32  C   UNL     1      -2.352   5.146  -6.329  0.00  0.00    +0.039 A 
ATOM     33  C   UNL     1      -1.754   4.610  -5.208  0.00  0.00    +0.011 A 
ATOM     34  F   UNL     1      -3.995   5.018  -8.031  0.00  0.00    -0.205 F 
ENDBRANCH  23  28
ENDBRANCH  20  26
ENDBRANCH   4  20
TORSDOF 6
