REMARK  Name = ZINC20726621
REMARK  8 active torsions:
REMARK  status: ('A' for Active; 'I' for Inactive)
REMARK    1  A    between atoms: C_1  and  C_2
REMARK    2  A    between atoms: C_2  and  C_28
REMARK    3  A    between atoms: C_6  and  C_18
REMARK    4  A    between atoms: C_9  and  C_14
REMARK    5  A    between atoms: C_14  and  C_15
REMARK    6  A    between atoms: C_14  and  C_16
REMARK    7  A    between atoms: C_14  and  C_17
REMARK    8  A    between atoms: C_21  and  O_24
REMARK                            x       y       z     vdW  Elec       q    Type
REMARK                         _______ _______ _______ _____ _____    ______ ____
ROOT
ATOM      1  C   UNL     1       0.022   6.084  -2.656  0.00  0.00    +0.011 C 
ATOM      2  C   UNL     1      -0.055   6.478  -1.179  0.00  0.00    -0.023 C 
ATOM      3  C   UNL     1       0.946   5.651  -0.372  0.00  0.00    +0.058 C 
ATOM      4  C   UNL     1       0.611   4.182  -0.495  0.00  0.00    +0.019 C 
ATOM      5  C   UNL     1      -0.668   3.779  -0.653  0.00  0.00    +0.024 C 
ATOM      6  C   UNL     1      -1.046   2.316  -0.778  0.00  0.00    +0.091 C 
ATOM      7  C   UNL     1       0.119   1.467  -0.381  0.00  0.00    +0.049 A 
ATOM      8  C   UNL     1       0.237   0.110  -0.094  0.00  0.00    +0.095 A 
ATOM      9  N   UNL     1       1.500  -0.094   0.189  0.00  0.00    -0.080 NA
ATOM     10  O   UNL     1       2.152   0.930   0.114  0.00  0.00    -0.339 OA
ATOM     11  C   UNL     1       1.389   1.961  -0.231  0.00  0.00    +0.226 A 
ATOM     12  N   UNL     1       1.662   3.299  -0.431  0.00  0.00    -0.286 N 
ATOM     13  C   UNL     1      -1.719   4.712  -0.717  0.00  0.00    +0.162 C 
ATOM     14  O   UNL     1      -2.861   4.314  -0.836  0.00  0.00    -0.292 OA
ATOM     15  C   UNL     1      -1.461   6.191  -0.641  0.00  0.00    +0.086 C 
ATOM     16  C   UNL     1       0.262   7.967  -1.026  0.00  0.00    +0.011 C 
ATOM     17  H   UNL     1       2.694   3.664  -0.539  0.00  0.00    +0.155 HD
ENDROOT
BRANCH   6  18
ATOM     18  C   UNL     1      -1.425   2.014  -2.205  0.00  0.00    -0.035 A 
ATOM     19  C   UNL     1      -0.453   1.993  -3.188  0.00  0.00    +0.008 A 
ATOM     20  C   UNL     1      -0.797   1.711  -4.496  0.00  0.00    +0.046 A 
ATOM     21  C   UNL     1      -2.122   1.458  -4.824  0.00  0.00    +0.117 A 
ATOM     22  C   UNL     1      -3.096   1.485  -3.837  0.00  0.00    +0.046 A 
ATOM     23  C   UNL     1      -2.745   1.763  -2.530  0.00  0.00    +0.008 A 
BRANCH  21  24
ATOM     24  O   UNL     1      -2.463   1.185  -6.111  0.00  0.00    -0.507 OA
ATOM     25  H   UNL     1      -3.514   0.986  -6.370  0.00  0.00    +0.292 HD
ENDBRANCH  21  24
ENDBRANCH   6  18
BRANCH   8  26
ATOM     26  C   UNL     1      -0.865  -0.918  -0.106  0.00  0.00    +0.008 C 
ATOM     27  C   UNL     1      -1.358  -1.119  -1.541  0.00  0.00    +0.017 C 
ATOM     28  C   UNL     1      -0.333  -2.244   0.441  0.00  0.00    +0.017 C 
ATOM     29  C   UNL     1      -2.024  -0.434   0.768  0.00  0.00    +0.017 C 
ENDBRANCH   8  26
TORSDOF 3
