REMARK  Name = ZINC23221072
REMARK  8 active torsions:
REMARK  status: ('A' for Active; 'I' for Inactive)
REMARK    1  A    between atoms: C_1  and  C_2
REMARK    2  A    between atoms: C_5  and  C_8
REMARK    3  A    between atoms: C_8  and  C_10
REMARK    4  A    between atoms: C_15  and  C_16
REMARK    5  A    between atoms: C_16  and  O_18
REMARK    6  A    between atoms: O_18  and  C_19
REMARK    7  A    between atoms: C_19  and  C_20
REMARK    8  A    between atoms: C_33  and  C_35
REMARK                            x       y       z     vdW  Elec       q    Type
REMARK                         _______ _______ _______ _____ _____    ______ ____
ROOT
ATOM      1  O   UNL     1       1.661  -6.380  -0.068  0.00  0.00    -0.452 OA
ENDROOT
BRANCH   1   2
ATOM      2  C   UNL     1       1.531  -5.040  -0.123  0.00  0.00    +0.340 C 
ATOM      3  O   UNL     1       0.429  -4.540  -0.223  0.00  0.00    -0.245 OA
BRANCH   2   9
ATOM      4  C   UNL     1       2.594  -2.778   0.003  0.00  0.00    +0.036 A 
ATOM      5  C   UNL     1       3.733  -1.978   0.055  0.00  0.00    +0.012 A 
ATOM      6  C   UNL     1       4.987  -2.559   0.054  0.00  0.00    +0.001 A 
ATOM      7  C   UNL     1       5.121  -3.935  -0.009  0.00  0.00    +0.001 A 
ATOM      8  C   UNL     1       4.002  -4.745  -0.067  0.00  0.00    +0.016 A 
ATOM      9  C   UNL     1       2.731  -4.178  -0.061  0.00  0.00    +0.070 A 
BRANCH   4  10
ATOM     10  C   UNL     1       1.251  -2.161   0.010  0.00  0.00    +0.194 C 
ATOM     11  O   UNL     1       0.817  -1.639  -0.999  0.00  0.00    -0.287 OA
BRANCH  10  16
ATOM     12  C   UNL     1      -1.924  -2.230   4.808  0.00  0.00    +0.044 C 
ATOM     13  C   UNL     1      -1.093  -2.212   3.551  0.00  0.00    -0.050 A 
ATOM     14  C   UNL     1      -1.547  -1.533   2.434  0.00  0.00    +0.004 A 
ATOM     15  C   UNL     1      -0.792  -1.512   1.281  0.00  0.00    +0.012 A 
ATOM     16  C   UNL     1       0.435  -2.179   1.241  0.00  0.00    +0.022 A 
ATOM     17  C   UNL     1       0.888  -2.862   2.373  0.00  0.00    +0.012 A 
ATOM     18  C   UNL     1       0.122  -2.875   3.519  0.00  0.00    +0.004 A 
ENDBRANCH  10  16
ENDBRANCH   4  10
ENDBRANCH   2   9
ENDBRANCH   1   2
BRANCH   1  19
ATOM     19  C   UNL     1       0.441  -7.163  -0.134  0.00  0.00    +0.328 C 
BRANCH  19  20
ATOM     20  C   UNL     1       0.780  -8.630  -0.059  0.00  0.00    +0.258 C 
ATOM     21  O   UNL     1       1.938  -8.980   0.040  0.00  0.00    -0.271 OA
ATOM     22  N   UNL     1      -0.201  -9.552  -0.102  0.00  0.00    -0.264 N 
ATOM     23  C   UNL     1      -1.543  -9.163  -0.211  0.00  0.00    +0.058 A 
ATOM     24  C   UNL     1      -2.037  -8.661  -1.404  0.00  0.00    +0.025 A 
ATOM     25  C   UNL     1      -3.372  -8.312  -1.503  0.00  0.00    +0.002 A 
ATOM     26  C   UNL     1      -4.215  -8.463  -0.417  0.00  0.00    +0.002 A 
ATOM     27  C   UNL     1      -3.730  -8.949   0.767  0.00  0.00    +0.025 A 
ATOM     28  C   UNL     1      -2.392  -9.288   0.883  0.00  0.00    +0.055 A 
ATOM     29  N   UNL     1      -1.869  -9.750   2.097  0.00  0.00    -0.284 N 
ATOM     30  C   UNL     1      -1.107 -10.866   2.136  0.00  0.00    +0.219 C 
ATOM     31  O   UNL     1      -0.599 -11.210   3.182  0.00  0.00    -0.275 OA
ATOM     32  C   UNL     1      -0.884 -11.684   0.892  0.00  0.00    +0.118 C 
ATOM     33  C   UNL     1       0.112 -10.980  -0.030  0.00  0.00    +0.087 C 
ATOM     34  C   UNL     1       0.028 -11.590  -1.431  0.00  0.00    +0.029 C 
ATOM     35  H   UNL     1      -2.076  -9.203   3.029  0.00  0.00    +0.155 HD
ENDBRANCH  19  20
ENDBRANCH   1  19
TORSDOF 6
