REMARK  Name = ZINC08992656
REMARK  8 active torsions:
REMARK  status: ('A' for Active; 'I' for Inactive)
REMARK    1  A    between atoms: C_1  and  C_2
REMARK    2  A    between atoms: C_2  and  N_3
REMARK    3  A    between atoms: C_5  and  C_12
REMARK    4  A    between atoms: C_19  and  O_33
REMARK    5  A    between atoms: C_20  and  C_23
REMARK    6  A    between atoms: C_23  and  N_62
REMARK    7  A    between atoms: C_25  and  C_32
REMARK    8  A    between atoms: C_28  and  C_31
REMARK                            x       y       z     vdW  Elec       q    Type
REMARK                         _______ _______ _______ _____ _____    ______ ____
ROOT
ATOM      1  C   UNL     1      -0.018   1.457   0.010  0.00  0.00    +0.060 C 
ATOM      2  C   UNL     1      -1.213   2.103  -0.097  0.00  0.00    +0.176 C 
ATOM      3  C   UNL     1      -2.491   1.484  -0.120  0.00  0.00    +0.231 C 
ATOM      4  O   UNL     1      -2.738   0.291  -0.050  0.00  0.00    -0.283 OA
ATOM      5  C   UNL     1      -3.454   2.591  -0.243  0.00  0.00    +0.068 A 
ATOM      6  C   UNL     1      -4.846   2.651  -0.317  0.00  0.00    +0.019 A 
ATOM      7  C   UNL     1      -5.470   3.860  -0.436  0.00  0.00    +0.046 A 
ATOM      8  C   UNL     1      -4.721   5.033  -0.486  0.00  0.00    +0.122 A 
ATOM      9  C   UNL     1      -3.338   4.990  -0.415  0.00  0.00    +0.020 A 
ATOM     10  C   UNL     1      -2.689   3.768  -0.293  0.00  0.00    +0.144 A 
ATOM     11  O   UNL     1      -1.382   3.442  -0.204  0.00  0.00    -0.451 OA
ENDROOT
BRANCH   1  14
ATOM     12  N   UNL     1      -0.464  -1.993   1.113  0.00  0.00    -0.346 N 
ATOM     13  C   UNL     1      -0.801  -0.680   1.138  0.00  0.00    +0.094 A 
ATOM     14  C   UNL     1       0.016   0.021   0.277  0.00  0.00    +0.004 A 
ATOM     15  C   UNL     1       0.927  -0.971  -0.327  0.00  0.00    +0.007 A 
ATOM     16  C   UNL     1       0.582  -2.208   0.239  0.00  0.00    +0.050 A 
ATOM     17  C   UNL     1       1.281  -3.350  -0.140  0.00  0.00    +0.026 A 
ATOM     18  C   UNL     1       2.295  -3.259  -1.070  0.00  0.00    +0.002 A 
ATOM     19  C   UNL     1       2.636  -2.035  -1.625  0.00  0.00    +0.001 A 
ATOM     20  C   UNL     1       1.958  -0.892  -1.259  0.00  0.00    +0.010 A 
BRANCH  12  22
ATOM     21  C   UNL     1      -0.332  -3.267   3.197  0.00  0.00    +0.027 C 
ATOM     22  C   UNL     1      -1.119  -3.038   1.905  0.00  0.00    +0.118 C 
ENDBRANCH  12  22
ENDBRANCH   1  14
BRANCH   8  23
ATOM     23  O   UNL     1      -5.352   6.230  -0.605  0.00  0.00    -0.506 OA
ATOM     24  H   UNL     1      -5.491   6.511  -1.520  0.00  0.00    +0.292 HD
ENDBRANCH   8  23
BRANCH   9  25
ATOM     25  C   UNL     1      -2.539   6.266  -0.470  0.00  0.00    -0.036 C 
BRANCH  25  33
ATOM     26  C   UNL     1      -1.308   5.571  -2.434  0.00  0.00    -0.075 C 
ATOM     27  C   UNL     1      -1.105   5.847  -3.926  0.00  0.00    -0.031 C 
ATOM     28  C   UNL     1      -0.513   7.248  -4.105  0.00  0.00    +0.003 C 
ATOM     29  C   UNL     1      -1.450   8.275  -3.463  0.00  0.00    -0.031 C 
ATOM     30  C   UNL     1      -1.643   7.928  -1.985  0.00  0.00    -0.075 C 
ATOM     31  C   UNL     1      -0.838   9.671  -3.584  0.00  0.00    +0.005 C 
ATOM     32  C   UNL     1      -0.146   4.809  -4.512  0.00  0.00    +0.005 C 
ATOM     33  N   UNL     1      -2.238   6.579  -1.882  0.00  0.00    +0.383 N 
ATOM     34  H   UNL     1      -3.111   6.557  -2.422  0.00  0.00    -0.081 HD
ENDBRANCH  25  33
ENDBRANCH   9  25
TORSDOF 5
