REMARK  Name = ZINC08791094
REMARK  6 active torsions:
REMARK  status: ('A' for Active; 'I' for Inactive)
REMARK    1  A    between atoms: C_1  and  C_2
REMARK    2  A    between atoms: C_13  and  C_15
REMARK    3  A    between atoms: C_15  and  C_16
REMARK    4  A    between atoms: N_28  and  C_31
REMARK    5  A    between atoms: C_34  and  O_37
REMARK    6  A    between atoms: O_37  and  C_38
REMARK                            x       y       z     vdW  Elec       q    Type
REMARK                         _______ _______ _______ _____ _____    ______ ____
ROOT
ATOM      1  C   UNL     1      -4.297  -3.583   0.680  0.00  0.00    +0.044 C 
ATOM      2  C   UNL     1      -3.093  -3.046   1.411  0.00  0.00    -0.050 A 
ATOM      3  C   UNL     1      -2.538  -3.765   2.453  0.00  0.00    +0.005 A 
ATOM      4  C   UNL     1      -1.436  -3.280   3.125  0.00  0.00    +0.024 A 
ATOM      5  C   UNL     1      -0.872  -2.060   2.758  0.00  0.00    +0.036 A 
ATOM      6  C   UNL     1      -1.440  -1.345   1.707  0.00  0.00    -0.027 A 
ATOM      7  C   UNL     1      -2.541  -1.834   1.040  0.00  0.00    +0.008 A 
ATOM      8  C   UNL     1      -0.614  -0.098   1.566  0.00  0.00    +0.050 C 
ATOM      9  C   UNL     1       0.003   0.012   0.167  0.00  0.00    +0.088 C 
ATOM     10  C   UNL     1      -0.020   1.533  -0.154  0.00  0.00    +0.074 C 
ATOM     11  C   UNL     1      -0.630   2.192   1.102  0.00  0.00    -0.053 C 
ATOM     12  C   UNL     1       1.446   1.893  -0.240  0.00  0.00    +0.228 C 
ATOM     13  O   UNL     1       1.883   2.998  -0.479  0.00  0.00    -0.275 OA
ATOM     14  N   UNL     1       2.186   0.802  -0.010  0.00  0.00    -0.210 N 
ATOM     15  C   UNL     1       1.479  -0.308   0.231  0.00  0.00    +0.229 C 
ATOM     16  O   UNL     1       1.949  -1.401   0.465  0.00  0.00    -0.275 OA
ATOM     17  C   UNL     1       0.446  -0.208   2.628  0.00  0.00    +0.211 C 
ATOM     18  O   UNL     1       1.327   0.593   2.857  0.00  0.00    -0.277 OA
ATOM     19  N   UNL     1       0.227  -1.370   3.274  0.00  0.00    -0.286 N 
ATOM     20  H   UNL     1       0.769  -1.690   4.011  0.00  0.00    +0.155 HD
ATOM     21  N   UNL     1      -1.398   1.114   1.729  0.00  0.00    +0.394 N 
ATOM     22  H   UNL     1      -1.541   1.313   2.726  0.00  0.00    -0.083 HD
ATOM     23  H   UNL     1      -2.309   1.012   1.266  0.00  0.00    -0.083 HD
ENDROOT
BRANCH  14  24
ATOM     24  C   UNL     1       3.589   0.821  -0.021  0.00  0.00    +0.044 A 
ATOM     25  C   UNL     1       4.282   1.522   0.956  0.00  0.00    +0.027 A 
ATOM     26  C   UNL     1       5.663   1.536   0.948  0.00  0.00    +0.047 A 
ATOM     27  C   UNL     1       6.358   0.858  -0.044  0.00  0.00    +0.120 A 
ATOM     28  C   UNL     1       5.665   0.162  -1.024  0.00  0.00    +0.047 A 
ATOM     29  C   UNL     1       4.285   0.143  -1.013  0.00  0.00    +0.027 A 
BRANCH  27  30
ATOM     30  O   UNL     1       7.717   0.876  -0.055  0.00  0.00    -0.495 OA
ATOM     31  C   UNL     1       8.364   1.613   0.985  0.00  0.00    +0.277 C 
ENDBRANCH  27  30
ENDBRANCH  14  24
BRANCH  11  32
ATOM     32  C   UNL     1      -1.532   3.362   0.704  0.00  0.00    +0.022 C 
BRANCH  32  33
ATOM     33  C   UNL     1      -2.018   4.066   1.945  0.00  0.00    -0.024 A 
ATOM     34  C   UNL     1      -3.180   3.850   2.582  0.00  0.00    +0.087 A 
ATOM     35  N   UNL     1      -3.276   4.675   3.670  0.00  0.00    -0.360 N 
ATOM     36  H   UNL     1      -4.026   4.701   4.285  0.00  0.00    +0.165 HD
ATOM     37  C   UNL     1      -2.150   5.461   3.761  0.00  0.00    +0.047 A 
ATOM     38  C   UNL     1      -1.310   5.110   2.688  0.00  0.00    +0.003 A 
ATOM     39  C   UNL     1      -0.079   5.750   2.530  0.00  0.00    +0.010 A 
ATOM     40  C   UNL     1       0.305   6.712   3.420  0.00  0.00    +0.001 A 
ATOM     41  C   UNL     1      -0.518   7.059   4.482  0.00  0.00    +0.002 A 
ATOM     42  C   UNL     1      -1.740   6.447   4.654  0.00  0.00    +0.026 A 
ENDBRANCH  32  33
ENDBRANCH  11  32
TORSDOF 4
