REMARK  Name = ZINC36061116
REMARK  16 active torsions:
REMARK  status: ('A' for Active; 'I' for Inactive)
REMARK    1  A    between atoms: C_1  and  C_2
REMARK    2  A    between atoms: C_3  and  C_32
REMARK    3  A    between atoms: C_4  and  C_22
REMARK    4  A    between atoms: C_7  and  C_12
REMARK    5  A    between atoms: C_13  and  N_15
REMARK    6  A    between atoms: N_15  and  C_16
REMARK    7  A    between atoms: C_16  and  C_17
REMARK    8  A    between atoms: C_25  and  O_30
REMARK    9  A    between atoms: C_27  and  O_28
REMARK   10  A    between atoms: O_28  and  C_29
REMARK   11  A    between atoms: O_30  and  C_31
REMARK   12  A    between atoms: C_32  and  O_34
REMARK   13  A    between atoms: O_34  and  C_35
REMARK   14  A    between atoms: C_35  and  C_36
REMARK   15  A    between atoms: C_36  and  O_37
REMARK   16  A    between atoms: O_37  and  C_38
REMARK                            x       y       z     vdW  Elec       q    Type
REMARK                         _______ _______ _______ _____ _____    ______ ____
ROOT
ATOM      1  C   UNL     1      -0.230   2.053   0.804  0.00  0.00    +0.066 C 
ATOM      2  C   UNL     1      -0.231   0.548   0.726  0.00  0.00    +0.053 C 
ATOM      3  C   UNL     1      -1.413  -0.126   0.488  0.00  0.00    +0.083 C 
ATOM      4  C   UNL     1      -1.362  -1.636   0.418  0.00  0.00    +0.153 C 
ATOM      5  N   UNL     1      -0.035  -2.278   0.613  0.00  0.00    -0.267 N 
ATOM      6  C   UNL     1       0.246  -3.630   0.590  0.00  0.00    +0.048 C 
ATOM      7  C   UNL     1       1.528  -4.007   0.791  0.00  0.00    +0.072 C 
ATOM      8  S   UNL     1       2.343  -2.438   1.013  0.00  0.00    -0.060 S 
ATOM      9  C   UNL     1       1.013  -1.430   0.838  0.00  0.00    +0.166 C 
ATOM     10  N   UNL     1       0.901  -0.118   0.881  0.00  0.00    -0.230 NA
ENDROOT
BRANCH   4  11
ATOM     11  C   UNL     1      -2.299  -2.181   1.465  0.00  0.00    +0.020 A 
ATOM     12  C   UNL     1      -3.507  -2.735   1.089  0.00  0.00    +0.013 A 
ATOM     13  C   UNL     1      -4.368  -3.236   2.047  0.00  0.00    +0.046 A 
ATOM     14  C   UNL     1      -4.020  -3.183   3.390  0.00  0.00    +0.124 A 
ATOM     15  C   UNL     1      -2.808  -2.627   3.769  0.00  0.00    +0.091 A 
ATOM     16  C   UNL     1      -1.944  -2.131   2.806  0.00  0.00    +0.129 A 
BRANCH  16  17
ATOM     17  O   UNL     1      -0.752  -1.591   3.174  0.00  0.00    -0.495 OA
ATOM     18  C   UNL     1      -0.405  -1.669   4.558  0.00  0.00    +0.277 C 
ENDBRANCH  16  17
BRANCH  14  19
ATOM     19  O   UNL     1      -4.867  -3.675   4.332  0.00  0.00    -0.495 OA
ATOM     20  C   UNL     1      -6.099  -4.232   3.869  0.00  0.00    +0.277 C 
ENDBRANCH  14  19
ENDBRANCH   4  11
BRANCH   6  21
ATOM     21  C   UNL     1      -0.812  -4.623   0.357  0.00  0.00    +0.091 C 
ATOM     22  C   UNL     1      -0.539  -5.937   0.469  0.00  0.00    +0.239 C 
ATOM     23  O   UNL     1       0.734  -6.348   0.690  0.00  0.00    -0.271 OA
BRANCH  22  24
ATOM     24  N   UNL     1      -1.558  -6.868   0.360  0.00  0.00    -0.305 N 
ATOM     25  H   UNL     1      -2.455  -6.580   0.130  0.00  0.00    +0.149 HD
BRANCH  24  26
ATOM     26  C   UNL     1      -1.282  -8.288   0.592  0.00  0.00    +0.179 C 
BRANCH  26  27
ATOM     27  C   UNL     1      -2.518  -9.096   0.294  0.00  0.00    +0.122 A 
ATOM     28  C   UNL     1      -2.841  -9.629  -0.898  0.00  0.00    +0.046 A 
ATOM     29  C   UNL     1      -4.074 -10.299  -0.727  0.00  0.00    +0.041 A 
ATOM     30  C   UNL     1      -4.431 -10.135   0.559  0.00  0.00    +0.195 A 
ATOM     31  O   UNL     1      -3.482  -9.410   1.174  0.00  0.00    -0.466 OA
ENDBRANCH  26  27
ENDBRANCH  24  26
ENDBRANCH  22  24
ENDBRANCH   6  21
BRANCH   3  32
ATOM     32  C   UNL     1      -2.619   0.566   0.317  0.00  0.00    +0.339 C 
ATOM     33  O   UNL     1      -2.658   1.772   0.483  0.00  0.00    -0.245 OA
BRANCH  32  34
ATOM     34  O   UNL     1      -3.739  -0.105  -0.033  0.00  0.00    -0.459 OA
BRANCH  34  35
ATOM     35  C   UNL     1      -4.904   0.676  -0.304  0.00  0.00    +0.260 C 
BRANCH  35  36
ATOM     36  C   UNL     1      -6.092  -0.253  -0.562  0.00  0.00    +0.200 C 
BRANCH  36  37
ATOM     37  O   UNL     1      -6.404  -0.972   0.633  0.00  0.00    -0.380 OA
ATOM     38  C   UNL     1      -7.573  -1.788   0.532  0.00  0.00    +0.194 C 
ENDBRANCH  36  37
ENDBRANCH  35  36
ENDBRANCH  34  35
ENDBRANCH  32  34
ENDBRANCH   3  32
TORSDOF 12
