REMARK  Name = ZINC39007417
REMARK  11 active torsions:
REMARK  status: ('A' for Active; 'I' for Inactive)
REMARK    1  A    between atoms: C_1  and  C_2
REMARK    2  A    between atoms: C_2  and  N_3
REMARK    3  A    between atoms: N_3  and  C_4
REMARK    4  A    between atoms: N_3  and  C_6
REMARK    5  A    between atoms: C_4  and  C_5
REMARK    6  A    between atoms: C_9  and  C_12
REMARK    7  A    between atoms: N_13  and  N_14
REMARK    8  A    between atoms: C_15  and  C_21
REMARK    9  A    between atoms: C_24  and  O_27
REMARK   10  A    between atoms: O_27  and  C_28
REMARK   11  A    between atoms: C_28  and  C_29
REMARK                            x       y       z     vdW  Elec       q    Type
REMARK                         _______ _______ _______ _____ _____    ______ ____
ROOT
ATOM      1  N   UNL     1       8.271  -2.105   1.963  0.00  0.00    -0.172 N 
ATOM      2  C   UNL     1       9.119  -2.708   3.008  0.00  0.00    +0.264 C 
ATOM      3  N   UNL     1      10.442  -2.806   2.373  0.00  0.00    -0.189 NA
ATOM      4  N   UNL     1      10.353  -2.357   1.228  0.00  0.00    -0.219 N 
ATOM      5  C   UNL     1       9.101  -1.929   0.912  0.00  0.00    +0.174 C 
ATOM      6  S   UNL     1       8.644  -1.262  -0.597  0.00  0.00    -0.015 S 
ATOM      7  H   UNL     1      11.101  -2.317   0.611  0.00  0.00    +0.176 HD
ENDROOT
BRANCH   2   8
ATOM      8  C   UNL     1       8.606  -4.074   3.383  0.00  0.00    -0.002 A 
ATOM      9  C   UNL     1       7.256  -4.355   3.284  0.00  0.00    +0.011 A 
ATOM     10  C   UNL     1       6.782  -5.607   3.627  0.00  0.00    +0.046 A 
ATOM     11  C   UNL     1       7.663  -6.582   4.071  0.00  0.00    +0.121 A 
ATOM     12  C   UNL     1       9.018  -6.298   4.169  0.00  0.00    +0.046 A 
ATOM     13  C   UNL     1       9.487  -5.046   3.820  0.00  0.00    +0.011 A 
BRANCH  11  14
ATOM     14  O   UNL     1       7.200  -7.814   4.410  0.00  0.00    -0.492 OA
BRANCH  14  15
ATOM     15  C   UNL     1       8.165  -8.769   4.859  0.00  0.00    +0.225 C 
ATOM     16  C   UNL     1       7.461 -10.086   5.192  0.00  0.00    +0.048 C 
ENDBRANCH  14  15
ENDBRANCH  11  14
ENDBRANCH   2   8
BRANCH   1  18
ATOM     17  C   UNL     1       6.330  -1.159   1.064  0.00  0.00    +0.138 C 
ATOM     18  N   UNL     1       6.908  -1.790   2.042  0.00  0.00    -0.183 NA
BRANCH  17  22
ATOM     19  C   UNL     1       2.142  -0.472   1.164  0.00  0.00    +0.030 A 
ATOM     20  C   UNL     1       2.893  -0.021   0.083  0.00  0.00    +0.024 A 
ATOM     21  C   UNL     1       4.252  -0.242   0.048  0.00  0.00    +0.011 A 
ATOM     22  C   UNL     1       4.876  -0.920   1.099  0.00  0.00    -0.005 A 
ATOM     23  C   UNL     1       4.117  -1.371   2.183  0.00  0.00    +0.011 A 
ATOM     24  C   UNL     1       2.760  -1.142   2.214  0.00  0.00    +0.024 A 
BRANCH  19  25
ATOM     25  N   UNL     1       0.766  -0.246   1.196  0.00  0.00    -0.330 N 
BRANCH  25  27
ATOM     26  C   UNL     1       0.107   1.962   0.377  0.00  0.00    +0.024 C 
ATOM     27  C   UNL     1       0.113   0.459   0.091  0.00  0.00    +0.102 C 
ENDBRANCH  25  27
BRANCH  25  28
ATOM     28  C   UNL     1      -0.027  -0.715   2.336  0.00  0.00    +0.102 C 
ATOM     29  C   UNL     1      -0.524  -2.136   2.061  0.00  0.00    +0.024 C 
ENDBRANCH  25  28
ENDBRANCH  19  25
ENDBRANCH  17  22
ENDBRANCH   1  18
TORSDOF 8
