REMARK  Name = ZINC08454505
REMARK  4 active torsions:
REMARK  status: ('A' for Active; 'I' for Inactive)
REMARK    1  A    between atoms: C_3  and  C_6
REMARK    2  A    between atoms: C_8  and  C_32
REMARK    3  A    between atoms: C_13  and  C_15
REMARK    4  A    between atoms: C_22  and  N_64
REMARK                            x       y       z     vdW  Elec       q    Type
REMARK                         _______ _______ _______ _____ _____    ______ ____
ROOT
ATOM      1  C   UNL     1       0.478  11.082   0.056  0.00  0.00    +0.267 C 
ATOM      2  O   UNL     1       0.712   9.891   0.119  0.00  0.00    -0.268 OA
ATOM      3  N   UNL     1       1.492  11.963  -0.050  0.00  0.00    -0.300 N 
ATOM      4  C   UNL     1       2.883  11.503  -0.171  0.00  0.00    +0.089 C 
ATOM      5  C   UNL     1       3.519  12.202  -1.383  0.00  0.00    -0.059 C 
ATOM      6  C   UNL     1       1.938  14.036  -1.253  0.00  0.00    -0.059 C 
ATOM      7  C   UNL     1       1.236  13.412  -0.042  0.00  0.00    +0.089 C 
ATOM      8  N   UNL     1       3.369  13.664  -1.217  0.00  0.00    +0.385 N 
ATOM      9  H   UNL     1       3.761  13.938  -0.309  0.00  0.00    -0.081 HD
ENDROOT
BRANCH   8  10
ATOM     10  C   UNL     1       4.101  14.371  -2.289  0.00  0.00    -0.065 C 
ATOM     11  C   UNL     1       3.510  14.030  -3.659  0.00  0.00    -0.009 C 
ATOM     12  C   UNL     1       4.285  14.775  -4.748  0.00  0.00    -0.012 C 
ATOM     13  C   UNL     1       5.755  14.353  -4.706  0.00  0.00    +0.007 C 
ATOM     14  C   UNL     1       6.346  14.694  -3.337  0.00  0.00    -0.012 C 
ATOM     15  C   UNL     1       5.571  13.949  -2.248  0.00  0.00    -0.009 C 
ATOM     16  C   UNL     1       6.241  16.201  -3.096  0.00  0.00    +0.007 C 
ATOM     17  C   UNL     1       4.771  16.623  -3.138  0.00  0.00    -0.012 C 
ATOM     18  C   UNL     1       4.181  16.283  -4.507  0.00  0.00    +0.007 C 
ATOM     19  C   UNL     1       3.996  15.878  -2.049  0.00  0.00    -0.009 C 
ENDBRANCH   8  10
BRANCH   1  27
ATOM     20  C   UNL     1      -5.358  12.338   0.191  0.00  0.00    +0.082 A 
ATOM     21  C   UNL     1      -4.904  13.679   0.248  0.00  0.00    +0.061 A 
ATOM     22  C   UNL     1      -3.577  13.930   0.243  0.00  0.00    +0.149 A 
ATOM     23  N   UNL     1      -2.697  12.882   0.182  0.00  0.00    -0.209 N 
ATOM     24  C   UNL     1      -3.167  11.593   0.127  0.00  0.00    +0.157 A 
ATOM     25  N   UNL     1      -4.484  11.346   0.138  0.00  0.00    -0.227 NA
ATOM     26  C   UNL     1      -2.063  10.757   0.073  0.00  0.00    +0.083 A 
ATOM     27  C   UNL     1      -0.920  11.564   0.097  0.00  0.00    +0.150 A 
ATOM     28  N   UNL     1      -1.298  12.830   0.162  0.00  0.00    -0.160 NA
BRANCH  20  31
ATOM     29  C   UNL     1      -8.815  10.811   0.168  0.00  0.00    +0.008 A 
ATOM     30  C   UNL     1      -7.441  10.835   0.145  0.00  0.00    +0.017 A 
ATOM     31  C   UNL     1      -6.802  12.049   0.195  0.00  0.00    +0.038 A 
ATOM     32  S   UNL     1      -8.177  13.185   0.267  0.00  0.00    -0.095 S 
ATOM     33  C   UNL     1      -9.498  11.985   0.227  0.00  0.00    +0.046 A 
ENDBRANCH  20  31
BRANCH  22  34
ATOM     34  C   UNL     1      -3.070  15.347   0.304  0.00  0.00    +0.434 C 
ATOM     35  F   UNL     1      -4.149  16.222   0.475  0.00  0.00    -0.164 F 
ATOM     36  F   UNL     1      -2.187  15.480   1.381  0.00  0.00    -0.164 F 
ATOM     37  F   UNL     1      -2.404  15.656  -0.886  0.00  0.00    -0.164 F 
ENDBRANCH  22  34
ENDBRANCH   1  27
TORSDOF 4
