REMARK  Name = ZINC11369617
REMARK  4 active torsions:
REMARK  status: ('A' for Active; 'I' for Inactive)
REMARK    1  A    between atoms: N_13  and  C_17
REMARK    2  A    between atoms: C_17  and  C_18
REMARK    3  A    between atoms: C_21  and  C_31
REMARK    4  A    between atoms: C_24  and  C_26
REMARK                            x       y       z     vdW  Elec       q    Type
REMARK                         _______ _______ _______ _____ _____    ______ ____
ROOT
ATOM      1  C   UNL     1      -1.772   4.143   0.041  0.00  0.00    +0.215 C 
ENDROOT
BRANCH   1  14
ATOM      2  C   UNL     1       3.425   1.296   3.578  0.00  0.00    +0.000 A 
ATOM      3  C   UNL     1       2.208   1.953   3.610  0.00  0.00    +0.000 A 
ATOM      4  C   UNL     1       1.493   2.126   2.443  0.00  0.00    +0.006 A 
ATOM      5  C   UNL     1       1.983   1.646   1.236  0.00  0.00    -0.012 A 
ATOM      6  C   UNL     1       3.197   0.995   1.204  0.00  0.00    -0.042 A 
ATOM      7  C   UNL     1       3.915   0.821   2.380  0.00  0.00    +0.004 A 
ATOM      8  C   UNL     1       3.791   0.455  -0.071  0.00  0.00    +0.035 C 
ATOM      9  C   UNL     1       2.719   0.320  -1.150  0.00  0.00    +0.008 C 
ATOM     10  C   UNL     1       1.975   1.656  -1.266  0.00  0.00    +0.040 C 
ATOM     11  C   UNL     1       1.154   1.861   0.001  0.00  0.00    +0.138 C 
ATOM     12  C   UNL     1       0.549   3.247   0.014  0.00  0.00    +0.251 C 
ATOM     13  O   UNL     1       1.140   4.306   0.014  0.00  0.00    -0.272 OA
ATOM     14  N   UNL     1      -0.787   3.058   0.026  0.00  0.00    -0.215 N 
ATOM     15  C   UNL     1      -1.101   1.757   0.016  0.00  0.00    +0.310 C 
ATOM     16  O   UNL     1      -2.241   1.337   0.018  0.00  0.00    -0.252 OA
ATOM     17  N   UNL     1      -0.011   0.966   0.007  0.00  0.00    -0.281 N 
ATOM     18  H   UNL     1       0.002  -0.004   0.002  0.00  0.00    +0.152 HD
ENDBRANCH   1  14
BRANCH   1  19
ATOM     19  C   UNL     1      -2.123   4.521  -1.375  0.00  0.00    +0.253 C 
ATOM     20  O   UNL     1      -1.601   3.942  -2.305  0.00  0.00    -0.272 OA
ATOM     21  N   UNL     1      -3.016   5.503  -1.608  0.00  0.00    -0.181 N 
ATOM     22  C   UNL     1      -3.447   5.970  -2.936  0.00  0.00    +0.173 C 
ATOM     23  C   UNL     1      -4.461   7.087  -2.616  0.00  0.00    +0.090 C 
ATOM     24  C   UNL     1      -4.492   7.129  -1.105  0.00  0.00    +0.075 C 
ATOM     25  N   UNL     1      -3.686   6.237  -0.632  0.00  0.00    -0.180 NA
BRANCH  24  26
ATOM     26  C   UNL     1      -5.315   8.037  -0.300  0.00  0.00    +0.035 A 
ATOM     27  C   UNL     1      -5.410   8.140   1.077  0.00  0.00    +0.017 A 
ATOM     28  C   UNL     1      -6.259   9.085   1.605  0.00  0.00    +0.008 A 
ATOM     29  C   UNL     1      -6.981   9.873   0.766  0.00  0.00    +0.046 A 
ATOM     30  S   UNL     1      -6.462   9.294  -0.841  0.00  0.00    -0.095 S 
ENDBRANCH  24  26
BRANCH  22  31
ATOM     31  C   UNL     1      -2.277   6.519  -3.710  0.00  0.00    +0.128 A 
ATOM     32  C   UNL     1      -2.059   6.355  -5.028  0.00  0.00    +0.046 A 
ATOM     33  C   UNL     1      -0.857   7.033  -5.332  0.00  0.00    +0.041 A 
ATOM     34  C   UNL     1      -0.407   7.564  -4.180  0.00  0.00    +0.195 A 
ATOM     35  O   UNL     1      -1.271   7.249  -3.202  0.00  0.00    -0.466 OA
ENDBRANCH  22  31
ENDBRANCH   1  19
TORSDOF 4
