REMARK  Name = ZINC32596943
REMARK  5 active torsions:
REMARK  status: ('A' for Active; 'I' for Inactive)
REMARK    1  A    between atoms: C_1  and  C_2
REMARK    2  A    between atoms: C_5  and  S_9
REMARK    3  A    between atoms: S_9  and  N_12
REMARK    4  A    between atoms: N_12  and  C_13
REMARK    5  A    between atoms: C_18  and  C_19
REMARK                            x       y       z     vdW  Elec       q    Type
REMARK                         _______ _______ _______ _____ _____    ______ ____
ROOT
ATOM      1  N   UNL     1       3.390   1.164  -1.511  0.00  0.00    -0.215 N 
ATOM      2  H   UNL     1       4.402   1.588  -1.591  0.00  0.00    +0.174 HD
ENDROOT
BRANCH   1   3
ATOM      3  C   UNL     1       2.719   0.747  -2.654  0.00  0.00    +0.062 A 
ATOM      4  C   UNL     1       1.343   0.911  -2.755  0.00  0.00    +0.028 A 
ATOM      5  C   UNL     1       0.679   0.498  -3.891  0.00  0.00    +0.040 A 
ATOM      6  C   UNL     1       1.376  -0.084  -4.940  0.00  0.00    +0.124 A 
ATOM      7  C   UNL     1       2.742  -0.256  -4.858  0.00  0.00    +0.055 A 
ATOM      8  C   UNL     1       3.429   0.163  -3.715  0.00  0.00    +0.088 A 
ATOM      9  F   UNL     1       0.714  -0.485  -6.047  0.00  0.00    -0.205 F 
BRANCH   8  10
ATOM     10  C   UNL     1       4.889  -0.011  -3.622  0.00  0.00    +0.388 C 
ATOM     11  O   UNL     1       5.482   0.351  -2.625  0.00  0.00    -0.241 OA
ATOM     12  O   UNL     1       5.567  -0.572  -4.643  0.00  0.00    -0.241 OA
ENDBRANCH   8  10
ENDBRANCH   1   3
BRANCH   1  13
ATOM     13  S   UNL     1       2.666   1.023  -0.028  0.00  0.00    +0.073 S 
ATOM     14  O   UNL     1       3.605   1.495   0.929  0.00  0.00    -0.150 OA
ATOM     15  O   UNL     1       2.111  -0.284   0.030  0.00  0.00    -0.150 OA
BRANCH  13  20
ATOM     16  C   UNL     1      -1.977   4.876   0.064  0.00  0.00    +0.044 C 
ATOM     17  C   UNL     1      -0.817   3.914   0.041  0.00  0.00    -0.049 A 
ATOM     18  C   UNL     1      -1.045   2.554   0.141  0.00  0.00    +0.005 A 
ATOM     19  C   UNL     1       0.019   1.672   0.126  0.00  0.00    +0.030 A 
ATOM     20  C   UNL     1       1.311   2.148  -0.001  0.00  0.00    +0.122 A 
ATOM     21  C   UNL     1       1.539   3.508  -0.106  0.00  0.00    +0.045 A 
ATOM     22  C   UNL     1       0.474   4.391  -0.085  0.00  0.00    +0.020 A 
ATOM     23 BR   UNL     1       3.305   4.161  -0.278  0.00  0.00    -0.048 Br
ENDBRANCH  13  20
ENDBRANCH   1  13
TORSDOF 4
