REMARK  Name = ZINC06134770
REMARK  11 active torsions:
REMARK  status: ('A' for Active; 'I' for Inactive)
REMARK    1  A    between atoms: C_1  and  C_2
REMARK    2  A    between atoms: C_2  and  C_3
REMARK    3  A    between atoms: C_6  and  N_9
REMARK    4  A    between atoms: N_9  and  C_10
REMARK    5  A    between atoms: C_10  and  C_12
REMARK    6  A    between atoms: C_10  and  C_18
REMARK    7  A    between atoms: N_20  and  C_21
REMARK    8  A    between atoms: C_21  and  C_22
REMARK    9  A    between atoms: C_28  and  C_30
REMARK   10  A    between atoms: C_31  and  N_38
REMARK   11  A    between atoms: C_32  and  C_35
REMARK                            x       y       z     vdW  Elec       q    Type
REMARK                         _______ _______ _______ _____ _____    ______ ____
ROOT
ATOM      1  N   UNL     1      -1.683  -3.371  -0.304  0.00  0.00    -0.251 N 
ATOM      2  C   UNL     1      -1.559  -4.378   0.584  0.00  0.00    +0.262 C 
ATOM      3  O   UNL     1      -1.307  -4.134   1.749  0.00  0.00    -0.269 OA
ENDROOT
BRANCH   1   7
ATOM      4  C   UNL     1      -2.292  -4.215  -4.337  0.00  0.00    -0.048 A 
ATOM      5  C   UNL     1      -1.011  -4.224  -3.816  0.00  0.00    +0.005 A 
ATOM      6  C   UNL     1      -0.806  -3.944  -2.480  0.00  0.00    +0.024 A 
ATOM      7  C   UNL     1      -1.888  -3.655  -1.658  0.00  0.00    +0.038 A 
ATOM      8  C   UNL     1      -3.174  -3.653  -2.183  0.00  0.00    +0.024 A 
ATOM      9  C   UNL     1      -3.372  -3.927  -3.522  0.00  0.00    +0.005 A 
BRANCH   4  11
ATOM     10  C   UNL     1      -2.724  -6.025  -5.977  0.00  0.00    +0.009 C 
ATOM     11  C   UNL     1      -2.513  -4.521  -5.797  0.00  0.00    +0.032 C 
ENDBRANCH   4  11
ENDBRANCH   1   7
BRANCH   2  12
ATOM     12  C   UNL     1      -1.726  -5.765   0.146  0.00  0.00    +0.116 A 
ATOM     13  C   UNL     1      -1.562  -6.947   0.870  0.00  0.00    +0.076 A 
ATOM     14  C   UNL     1      -1.814  -8.084   0.101  0.00  0.00    +0.155 A 
ATOM     15  N   UNL     1      -2.163  -7.944  -1.159  0.00  0.00    -0.203 NA
ATOM     16  S   UNL     1      -2.203  -6.395  -1.450  0.00  0.00    +0.019 S 
BRANCH  14  17
ATOM     17  C   UNL     1      -1.690  -9.427   0.695  0.00  0.00    +0.262 C 
ATOM     18  O   UNL     1      -1.366  -9.549   1.861  0.00  0.00    -0.269 OA
ATOM     19  N   UNL     1      -1.936 -10.520  -0.054  0.00  0.00    -0.324 N 
ATOM     20  H   UNL     1      -2.194 -10.423  -0.984  0.00  0.00    +0.145 HD
ATOM     21  H   UNL     1      -1.855 -11.405   0.336  0.00  0.00    +0.145 HD
ENDBRANCH  14  17
BRANCH  13  22
ATOM     22  N   UNL     1      -1.188  -6.988   2.206  0.00  0.00    -0.355 N 
ATOM     23  H   UNL     1      -1.026  -6.162   2.690  0.00  0.00    +0.142 HD
ATOM     24  H   UNL     1      -1.089  -7.841   2.657  0.00  0.00    +0.142 HD
ENDBRANCH  13  22
ENDBRANCH   2  12
BRANCH   1  25
ATOM     25  C   UNL     1      -1.605  -1.981   0.150  0.00  0.00    +0.198 C 
BRANCH  25  26
ATOM     26  C   UNL     1      -0.562  -1.248  -0.654  0.00  0.00    -0.015 A 
ATOM     27  C   UNL     1      -0.800  -0.898  -1.975  0.00  0.00    +0.025 A 
ATOM     28  C   UNL     1       0.179  -0.223  -2.680  0.00  0.00    +0.111 A 
ATOM     29  N   UNL     1       1.330   0.080  -2.113  0.00  0.00    -0.263 NA
ATOM     30  C   UNL     1       1.593  -0.241  -0.861  0.00  0.00    +0.111 A 
ATOM     31  C   UNL     1       0.661  -0.913  -0.093  0.00  0.00    +0.025 A 
ENDBRANCH  25  26
BRANCH  25  32
ATOM     32  C   UNL     1      -2.944  -1.315  -0.039  0.00  0.00    +0.239 C 
ATOM     33  O   UNL     1      -3.872  -1.940  -0.506  0.00  0.00    -0.273 OA
ATOM     34  N   UNL     1      -3.109  -0.024   0.312  0.00  0.00    -0.309 N 
ATOM     35  H   UNL     1      -2.367   0.476   0.686  0.00  0.00    +0.149 HD
BRANCH  34  36
ATOM     36  C   UNL     1      -4.411   0.624   0.129  0.00  0.00    +0.139 C 
BRANCH  36  37
ATOM     37  C   UNL     1      -4.330   2.054   0.596  0.00  0.00    -0.030 A 
ATOM     38  C   UNL     1      -4.623   2.370   1.909  0.00  0.00    +0.005 A 
ATOM     39  C   UNL     1      -4.543   3.682   2.339  0.00  0.00    +0.000 A 
ATOM     40  C   UNL     1      -4.182   4.679   1.452  0.00  0.00    +0.000 A 
ATOM     41  C   UNL     1      -3.895   4.364   0.137  0.00  0.00    +0.000 A 
ATOM     42  C   UNL     1      -3.969   3.051  -0.291  0.00  0.00    +0.005 A 
ENDBRANCH  36  37
ENDBRANCH  34  36
ENDBRANCH  25  32
ENDBRANCH   1  25
TORSDOF 10
