REMARK  Name = ZINC12322344
REMARK  8 active torsions:
REMARK  status: ('A' for Active; 'I' for Inactive)
REMARK    1  A    between atoms: C_1  and  C_2
REMARK    2  A    between atoms: C_2  and  N_3
REMARK    3  A    between atoms: C_5  and  C_18
REMARK    4  A    between atoms: C_6  and  C_11
REMARK    5  A    between atoms: C_14  and  C_17
REMARK    6  A    between atoms: N_23  and  N_24
REMARK    7  A    between atoms: C_25  and  C_26
REMARK    8  A    between atoms: C_29  and  C_32
REMARK                            x       y       z     vdW  Elec       q    Type
REMARK                         _______ _______ _______ _____ _____    ______ ____
ROOT
ATOM      1  N   UNL     1       4.003   8.693   0.011  0.00  0.00    -0.262 N 
ATOM      2  C   UNL     1       2.930   7.817   0.011  0.00  0.00    +0.087 C 
ATOM      3  C   UNL     1       3.121   6.494   0.007  0.00  0.00    +0.017 C 
ATOM      4  C   UNL     1       4.547   5.982  -0.010  0.00  0.00    +0.138 C 
ATOM      5  N   UNL     1       5.621   6.989  -0.015  0.00  0.00    -0.288 N 
ATOM      6  C   UNL     1       5.281   8.293  -0.004  0.00  0.00    +0.307 C 
ATOM      7  O   UNL     1       6.162   9.131  -0.008  0.00  0.00    -0.252 OA
ATOM      8  H   UNL     1       6.553   6.719  -0.025  0.00  0.00    +0.151 HD
ENDROOT
BRANCH   4   9
ATOM      9  C   UNL     1       4.739   5.105   1.200  0.00  0.00    -0.023 A 
ATOM     10  C   UNL     1       4.979   5.675   2.436  0.00  0.00    +0.006 A 
ATOM     11  C   UNL     1       5.150   4.870   3.547  0.00  0.00    +0.004 A 
ATOM     12  C   UNL     1       5.092   3.495   3.420  0.00  0.00    -0.050 A 
ATOM     13  C   UNL     1       4.857   2.925   2.182  0.00  0.00    +0.004 A 
ATOM     14  C   UNL     1       4.680   3.730   1.073  0.00  0.00    +0.006 A 
ATOM     15  C   UNL     1       5.285   2.617   4.629  0.00  0.00    +0.044 C 
ENDBRANCH   4   9
BRANCH   3  16
ATOM     16  C   UNL     1       1.977   5.559   0.013  0.00  0.00    +0.080 A 
ATOM     17  C   UNL     1       0.694   6.036   0.028  0.00  0.00    +0.076 A 
ATOM     18  S   UNL     1      -0.231   4.506   0.029  0.00  0.00    -0.059 S 
ATOM     19  C   UNL     1       1.169   3.396   0.009  0.00  0.00    +0.178 A 
ATOM     20  N   UNL     1       2.182   4.244   0.009  0.00  0.00    -0.224 NA
ATOM     21  N   UNL     1       1.188   2.011   0.002  0.00  0.00    -0.215 N 
ATOM     22  H   UNL     1       2.035   1.538  -0.009  0.00  0.00    +0.176 HD
BRANCH  21  23
ATOM     23  N   UNL     1      -0.015   1.294   0.009  0.00  0.00    -0.188 NA
ATOM     24  C   UNL     1       0.002  -0.004   0.002  0.00  0.00    +0.138 C 
BRANCH  24  25
ATOM     25  C   UNL     1      -1.265  -0.759   0.010  0.00  0.00    -0.005 A 
ATOM     26  C   UNL     1      -2.486  -0.080   0.031  0.00  0.00    +0.010 A 
ATOM     27  C   UNL     1      -3.667  -0.792   0.033  0.00  0.00    +0.004 A 
ATOM     28  C   UNL     1      -3.644  -2.176   0.025  0.00  0.00    -0.050 A 
ATOM     29  C   UNL     1      -2.438  -2.855   0.010  0.00  0.00    +0.004 A 
ATOM     30  C   UNL     1      -1.250  -2.156   0.002  0.00  0.00    +0.010 A 
ATOM     31  C   UNL     1      -4.939  -2.947   0.033  0.00  0.00    +0.044 C 
ENDBRANCH  24  25
ENDBRANCH  21  23
ENDBRANCH   3  16
BRANCH   1  33
ATOM     32  C   UNL     1       3.614  10.641  -1.416  0.00  0.00    +0.025 C 
ATOM     33  C   UNL     1       3.725  10.131   0.023  0.00  0.00    +0.111 C 
ENDBRANCH   1  33
TORSDOF 5
