REMARK  Name = ZINC01352754
REMARK  5 active torsions:
REMARK  status: ('A' for Active; 'I' for Inactive)
REMARK    1  A    between atoms: C_1  and  C_2
REMARK    2  A    between atoms: C_7  and  C_14
REMARK    3  A    between atoms: C_14  and  N_15
REMARK    4  A    between atoms: N_15  and  C_16
REMARK    5  A    between atoms: N_24  and  C_25
REMARK                            x       y       z     vdW  Elec       q    Type
REMARK                         _______ _______ _______ _____ _____    ______ ____
ROOT
ATOM      1  N   UNL     1      -0.066   1.119  -2.436  0.00  0.00    -0.278 N 
ATOM      2  C   UNL     1       1.182   1.545  -2.712  0.00  0.00    +0.303 C 
ATOM      3  O   UNL     1       1.716   1.227  -3.757  0.00  0.00    -0.253 OA
ATOM      4  N   UNL     1       1.839   2.324  -1.829  0.00  0.00    -0.296 N 
ATOM      5  H   UNL     1       1.442   2.519  -0.966  0.00  0.00    +0.151 HD
ENDROOT
BRANCH   1   6
ATOM      6  C   UNL     1      -0.750   1.586  -1.227  0.00  0.00    +0.078 C 
ATOM      7  C   UNL     1      -0.013   1.066   0.008  0.00  0.00    +0.022 C 
ATOM      8  C   UNL     1      -0.726   1.554   1.271  0.00  0.00    +0.002 C 
ATOM      9  C   UNL     1      -0.739   3.083   1.291  0.00  0.00    +0.000 C 
ATOM     10  C   UNL     1      -1.476   3.604   0.055  0.00  0.00    +0.002 C 
ATOM     11  C   UNL     1      -0.762   3.116  -1.207  0.00  0.00    +0.022 C 
ENDBRANCH   1   6
BRANCH   4  12
ATOM     12  C   UNL     1       3.151   2.876  -2.174  0.00  0.00    +0.074 C 
ATOM     13  C   UNL     1       4.237   1.848  -1.852  0.00  0.00    +0.022 C 
ATOM     14  C   UNL     1       5.608   2.425  -2.212  0.00  0.00    +0.002 C 
ATOM     15  C   UNL     1       5.854   3.699  -1.401  0.00  0.00    +0.000 C 
ATOM     16  C   UNL     1       4.768   4.727  -1.724  0.00  0.00    +0.002 C 
ATOM     17  C   UNL     1       3.397   4.150  -1.363  0.00  0.00    +0.022 C 
ENDBRANCH   4  12
BRANCH   1  18
ATOM     18  C   UNL     1      -0.740   0.188  -3.345  0.00  0.00    +0.150 C 
BRANCH  18  25
ATOM     19  C   UNL     1      -4.008   4.203  -9.414  0.00  0.00    +0.044 C 
ATOM     20  C   UNL     1      -3.204   3.421  -8.407  0.00  0.00    -0.048 A 
ATOM     21  C   UNL     1      -1.924   2.993  -8.732  0.00  0.00    +0.004 A 
ATOM     22  C   UNL     1      -1.179   2.283  -7.834  0.00  0.00    +0.010 A 
ATOM     23  C   UNL     1      -1.711   1.984  -6.575  0.00  0.00    -0.001 A 
ATOM     24  C   UNL     1      -0.938   1.231  -5.586  0.00  0.00    +0.020 A 
ATOM     25  C   UNL     1      -1.506   0.967  -4.383  0.00  0.00    +0.035 A 
ATOM     26  C   UNL     1      -2.811   1.423  -4.099  0.00  0.00    +0.254 A 
ATOM     27  O   UNL     1      -3.302   1.179  -3.010  0.00  0.00    -0.268 OA
ATOM     28  N   UNL     1      -3.527   2.120  -4.999  0.00  0.00    -0.322 N 
ATOM     29  H   UNL     1      -4.449   2.428  -4.763  0.00  0.00    +0.169 HD
ATOM     30  C   UNL     1      -3.008   2.416  -6.241  0.00  0.00    +0.049 A 
ATOM     31  C   UNL     1      -3.748   3.137  -7.173  0.00  0.00    +0.029 A 
ENDBRANCH  18  25
ENDBRANCH   1  18
TORSDOF 4
