REMARK  Name = ZINC36608207
REMARK  7 active torsions:
REMARK  status: ('A' for Active; 'I' for Inactive)
REMARK    1  A    between atoms: C_4  and  N_7
REMARK    2  A    between atoms: N_7  and  C_8
REMARK    3  A    between atoms: C_8  and  C_10
REMARK    4  A    between atoms: C_8  and  C_19
REMARK    5  A    between atoms: N_21  and  C_22
REMARK    6  A    between atoms: C_28  and  C_30
REMARK    7  A    between atoms: C_35  and  O_36
REMARK                            x       y       z     vdW  Elec       q    Type
REMARK                         _______ _______ _______ _____ _____    ______ ____
ROOT
ATOM      1  C   UNL     1       5.232  -2.553  -0.629  0.00  0.00    +0.198 C 
ENDROOT
BRANCH   1   2
ATOM      2  C   UNL     1       5.756  -2.937  -1.989  0.00  0.00    -0.014 A 
ATOM      3  C   UNL     1       4.990  -2.704  -3.115  0.00  0.00    +0.010 A 
ATOM      4  C   UNL     1       5.467  -3.054  -4.365  0.00  0.00    +0.050 A 
ATOM      5  C   UNL     1       6.715  -3.641  -4.491  0.00  0.00    +0.166 A 
ATOM      6  C   UNL     1       7.488  -3.876  -3.356  0.00  0.00    +0.167 A 
ATOM      7  C   UNL     1       7.006  -3.517  -2.108  0.00  0.00    +0.055 A 
ATOM      8  O   UNL     1       8.662  -4.456  -3.740  0.00  0.00    -0.453 OA
ATOM      9  C   UNL     1       8.430  -4.946  -5.074  0.00  0.00    +0.466 C 
ATOM     10  O   UNL     1       7.406  -4.073  -5.586  0.00  0.00    -0.453 OA
ENDBRANCH   1   2
BRANCH   1  11
ATOM     11  C   UNL     1       3.832  -3.085  -0.462  0.00  0.00    +0.239 C 
ATOM     12  O   UNL     1       2.913  -2.320  -0.260  0.00  0.00    -0.273 OA
ATOM     13  N   UNL     1       3.602  -4.411  -0.537  0.00  0.00    -0.311 N 
ATOM     14  H   UNL     1       4.337  -5.022  -0.699  0.00  0.00    +0.149 HD
BRANCH  13  15
ATOM     15  C   UNL     1       2.241  -4.928  -0.375  0.00  0.00    +0.073 C 
ATOM     16  C   UNL     1       1.938  -5.108   1.114  0.00  0.00    +0.022 C 
ATOM     17  C   UNL     1       0.517  -5.649   1.284  0.00  0.00    +0.002 C 
ATOM     18  C   UNL     1       0.395  -6.997   0.572  0.00  0.00    +0.000 C 
ATOM     19  C   UNL     1       0.698  -6.817  -0.917  0.00  0.00    +0.002 C 
ATOM     20  C   UNL     1       2.119  -6.277  -1.087  0.00  0.00    +0.022 C 
ENDBRANCH  13  15
ENDBRANCH   1  11
BRANCH   1  21
ATOM     21  N   UNL     1       5.218  -1.093  -0.506  0.00  0.00    -0.251 N 
ATOM     22  C   UNL     1       5.222  -0.519   0.713  0.00  0.00    +0.255 C 
ATOM     23  O   UNL     1       4.834   0.625   0.848  0.00  0.00    -0.269 OA
BRANCH  21  27
ATOM     24  C   UNL     1       5.162   1.286  -3.925  0.00  0.00    +0.000 A 
ATOM     25  C   UNL     1       4.008   0.645  -3.512  0.00  0.00    +0.002 A 
ATOM     26  C   UNL     1       4.023  -0.144  -2.378  0.00  0.00    +0.023 A 
ATOM     27  C   UNL     1       5.199  -0.295  -1.655  0.00  0.00    +0.038 A 
ATOM     28  C   UNL     1       6.356   0.350  -2.073  0.00  0.00    +0.023 A 
ATOM     29  C   UNL     1       6.334   1.138  -3.207  0.00  0.00    +0.002 A 
ENDBRANCH  21  27
BRANCH  22  30
ATOM     30  C   UNL     1       5.698  -1.280   1.884  0.00  0.00    +0.079 A 
ATOM     31  C   UNL     1       5.276  -2.597   2.085  0.00  0.00    +0.017 A 
ATOM     32  C   UNL     1       5.723  -3.302   3.181  0.00  0.00    +0.001 A 
ATOM     33  C   UNL     1       6.591  -2.711   4.086  0.00  0.00    +0.004 A 
ATOM     34  C   UNL     1       7.016  -1.411   3.899  0.00  0.00    +0.046 A 
ATOM     35  C   UNL     1       6.580  -0.689   2.798  0.00  0.00    +0.129 A 
BRANCH  35  36
ATOM     36  O   UNL     1       7.002   0.587   2.610  0.00  0.00    -0.506 OA
ATOM     37  H   UNL     1       6.438   1.253   3.026  0.00  0.00    +0.292 HD
ENDBRANCH  35  36
ENDBRANCH  22  30
ENDBRANCH   1  21
TORSDOF 7
