REMARK  Name = ZINC00931887
REMARK  14 active torsions:
REMARK  status: ('A' for Active; 'I' for Inactive)
REMARK    1  A    between atoms: C_1  and  C_2
REMARK    2  A    between atoms: C_7  and  C_15
REMARK    3  A    between atoms: C_13  and  C_14
REMARK    4  A    between atoms: C_15  and  N_16
REMARK    5  A    between atoms: N_16  and  C_17
REMARK    6  A    between atoms: N_16  and  C_23
REMARK    7  A    between atoms: C_23  and  N_25
REMARK    8  A    between atoms: N_25  and  C_26
REMARK    9  A    between atoms: C_26  and  C_27
REMARK   10  A    between atoms: C_27  and  C_28
REMARK   11  A    between atoms: C_31  and  O_36
REMARK   12  A    between atoms: C_32  and  O_34
REMARK   13  A    between atoms: O_34  and  C_35
REMARK   14  A    between atoms: O_36  and  C_37
REMARK                            x       y       z     vdW  Elec       q    Type
REMARK                         _______ _______ _______ _____ _____    ______ ____
ROOT
ATOM      1  N   UNL     1       2.711  -4.740  -1.454  0.00  0.00    -0.305 N 
ENDROOT
BRANCH   1   2
ATOM      2  C   UNL     1       3.949  -4.984  -2.198  0.00  0.00    +0.075 C 
ATOM      3  C   UNL     1       3.915  -4.203  -3.514  0.00  0.00    +0.022 C 
ATOM      4  C   UNL     1       5.208  -4.458  -4.291  0.00  0.00    +0.002 C 
ATOM      5  C   UNL     1       5.338  -5.954  -4.589  0.00  0.00    +0.000 C 
ATOM      6  C   UNL     1       5.371  -6.734  -3.273  0.00  0.00    +0.002 C 
ATOM      7  C   UNL     1       4.078  -6.479  -2.496  0.00  0.00    +0.022 C 
ENDBRANCH   1   2
BRANCH   1   8
ATOM      8  C   UNL     1       1.518  -4.966  -2.038  0.00  0.00    +0.133 C 
ATOM      9  S   UNL     1       0.071  -4.567  -1.213  0.00  0.00    -0.019 S 
BRANCH   8  10
ATOM     10  N   UNL     1       1.462  -5.507  -3.271  0.00  0.00    -0.326 N 
ATOM     11  H   UNL     1       2.277  -5.799  -3.709  0.00  0.00    +0.148 HD
BRANCH  10  12
ATOM     12  C   UNL     1       0.172  -5.653  -3.950  0.00  0.00    +0.108 C 
BRANCH  12  13
ATOM     13  C   UNL     1       0.389  -6.289  -5.324  0.00  0.00    +0.054 C 
BRANCH  13  14
ATOM     14  C   UNL     1      -0.938  -6.440  -6.022  0.00  0.00    -0.042 A 
ATOM     15  C   UNL     1      -1.673  -7.600  -5.864  0.00  0.00    +0.007 A 
ATOM     16  C   UNL     1      -2.894  -7.740  -6.497  0.00  0.00    +0.049 A 
ATOM     17  C   UNL     1      -3.378  -6.722  -7.303  0.00  0.00    +0.161 A 
ATOM     18  C   UNL     1      -2.635  -5.557  -7.468  0.00  0.00    +0.162 A 
ATOM     19  C   UNL     1      -1.415  -5.420  -6.825  0.00  0.00    +0.053 A 
BRANCH  18  20
ATOM     20  O   UNL     1      -3.106  -4.555  -8.257  0.00  0.00    -0.491 OA
ATOM     21  C   UNL     1      -2.290  -3.388  -8.380  0.00  0.00    +0.277 C 
ENDBRANCH  18  20
BRANCH  17  22
ATOM     22  O   UNL     1      -4.576  -6.861  -7.931  0.00  0.00    -0.491 OA
ATOM     23  C   UNL     1      -5.283  -8.084  -7.717  0.00  0.00    +0.277 C 
ENDBRANCH  17  22
ENDBRANCH  13  14
ENDBRANCH  12  13
ENDBRANCH  10  12
ENDBRANCH   8  10
ENDBRANCH   1   8
BRANCH   1  24
ATOM     24  C   UNL     1       2.770  -4.250  -0.074  0.00  0.00    +0.147 C 
BRANCH  24  31
ATOM     25  C   UNL     1       1.795   3.666   0.043  0.00  0.00    +0.044 C 
ATOM     26  C   UNL     1       1.748   2.159   0.052  0.00  0.00    -0.046 A 
ATOM     27  C   UNL     1       0.530   1.511   0.212  0.00  0.00    +0.004 A 
ATOM     28  C   UNL     1       0.466   0.147   0.222  0.00  0.00    +0.010 A 
ATOM     29  C   UNL     1       1.636  -0.604   0.069  0.00  0.00    -0.001 A 
ATOM     30  C   UNL     1       1.603  -2.068   0.076  0.00  0.00    +0.020 A 
ATOM     31  C   UNL     1       2.769  -2.743  -0.076  0.00  0.00    +0.035 A 
ATOM     32  C   UNL     1       3.982  -2.039  -0.236  0.00  0.00    +0.254 A 
ATOM     33  O   UNL     1       5.019  -2.665  -0.371  0.00  0.00    -0.268 OA
ATOM     34  N   UNL     1       4.022  -0.695  -0.243  0.00  0.00    -0.322 N 
ATOM     35  H   UNL     1       4.873  -0.243  -0.356  0.00  0.00    +0.169 HD
ATOM     36  C   UNL     1       2.872   0.050  -0.094  0.00  0.00    +0.052 A 
ATOM     37  C   UNL     1       2.913   1.440  -0.101  0.00  0.00    -0.024 A 
ATOM     38  C   UNL     1       4.227   2.157  -0.274  0.00  0.00    +0.046 C 
ENDBRANCH  24  31
ENDBRANCH   1  24
TORSDOF 10
