REMARK  Name = ZINC08602237
REMARK  10 active torsions:
REMARK  status: ('A' for Active; 'I' for Inactive)
REMARK    1  A    between atoms: C_1  and  C_2
REMARK    2  A    between atoms: C_5  and  N_9
REMARK    3  A    between atoms: C_6  and  C_8
REMARK    4  A    between atoms: C_10  and  C_12
REMARK    5  A    between atoms: C_12  and  N_13
REMARK    6  A    between atoms: C_21  and  C_24
REMARK    7  A    between atoms: C_24  and  N_25
REMARK    8  A    between atoms: N_25  and  C_26
REMARK    9  A    between atoms: C_29  and  O_32
REMARK   10  A    between atoms: O_32  and  C_33
REMARK                            x       y       z     vdW  Elec       q    Type
REMARK                         _______ _______ _______ _____ _____    ______ ____
ROOT
ATOM      1  N   UNL     1      -0.232  -6.826  -2.567  0.00  0.00    -0.299 N 
ATOM      2  C   UNL     1      -1.474  -6.970  -3.150  0.00  0.00    +0.056 A 
ATOM      3  C   UNL     1      -2.632  -6.665  -2.445  0.00  0.00    +0.076 A 
ATOM      4  C   UNL     1      -3.868  -6.816  -3.045  0.00  0.00    +0.168 A 
ATOM      5  C   UNL     1      -3.964  -7.274  -4.365  0.00  0.00    +0.167 A 
ATOM      6  C   UNL     1      -2.826  -7.581  -5.078  0.00  0.00    +0.059 A 
ATOM      7  C   UNL     1      -1.569  -7.433  -4.477  0.00  0.00    +0.003 A 
ATOM      8  C   UNL     1      -0.343  -7.752  -5.206  0.00  0.00    +0.020 A 
ATOM      9  C   UNL     1       0.848  -7.589  -4.575  0.00  0.00    +0.035 A 
ATOM     10  C   UNL     1       0.890  -7.117  -3.248  0.00  0.00    +0.257 A 
ATOM     11  O   UNL     1       1.971  -6.973  -2.702  0.00  0.00    -0.267 OA
ATOM     12  O   UNL     1      -5.285  -7.330  -4.710  0.00  0.00    -0.453 OA
ATOM     13  C   UNL     1      -6.008  -7.298  -3.466  0.00  0.00    +0.466 C 
ATOM     14  O   UNL     1      -5.128  -6.588  -2.574  0.00  0.00    -0.453 OA
ENDROOT
BRANCH   1  15
ATOM     15  C   UNL     1      -0.134  -6.343  -1.187  0.00  0.00    +0.221 C 
BRANCH  15  17
ATOM     16  N   UNL     1       0.059  -4.170  -0.021  0.00  0.00    -0.284 N 
ATOM     17  C   UNL     1      -0.040  -4.839  -1.187  0.00  0.00    +0.237 C 
ATOM     18  O   UNL     1      -0.054  -4.230  -2.236  0.00  0.00    -0.274 OA
ATOM     19  H   UNL     1       0.135  -4.658   0.814  0.00  0.00    +0.155 HD
BRANCH  16  24
ATOM     20  C   UNL     1       0.025   1.503   0.005  0.00  0.00    +0.044 C 
ATOM     21  C   UNL     1       0.034  -0.004  -0.002  0.00  0.00    -0.050 A 
ATOM     22  C   UNL     1       0.632  -0.685  -1.046  0.00  0.00    +0.005 A 
ATOM     23  C   UNL     1       0.641  -2.066  -1.055  0.00  0.00    +0.024 A 
ATOM     24  C   UNL     1       0.051  -2.771  -0.014  0.00  0.00    +0.036 A 
ATOM     25  C   UNL     1      -0.548  -2.083   1.033  0.00  0.00    -0.029 A 
ATOM     26  C   UNL     1      -0.550  -0.702   1.039  0.00  0.00    +0.008 A 
ATOM     27  C   UNL     1      -1.190  -2.843   2.165  0.00  0.00    +0.045 C 
ENDBRANCH  16  24
ENDBRANCH  15  17
ENDBRANCH   1  15
BRANCH   9  28
ATOM     28  C   UNL     1       2.131  -7.910  -5.298  0.00  0.00    +0.142 C 
BRANCH  28  29
ATOM     29  N   UNL     1       2.675  -6.686  -5.893  0.00  0.00    -0.340 N 
ATOM     30  H   UNL     1       2.207  -5.844  -5.783  0.00  0.00    +0.146 HD
BRANCH  29  31
ATOM     31  C   UNL     1       3.870  -6.733  -6.620  0.00  0.00    +0.028 A 
ATOM     32  C   UNL     1       4.537  -7.940  -6.783  0.00  0.00    +0.026 A 
ATOM     33  C   UNL     1       5.715  -7.986  -7.501  0.00  0.00    +0.047 A 
ATOM     34  C   UNL     1       6.233  -6.826  -8.060  0.00  0.00    +0.120 A 
ATOM     35  C   UNL     1       5.568  -5.620  -7.897  0.00  0.00    +0.047 A 
ATOM     36  C   UNL     1       4.386  -5.574  -7.184  0.00  0.00    +0.026 A 
BRANCH  34  37
ATOM     37  O   UNL     1       7.394  -6.872  -8.767  0.00  0.00    -0.495 OA
ATOM     38  C   UNL     1       7.869  -5.640  -9.314  0.00  0.00    +0.277 C 
ENDBRANCH  34  37
ENDBRANCH  29  31
ENDBRANCH  28  29
ENDBRANCH   9  28
TORSDOF 7
