REMARK  Name = ZINC28048722
REMARK  5 active torsions:
REMARK  status: ('A' for Active; 'I' for Inactive)
REMARK    1  A    between atoms: C_1  and  C_2
REMARK    2  A    between atoms: C_2  and  N_3
REMARK    3  A    between atoms: C_12  and  O_13
REMARK    4  A    between atoms: C_14  and  N_15
REMARK    5  A    between atoms: N_18  and  C_19
REMARK                            x       y       z     vdW  Elec       q    Type
REMARK                         _______ _______ _______ _____ _____    ______ ____
ROOT
ATOM      1  N   UNL     1       3.564   3.570  -1.220  0.00  0.00    -0.383 N 
ATOM      2  C   UNL     1       2.378   4.051  -0.698  0.00  0.00    +0.075 A 
ATOM      3  C   UNL     1       1.147   3.245  -0.742  0.00  0.00    +0.042 A 
ATOM      4  C   UNL     1       1.142   1.971  -1.313  0.00  0.00    +0.013 A 
ATOM      5  C   UNL     1      -0.026   1.241  -1.339  0.00  0.00    +0.001 A 
ATOM      6  C   UNL     1      -1.193   1.769  -0.806  0.00  0.00    +0.004 A 
ATOM      7  C   UNL     1      -1.200   3.024  -0.234  0.00  0.00    +0.047 A 
ATOM      8  C   UNL     1      -0.033   3.777  -0.198  0.00  0.00    +0.141 A 
ATOM      9  O   UNL     1      -0.027   5.009   0.355  0.00  0.00    -0.424 OA
ATOM     10  C   UNL     1       1.085   5.760   0.405  0.00  0.00    +0.309 A 
ATOM     11  C   UNL     1       2.310   5.305  -0.117  0.00  0.00    +0.140 A 
ATOM     12  H   UNL     1       4.006   2.646  -0.821  0.00  0.00    +0.160 HD
ENDROOT
BRANCH  11  13
ATOM     13  N   UNL     1       3.455   6.118  -0.048  0.00  0.00    -0.262 N 
ATOM     14  C   UNL     1       3.394   7.404  -0.445  0.00  0.00    +0.308 C 
ATOM     15  O   UNL     1       2.325   7.893  -0.760  0.00  0.00    -0.252 OA
ATOM     16  N   UNL     1       4.516   8.149  -0.493  0.00  0.00    -0.267 N 
ATOM     17  H   UNL     1       4.402   5.704   0.330  0.00  0.00    +0.157 HD
ATOM     18  H   UNL     1       5.493   7.685  -0.293  0.00  0.00    +0.156 HD
BRANCH  16  19
ATOM     19  C   UNL     1       4.438   9.515  -0.798  0.00  0.00    +0.070 A 
ATOM     20  C   UNL     1       3.453   9.980  -1.658  0.00  0.00    +0.029 A 
ATOM     21  C   UNL     1       3.377  11.326  -1.957  0.00  0.00    +0.040 A 
ATOM     22  C   UNL     1       4.282  12.213  -1.400  0.00  0.00    +0.126 A 
ATOM     23  C   UNL     1       5.267  11.754  -0.542  0.00  0.00    +0.078 A 
ATOM     24  C   UNL     1       5.343  10.407  -0.235  0.00  0.00    +0.147 A 
ATOM     25  F   UNL     1       6.300   9.959   0.606  0.00  0.00    -0.203 F 
ATOM     26  F   UNL     1       4.206  13.530  -1.695  0.00  0.00    -0.205 F 
ENDBRANCH  16  19
ENDBRANCH  11  13
BRANCH   1  28
ATOM     27  C   UNL     1       5.369   3.880  -2.846  0.00  0.00    +0.026 C 
ATOM     28  C   UNL     1       4.058   4.443  -2.294  0.00  0.00    +0.109 C 
ENDBRANCH   1  28
BRANCH  10  29
ATOM     29  O   UNL     1       1.032   6.865   0.916  0.00  0.00    -0.479 OA
ATOM     30  H   UNL     1       1.934   7.492   0.965  0.00  0.00    +0.295 HD
ENDBRANCH  10  29
TORSDOF 4
