REMARK  Name = ZINC59773850
REMARK  6 active torsions:
REMARK  status: ('A' for Active; 'I' for Inactive)
REMARK    1  A    between atoms: C_1  and  C_2
REMARK    2  A    between atoms: C_3  and  C_20
REMARK    3  A    between atoms: C_8  and  C_10
REMARK    4  A    between atoms: C_10  and  C_11
REMARK    5  A    between atoms: C_16  and  N_17
REMARK    6  A    between atoms: C_20  and  C_21
REMARK                            x       y       z     vdW  Elec       q    Type
REMARK                         _______ _______ _______ _____ _____    ______ ____
ROOT
ATOM      1  C   UNL     1       0.329   0.316  -0.435  0.00  0.00    +0.066 C 
ATOM      2  C   UNL     1       0.227  -1.169  -0.202  0.00  0.00    +0.051 A 
ATOM      3  C   UNL     1       0.185  -2.047  -1.235  0.00  0.00    +0.018 A 
ATOM      4  S   UNL     1       0.069  -3.594  -0.352  0.00  0.00    -0.056 S 
ATOM      5  C   UNL     1       0.085  -2.972   1.212  0.00  0.00    +0.165 A 
ATOM      6  N   UNL     1       0.179  -1.674   1.017  0.00  0.00    -0.230 NA
ATOM      7  N   UNL     1       0.019  -3.662   2.417  0.00  0.00    -0.264 N 
ATOM      8  C   UNL     1       0.045  -2.986   3.583  0.00  0.00    +0.223 C 
ATOM      9  O   UNL     1       0.126  -1.776   3.580  0.00  0.00    -0.275 OA
ATOM     10  H   UNL     1      -0.045  -4.630   2.419  0.00  0.00    +0.157 HD
ENDROOT
BRANCH   8  11
ATOM     11  C   UNL     1      -0.025  -3.734   4.889  0.00  0.00    +0.133 C 
BRANCH  11  12
ATOM     12  C   UNL     1       0.021  -2.753   6.032  0.00  0.00    -0.008 A 
ATOM     13  C   UNL     1       1.203  -2.550   6.721  0.00  0.00    +0.006 A 
ATOM     14  C   UNL     1       1.245  -1.651   7.769  0.00  0.00    +0.000 A 
ATOM     15  C   UNL     1       0.107  -0.954   8.130  0.00  0.00    +0.002 A 
ATOM     16  C   UNL     1      -1.074  -1.157   7.441  0.00  0.00    +0.033 A 
ATOM     17  C   UNL     1      -1.116  -2.053   6.389  0.00  0.00    +0.130 A 
BRANCH  17  18
ATOM     18  N   UNL     1      -2.379  -2.266   5.648  0.00  0.00    +0.057 N 
ATOM     19  O   UNL     1      -3.399  -1.738   6.026  0.00  0.00    -0.126 OA
ATOM     20  O   UNL     1      -2.392  -2.968   4.664  0.00  0.00    -0.126 OA
ENDBRANCH  17  18
ENDBRANCH  11  12
ENDBRANCH   8  11
BRANCH   3  21
ATOM     21  C   UNL     1       0.226  -1.787  -2.719  0.00  0.00    +0.081 C 
BRANCH  21  22
ATOM     22  C   UNL     1       1.657  -1.794  -3.191  0.00  0.00    -0.024 A 
ATOM     23  C   UNL     1       2.357  -0.607  -3.292  0.00  0.00    +0.005 A 
ATOM     24  C   UNL     1       3.670  -0.613  -3.725  0.00  0.00    +0.000 A 
ATOM     25  C   UNL     1       4.283  -1.807  -4.057  0.00  0.00    +0.001 A 
ATOM     26  C   UNL     1       3.584  -2.994  -3.956  0.00  0.00    +0.020 A 
ATOM     27  C   UNL     1       2.272  -2.990  -3.517  0.00  0.00    +0.044 A 
ATOM     28 CL   UNL     1       1.396  -4.482  -3.383  0.00  0.00    -0.083 Cl
ENDBRANCH  21  22
ENDBRANCH   3  21
TORSDOF 5
