REMARK  Name = ZINC10395061
REMARK  9 active torsions:
REMARK  status: ('A' for Active; 'I' for Inactive)
REMARK    1  A    between atoms: C_1  and  C_2
REMARK    2  A    between atoms: C_3  and  C_33
REMARK    3  A    between atoms: C_7  and  N_32
REMARK    4  A    between atoms: C_9  and  C_11
REMARK    5  A    between atoms: C_11  and  S_12
REMARK    6  A    between atoms: S_12  and  C_13
REMARK    7  A    between atoms: C_16  and  C_26
REMARK    8  A    between atoms: N_17  and  C_18
REMARK    9  A    between atoms: C_23  and  C_24
REMARK                            x       y       z     vdW  Elec       q    Type
REMARK                         _______ _______ _______ _____ _____    ______ ____
ROOT
ATOM      1  C   UNL     1       1.152   4.561  -1.309  0.00  0.00    +0.197 A 
ATOM      2  N   UNL     1       1.127   5.777  -0.808  0.00  0.00    -0.122 NA
ATOM      3  N   UNL     1       1.162   5.726   0.476  0.00  0.00    -0.128 NA
ATOM      4  C   UNL     1       1.204   4.476   0.875  0.00  0.00    +0.169 A 
ATOM      5  N   UNL     1       1.205   3.690  -0.257  0.00  0.00    -0.270 N 
ENDROOT
BRANCH   5   6
ATOM      6  C   UNL     1       1.247   2.290  -0.316  0.00  0.00    +0.055 A 
ATOM      7  C   UNL     1       2.468   1.632  -0.377  0.00  0.00    +0.026 A 
ATOM      8  C   UNL     1       2.506   0.253  -0.435  0.00  0.00    +0.003 A 
ATOM      9  C   UNL     1       1.330  -0.474  -0.434  0.00  0.00    +0.020 A 
ATOM     10  C   UNL     1       0.111   0.178  -0.375  0.00  0.00    +0.046 A 
ATOM     11  C   UNL     1       0.067   1.559  -0.316  0.00  0.00    -0.008 A 
ATOM     12  C   UNL     1      -1.261   2.270  -0.257  0.00  0.00    +0.047 C 
ATOM     13 CL   UNL     1      -1.364  -0.737  -0.374  0.00  0.00    -0.083 Cl
ENDBRANCH   5   6
BRANCH   4  14
ATOM     14  C   UNL     1       1.246   4.002   2.274  0.00  0.00    +0.022 A 
ATOM     15  C   UNL     1       0.976   2.664   2.589  0.00  0.00    +0.031 A 
ATOM     16  C   UNL     1       1.030   2.264   3.908  0.00  0.00    +0.111 A 
ATOM     17  N   UNL     1       1.323   3.124   4.865  0.00  0.00    -0.263 NA
ATOM     18  C   UNL     1       1.579   4.394   4.613  0.00  0.00    +0.111 A 
ATOM     19  C   UNL     1       1.552   4.879   3.322  0.00  0.00    +0.031 A 
ENDBRANCH   4  14
BRANCH   1  20
ATOM     20  S   UNL     1       1.122   4.134  -3.018  0.00  0.00    -0.078 S 
BRANCH  20  21
ATOM     21  C   UNL     1       1.052   5.786  -3.754  0.00  0.00    +0.153 C 
BRANCH  21  30
ATOM     22  C   UNL     1       1.907   5.295 -10.355  0.00  0.00    +0.045 C 
ATOM     23  C   UNL     1       0.743   5.332  -9.399  0.00  0.00    -0.028 A 
ATOM     24  C   UNL     1      -0.515   5.254  -9.858  0.00  0.00    -0.008 A 
ATOM     25  S   UNL     1      -1.505   5.338  -8.378  0.00  0.00    -0.074 S 
ATOM     26  C   UNL     1      -0.202   5.475  -7.182  0.00  0.00    +0.114 A 
ATOM     27  C   UNL     1       0.970   5.452  -7.970  0.00  0.00    +0.050 A 
ATOM     28  C   UNL     1       2.191   5.549  -7.247  0.00  0.00    +0.128 A 
ATOM     29  N   UNL     1       2.154   5.657  -5.929  0.00  0.00    -0.216 NA
ATOM     30  C   UNL     1       1.018   5.667  -5.256  0.00  0.00    +0.143 A 
ATOM     31  N   UNL     1      -0.147   5.580  -5.869  0.00  0.00    -0.224 NA
ATOM     32  C   UNL     1      -0.981   5.126 -11.286  0.00  0.00    +0.052 C 
BRANCH  28  33
ATOM     33  N   UNL     1       3.402   5.536  -7.915  0.00  0.00    -0.343 N 
ATOM     34  H   UNL     1       3.442   5.785  -8.852  0.00  0.00    +0.144 HD
ATOM     35  H   UNL     1       4.212   5.279  -7.447  0.00  0.00    +0.144 HD
ENDBRANCH  28  33
ENDBRANCH  21  30
ENDBRANCH  20  21
ENDBRANCH   1  20
TORSDOF 6
