REMARK  Name = ZINC13029266
REMARK  16 active torsions:
REMARK  status: ('A' for Active; 'I' for Inactive)
REMARK    1  A    between atoms: C_1  and  C_2
REMARK    2  A    between atoms: C_2  and  C_3
REMARK    3  A    between atoms: C_2  and  C_4
REMARK    4  A    between atoms: C_2  and  N_5
REMARK    5  A    between atoms: C_6  and  C_8
REMARK    6  A    between atoms: C_8  and  C_10
REMARK    7  A    between atoms: C_8  and  N_20
REMARK    8  A    between atoms: C_14  and  O_18
REMARK    9  A    between atoms: C_15  and  O_16
REMARK   10  A    between atoms: O_16  and  C_17
REMARK   11  A    between atoms: O_18  and  C_19
REMARK   12  A    between atoms: N_20  and  C_21
REMARK   13  A    between atoms: C_21  and  C_22
REMARK   14  A    between atoms: C_22  and  C_23
REMARK   15  A    between atoms: C_29  and  C_31
REMARK   16  A    between atoms: C_31  and  N_32
REMARK                            x       y       z     vdW  Elec       q    Type
REMARK                         _______ _______ _______ _____ _____    ______ ____
ROOT
ATOM      1  N   UNL     1       2.210   4.145  -0.815  0.00  0.00    -0.284 N 
ATOM      2  C   UNL     1       1.949   4.985  -1.837  0.00  0.00    +0.238 C 
ATOM      3  O   UNL     1       0.804   5.291  -2.092  0.00  0.00    -0.274 OA
ENDROOT
BRANCH   1   4
ATOM      4  C   UNL     1       1.111   3.603  -0.013  0.00  0.00    +0.196 C 
BRANCH   4   5
ATOM      5  C   UNL     1       1.207   2.100   0.020  0.00  0.00    +0.027 A 
ATOM      6  C   UNL     1       1.698   1.464   1.145  0.00  0.00    +0.010 A 
ATOM      7  C   UNL     1       1.788   0.085   1.180  0.00  0.00    +0.004 A 
ATOM      8  C   UNL     1       1.386  -0.665   0.089  0.00  0.00    +0.049 A 
ATOM      9  C   UNL     1       0.892  -0.034  -1.041  0.00  0.00    +0.162 A 
ATOM     10  C   UNL     1       0.803   1.355  -1.075  0.00  0.00    +0.167 A 
BRANCH  10  11
ATOM     11  O   UNL     1       0.324   1.980  -2.185  0.00  0.00    -0.491 OA
ATOM     12  C   UNL     1      -1.095   2.111  -2.294  0.00  0.00    +0.277 C 
ENDBRANCH  10  11
BRANCH   9  13
ATOM     13  O   UNL     1       0.496  -0.769  -2.114  0.00  0.00    -0.491 OA
ATOM     14  C   UNL     1       0.617  -2.189  -2.007  0.00  0.00    +0.277 C 
ENDBRANCH   9  13
ENDBRANCH   4   5
BRANCH   4  16
ATOM     15  N   UNL     1       0.189   3.935   2.258  0.00  0.00    -0.309 N 
ATOM     16  C   UNL     1       1.199   4.144   1.391  0.00  0.00    +0.239 C 
ATOM     17  O   UNL     1       2.179   4.767   1.740  0.00  0.00    -0.273 OA
ATOM     18  H   UNL     1      -0.560   3.372   2.004  0.00  0.00    +0.149 HD
BRANCH  15  20
ATOM     19  C   UNL     1       0.269   6.079   3.432  0.00  0.00    +0.031 C 
ATOM     20  C   UNL     1       0.221   4.557   3.584  0.00  0.00    +0.026 C 
ATOM     21  C   UNL     1      -1.034   4.162   4.364  0.00  0.00    +0.031 C 
ATOM     22  C   UNL     1       1.463   4.081   4.340  0.00  0.00    +0.031 C 
ENDBRANCH  15  20
ENDBRANCH   4  16
ENDBRANCH   1   4
BRANCH   1  23
ATOM     23  C   UNL     1       3.594   3.775  -0.507  0.00  0.00    +0.113 C 
BRANCH  23  24
ATOM     24  C   UNL     1       4.020   2.607  -1.399  0.00  0.00    +0.049 C 
BRANCH  24  25
ATOM     25  C   UNL     1       5.403   2.155  -1.008  0.00  0.00    -0.072 C 
ATOM     26  C   UNL     1       5.507   1.169  -0.176  0.00  0.00    -0.028 C 
ATOM     27  C   UNL     1       6.814   0.615   0.313  0.00  0.00    +0.027 C 
ATOM     28  C   UNL     1       7.953   1.069  -0.602  0.00  0.00    +0.004 C 
ATOM     29  C   UNL     1       7.842   2.585  -0.801  0.00  0.00    +0.005 C 
ATOM     30  C   UNL     1       6.575   2.872  -1.612  0.00  0.00    +0.030 C 
ENDBRANCH  24  25
ENDBRANCH  23  24
ENDBRANCH   1  23
BRANCH   2  31
ATOM     31  C   UNL     1       3.080   5.542  -2.662  0.00  0.00    +0.241 C 
BRANCH  31  32
ATOM     32  N   UNL     1       2.539   6.421  -3.702  0.00  0.00    -0.235 N 
ATOM     33  C   UNL     1       2.164   6.057  -4.973  0.00  0.00    +0.090 A 
ATOM     34  C   UNL     1       2.144   4.852  -5.667  0.00  0.00    +0.029 A 
ATOM     35  C   UNL     1       1.691   4.818  -6.956  0.00  0.00    +0.002 A 
ATOM     36  C   UNL     1       1.244   5.976  -7.579  0.00  0.00    +0.002 A 
ATOM     37  C   UNL     1       1.248   7.170  -6.918  0.00  0.00    +0.032 A 
ATOM     38  C   UNL     1       1.707   7.232  -5.596  0.00  0.00    +0.113 A 
ATOM     39  N   UNL     1       1.828   8.239  -4.708  0.00  0.00    -0.129 NA
ATOM     40  N   UNL     1       2.308   7.801  -3.598  0.00  0.00    -0.064 NA
ENDBRANCH  31  32
ENDBRANCH   2  31
TORSDOF 11
