REMARK  Name = ZINC39678754
REMARK  11 active torsions:
REMARK  status: ('A' for Active; 'I' for Inactive)
REMARK    1  A    between atoms: C_1  and  C_2
REMARK    2  A    between atoms: C_2  and  C_3
REMARK    3  A    between atoms: C_3  and  C_5
REMARK    4  A    between atoms: C_3  and  C_11
REMARK    5  A    between atoms: C_15  and  C_24
REMARK    6  A    between atoms: N_26  and  C_27
REMARK    7  A    between atoms: C_27  and  C_28
REMARK    8  A    between atoms: C_28  and  O_30
REMARK    9  A    between atoms: O_30  and  C_31
REMARK   10  A    between atoms: C_31  and  C_32
REMARK   11  A    between atoms: C_31  and  C_33
REMARK                            x       y       z     vdW  Elec       q    Type
REMARK                         _______ _______ _______ _____ _____    ______ ____
ROOT
ATOM      1  C   UNL     1      -1.256  -1.765   0.167  0.00  0.00    +0.223 C 
ATOM      2  O   UNL     1      -1.746  -2.364  -0.766  0.00  0.00    -0.275 OA
ATOM      3  N   UNL     1      -0.747  -2.447   1.212  0.00  0.00    -0.300 N 
ATOM      4  C   UNL     1      -0.118  -1.897   2.436  0.00  0.00    +0.121 C 
ATOM      5  C   UNL     1      -0.626  -2.805   3.578  0.00  0.00    +0.100 C 
ATOM      6  C   UNL     1      -0.998  -4.130   2.890  0.00  0.00    -0.004 C 
ATOM      7  C   UNL     1      -0.695  -3.917   1.400  0.00  0.00    +0.115 C 
ATOM      8  C   UNL     1      -0.150  -5.270   3.446  0.00  0.00    -0.010 C 
ATOM      9  C   UNL     1      -0.578  -6.585   2.788  0.00  0.00    -0.082 C 
ATOM     10  N   UNL     1      -1.999  -6.830   3.059  0.00  0.00    +0.379 N 
ATOM     11  C   UNL     1      -2.815  -5.777   2.442  0.00  0.00    -0.082 C 
ATOM     12  C   UNL     1      -2.482  -4.428   3.085  0.00  0.00    -0.010 C 
ATOM     13  H   UNL     1      -2.264  -7.726   2.677  0.00  0.00    -0.086 HD
ATOM     14  H   UNL     1      -2.155  -6.833   4.056  0.00  0.00    -0.086 HD
ENDROOT
BRANCH   5  15
ATOM     15  C   UNL     1      -1.837  -2.194   4.235  0.00  0.00    +0.219 C 
ATOM     16  O   UNL     1      -2.589  -1.495   3.590  0.00  0.00    -0.275 OA
ATOM     17  N   UNL     1      -2.085  -2.426   5.539  0.00  0.00    -0.305 N 
ATOM     18  H   UNL     1      -1.484  -2.985   6.056  0.00  0.00    +0.149 HD
BRANCH  17  19
ATOM     19  C   UNL     1      -3.263  -1.832   6.178  0.00  0.00    +0.224 C 
BRANCH  19  20
ATOM     20  C   UNL     1      -3.309  -2.242   7.627  0.00  0.00    +0.325 C 
ATOM     21  O   UNL     1      -2.447  -2.958   8.080  0.00  0.00    -0.249 OA
BRANCH  20  22
ATOM     22  O   UNL     1      -4.308  -1.813   8.414  0.00  0.00    -0.461 OA
BRANCH  22  23
ATOM     23  C   UNL     1      -4.289  -2.241   9.778  0.00  0.00    +0.170 C 
ATOM     24  C   UNL     1      -4.945  -1.175  10.656  0.00  0.00    +0.052 C 
ATOM     25  C   UNL     1      -5.060  -3.556   9.910  0.00  0.00    +0.052 C 
ENDBRANCH  22  23
ENDBRANCH  20  22
ENDBRANCH  19  20
ENDBRANCH  17  19
ENDBRANCH   5  15
BRANCH   1  26
ATOM     26  C   UNL     1      -1.215  -0.259   0.159  0.00  0.00    +0.105 C 
BRANCH  26  27
ATOM     27  C   UNL     1      -1.844   0.254  -1.111  0.00  0.00    -0.036 A 
ATOM     28  C   UNL     1      -1.316  -0.106  -2.337  0.00  0.00    +0.004 A 
ATOM     29  C   UNL     1      -1.892   0.364  -3.503  0.00  0.00    +0.000 A 
ATOM     30  C   UNL     1      -2.996   1.193  -3.442  0.00  0.00    +0.000 A 
ATOM     31  C   UNL     1      -3.525   1.552  -2.216  0.00  0.00    +0.000 A 
ATOM     32  C   UNL     1      -2.951   1.079  -1.051  0.00  0.00    +0.004 A 
ENDBRANCH  26  27
BRANCH  26  34
ATOM     33  C   UNL     1       0.274   1.738   0.353  0.00  0.00    +0.005 C 
ATOM     34  C   UNL     1       0.238   0.213   0.235  0.00  0.00    +0.014 C 
ENDBRANCH  26  34
ENDBRANCH   1  26
TORSDOF 8
