REMARK  Name = ZINC14664460
REMARK  12 active torsions:
REMARK  status: ('A' for Active; 'I' for Inactive)
REMARK    1  A    between atoms: C_1  and  C_2
REMARK    2  A    between atoms: C_3  and  C_26
REMARK    3  A    between atoms: C_5  and  N_10
REMARK    4  A    between atoms: C_6  and  C_7
REMARK    5  A    between atoms: N_10  and  C_11
REMARK    6  A    between atoms: C_11  and  N_13
REMARK    7  A    between atoms: C_14  and  C_16
REMARK    8  A    between atoms: C_21  and  O_22
REMARK    9  A    between atoms: O_22  and  C_23
REMARK   10  A    between atoms: C_23  and  C_24
REMARK   11  A    between atoms: C_23  and  C_25
REMARK   12  A    between atoms: C_26  and  C_27
REMARK                            x       y       z     vdW  Elec       q    Type
REMARK                         _______ _______ _______ _____ _____    ______ ____
ROOT
ATOM      1  C   UNL     1       0.076   0.389   0.316  0.00  0.00    +0.045 C 
ATOM      2  C   UNL     1      -0.644   0.925   1.527  0.00  0.00    -0.026 A 
ATOM      3  C   UNL     1      -1.987   0.974   1.579  0.00  0.00    -0.000 A 
ATOM      4  S   UNL     1      -2.309   1.671   3.186  0.00  0.00    -0.077 S 
ATOM      5  C   UNL     1      -0.682   1.886   3.739  0.00  0.00    +0.084 A 
ATOM      6  C   UNL     1       0.079   1.413   2.677  0.00  0.00    +0.068 A 
ENDROOT
BRANCH   6   7
ATOM      7  C   UNL     1       1.544   1.409   2.723  0.00  0.00    +0.244 C 
ATOM      8  O   UNL     1       2.168   2.375   2.322  0.00  0.00    -0.270 OA
ATOM      9  N   UNL     1       2.201   0.337   3.209  0.00  0.00    -0.325 N 
ATOM     10  H   UNL     1       1.704  -0.432   3.528  0.00  0.00    +0.145 HD
ATOM     11  H   UNL     1       3.170   0.335   3.239  0.00  0.00    +0.145 HD
ENDBRANCH   6   7
BRANCH   5  12
ATOM     12  N   UNL     1      -0.246   2.404   4.948  0.00  0.00    -0.291 N 
ATOM     13  H   UNL     1       0.704   2.469   5.133  0.00  0.00    +0.154 HD
BRANCH  12  14
ATOM     14  C   UNL     1      -1.141   2.817   5.867  0.00  0.00    +0.141 C 
ATOM     15  S   UNL     1      -2.818   2.701   5.541  0.00  0.00    -0.018 S 
BRANCH  14  16
ATOM     16  N   UNL     1      -0.717   3.321   7.043  0.00  0.00    -0.263 N 
ATOM     17  C   UNL     1      -1.612   3.733   7.962  0.00  0.00    +0.253 C 
ATOM     18  O   UNL     1      -2.803   3.651   7.730  0.00  0.00    -0.270 OA
ATOM     19  H   UNL     1       0.233   3.386   7.228  0.00  0.00    +0.157 HD
BRANCH  17  20
ATOM     20  C   UNL     1      -1.148   4.285   9.248  0.00  0.00    +0.079 A 
ATOM     21  C   UNL     1       0.220   4.375   9.521  0.00  0.00    +0.017 A 
ATOM     22  C   UNL     1       0.647   4.895  10.723  0.00  0.00    +0.001 A 
ATOM     23  C   UNL     1      -0.273   5.320  11.668  0.00  0.00    +0.004 A 
ATOM     24  C   UNL     1      -1.627   5.231  11.414  0.00  0.00    +0.046 A 
ATOM     25  C   UNL     1      -2.075   4.715  10.207  0.00  0.00    +0.133 A 
BRANCH  25  26
ATOM     26  O   UNL     1      -3.405   4.627   9.956  0.00  0.00    -0.489 OA
BRANCH  26  27
ATOM     27  C   UNL     1      -4.291   4.972  11.022  0.00  0.00    +0.167 C 
ATOM     28  C   UNL     1      -4.512   6.486  11.032  0.00  0.00    +0.051 C 
ATOM     29  C   UNL     1      -5.632   4.263  10.822  0.00  0.00    +0.051 C 
ENDBRANCH  26  27
ENDBRANCH  25  26
ENDBRANCH  17  20
ENDBRANCH  14  16
ENDBRANCH  12  14
ENDBRANCH   5  12
BRANCH   3  30
ATOM     30  C   UNL     1      -2.980   0.542   0.531  0.00  0.00    +0.077 C 
BRANCH  30  31
ATOM     31  C   UNL     1      -3.337  -0.906   0.745  0.00  0.00    -0.043 A 
ATOM     32  C   UNL     1      -2.604  -1.898   0.120  0.00  0.00    +0.004 A 
ATOM     33  C   UNL     1      -2.929  -3.227   0.320  0.00  0.00    +0.000 A 
ATOM     34  C   UNL     1      -3.993  -3.564   1.136  0.00  0.00    +0.000 A 
ATOM     35  C   UNL     1      -4.729  -2.572   1.756  0.00  0.00    +0.000 A 
ATOM     36  C   UNL     1      -4.401  -1.243   1.561  0.00  0.00    +0.004 A 
ENDBRANCH  30  31
ENDBRANCH   3  30
TORSDOF 9
