REMARK  Name = ZINC06547058
REMARK  15 active torsions:
REMARK  status: ('A' for Active; 'I' for Inactive)
REMARK    1  A    between atoms: C_1  and  C_2
REMARK    2  A    between atoms: C_2  and  O_3
REMARK    3  A    between atoms: O_3  and  C_4
REMARK    4  A    between atoms: C_4  and  C_6
REMARK    5  A    between atoms: C_6  and  N_7
REMARK    6  A    between atoms: C_8  and  C_10
REMARK    7  A    between atoms: C_10  and  C_12
REMARK    8  A    between atoms: C_10  and  N_19
REMARK    9  A    between atoms: C_15  and  O_18
REMARK   10  A    between atoms: N_19  and  C_20
REMARK   11  A    between atoms: C_22  and  C_27
REMARK   12  A    between atoms: C_25  and  C_26
REMARK   13  A    between atoms: C_28  and  C_30
REMARK   14  A    between atoms: C_31  and  N_38
REMARK   15  A    between atoms: C_32  and  C_35
REMARK                            x       y       z     vdW  Elec       q    Type
REMARK                         _______ _______ _______ _____ _____    ______ ____
ROOT
ATOM      1  N   UNL     1      -3.222   1.796  -0.199  0.00  0.00    -0.251 N 
ATOM      2  C   UNL     1      -4.107   1.495   0.772  0.00  0.00    +0.262 C 
ATOM      3  O   UNL     1      -3.845   0.629   1.587  0.00  0.00    -0.269 OA
ENDROOT
BRANCH   1   4
ATOM      4  C   UNL     1      -3.523   2.791  -1.135  0.00  0.00    +0.041 A 
ATOM      5  C   UNL     1      -4.269   2.480  -2.265  0.00  0.00    +0.027 A 
ATOM      6  C   UNL     1      -4.565   3.464  -3.187  0.00  0.00    -0.049 A 
ATOM      7  C   UNL     1      -4.120   4.758  -2.986  0.00  0.00    +0.004 A 
ATOM      8  C   UNL     1      -3.377   5.071  -1.863  0.00  0.00    +0.005 A 
ATOM      9  C   UNL     1      -3.082   4.092  -0.934  0.00  0.00    -0.029 A 
ATOM     10  C   UNL     1      -2.278   4.435   0.294  0.00  0.00    +0.045 C 
ATOM     11  C   UNL     1      -5.375   3.128  -4.413  0.00  0.00    +0.044 C 
ENDBRANCH   1   4
BRANCH   2  12
ATOM     12  C   UNL     1      -5.383   2.208   0.847  0.00  0.00    +0.116 A 
ATOM     13  C   UNL     1      -6.430   2.056   1.759  0.00  0.00    +0.076 A 
ATOM     14  C   UNL     1      -7.491   2.925   1.503  0.00  0.00    +0.155 A 
ATOM     15  N   UNL     1      -7.412   3.756   0.487  0.00  0.00    -0.203 NA
ATOM     16  S   UNL     1      -6.013   3.507  -0.196  0.00  0.00    +0.019 S 
BRANCH  14  17
ATOM     17  C   UNL     1      -8.689   2.910   2.362  0.00  0.00    +0.262 C 
ATOM     18  O   UNL     1      -8.756   2.139   3.299  0.00  0.00    -0.269 OA
ATOM     19  N   UNL     1      -9.710   3.753   2.108  0.00  0.00    -0.324 N 
ATOM     20  H   UNL     1      -9.657   4.368   1.360  0.00  0.00    +0.145 HD
ATOM     21  H   UNL     1     -10.499   3.743   2.673  0.00  0.00    +0.145 HD
ENDBRANCH  14  17
BRANCH  13  22
ATOM     22  N   UNL     1      -6.417   1.142   2.803  0.00  0.00    -0.355 N 
ATOM     23  H   UNL     1      -5.649   0.563   2.931  0.00  0.00    +0.142 HD
ATOM     24  H   UNL     1      -7.175   1.082   3.406  0.00  0.00    +0.142 HD
ENDBRANCH  13  22
ENDBRANCH   2  12
BRANCH   1  25
ATOM     25  C   UNL     1      -1.945   1.082  -0.273  0.00  0.00    +0.197 C 
BRANCH  25  26
ATOM     26  C   UNL     1      -2.201  -0.377  -0.548  0.00  0.00    -0.018 A 
ATOM     27  C   UNL     1      -3.142  -0.748  -1.491  0.00  0.00    +0.009 A 
ATOM     28  C   UNL     1      -3.374  -2.085  -1.748  0.00  0.00    +0.046 A 
ATOM     29  C   UNL     1      -2.671  -3.057  -1.052  0.00  0.00    +0.117 A 
ATOM     30  C   UNL     1      -1.731  -2.682  -0.102  0.00  0.00    +0.046 A 
ATOM     31  C   UNL     1      -1.498  -1.344   0.148  0.00  0.00    +0.009 A 
BRANCH  29  32
ATOM     32  O   UNL     1      -2.902  -4.373  -1.298  0.00  0.00    -0.507 OA
ATOM     33  H   UNL     1      -3.595  -4.760  -0.747  0.00  0.00    +0.292 HD
ENDBRANCH  29  32
ENDBRANCH  25  26
BRANCH  25  35
ATOM     34  N   UNL     1       0.206   1.886  -1.192  0.00  0.00    -0.303 N 
ATOM     35  C   UNL     1      -1.109   1.664  -1.384  0.00  0.00    +0.239 C 
ATOM     36  O   UNL     1      -1.620   1.931  -2.451  0.00  0.00    -0.273 OA
ATOM     37  H   UNL     1       0.615   1.672  -0.339  0.00  0.00    +0.149 HD
BRANCH  34  38
ATOM     38  C   UNL     1       1.020   2.445  -2.274  0.00  0.00    +0.225 C 
BRANCH  38  39
ATOM     39  C   UNL     1       2.446   2.588  -1.808  0.00  0.00    +0.324 C 
ATOM     40  O   UNL     1       2.751   2.256  -0.687  0.00  0.00    -0.249 OA
BRANCH  39  41
ATOM     41  O   UNL     1       3.377   3.083  -2.638  0.00  0.00    -0.464 OA
BRANCH  41  43
ATOM     42  C   UNL     1       5.644   3.773  -3.203  0.00  0.00    +0.048 C 
ATOM     43  C   UNL     1       4.730   3.192  -2.121  0.00  0.00    +0.229 C 
ENDBRANCH  41  43
ENDBRANCH  39  41
ENDBRANCH  38  39
ENDBRANCH  34  38
ENDBRANCH  25  35
ENDBRANCH   1  25
TORSDOF 12
