REMARK  Name = ZINC39683066
REMARK  8 active torsions:
REMARK  status: ('A' for Active; 'I' for Inactive)
REMARK    1  A    between atoms: C_1  and  O_2
REMARK    2  A    between atoms: O_2  and  C_3
REMARK    3  A    between atoms: C_6  and  O_37
REMARK    4  A    between atoms: C_7  and  C_9
REMARK    5  A    between atoms: C_9  and  N_10
REMARK    6  A    between atoms: C_11  and  C_13
REMARK    7  A    between atoms: C_24  and  C_26
REMARK    8  A    between atoms: O_37  and  C_38
REMARK                            x       y       z     vdW  Elec       q    Type
REMARK                         _______ _______ _______ _____ _____    ______ ____
ROOT
ATOM      1  C   UNL     1      -0.832  -6.471   4.271  0.00  0.00    +0.100 C 
ATOM      2  C   UNL     1      -2.232  -6.004   3.812  0.00  0.00    +0.121 C 
ATOM      3  N   UNL     1      -2.756  -7.130   3.004  0.00  0.00    -0.297 N 
ATOM      4  C   UNL     1      -2.316  -8.343   3.733  0.00  0.00    +0.115 C 
ATOM      5  C   UNL     1      -0.893  -8.007   4.221  0.00  0.00    -0.004 C 
ATOM      6  C   UNL     1       0.142  -8.545   3.237  0.00  0.00    -0.010 C 
ATOM      7  C   UNL     1       0.101 -10.076   3.247  0.00  0.00    -0.082 C 
ATOM      8  N   UNL     1       0.383 -10.566   4.602  0.00  0.00    +0.379 N 
ATOM      9  C   UNL     1      -0.668 -10.120   5.525  0.00  0.00    -0.082 C 
ATOM     10  C   UNL     1      -0.660  -8.591   5.611  0.00  0.00    -0.010 C 
ATOM     11  C   UNL     1      -3.472  -7.065   1.863  0.00  0.00    +0.260 C 
ATOM     12  O   UNL     1      -3.832  -8.085   1.315  0.00  0.00    -0.271 OA
ATOM     13  H   UNL     1       0.416 -11.574   4.593  0.00  0.00    -0.086 HD
ATOM     14  H   UNL     1       1.274 -10.206   4.909  0.00  0.00    -0.086 HD
ENDROOT
BRANCH  11  15
ATOM     15  C   UNL     1      -3.824  -5.725   1.270  0.00  0.00    +0.296 C 
ATOM     16  C   UNL     1      -4.773  -4.975   2.214  0.00  0.00    +0.283 C 
ATOM     17  O   UNL     1      -5.098  -3.716   1.615  0.00  0.00    -0.484 OA
ATOM     18  C   UNL     1      -5.442  -3.736   0.298  0.00  0.00    +0.162 A 
ATOM     19  C   UNL     1      -6.106  -2.648  -0.249  0.00  0.00    +0.049 A 
ATOM     20  C   UNL     1      -6.459  -2.652  -1.585  0.00  0.00    +0.004 A 
ATOM     21  C   UNL     1      -6.151  -3.740  -2.381  0.00  0.00    +0.004 A 
ATOM     22  C   UNL     1      -5.491  -4.828  -1.841  0.00  0.00    +0.049 A 
ATOM     23  C   UNL     1      -5.135  -4.831  -0.501  0.00  0.00    +0.163 A 
ATOM     24  O   UNL     1      -4.492  -5.913   0.017  0.00  0.00    -0.473 OA
ENDBRANCH  11  15
BRANCH   1  26
ATOM     25  N   UNL     1       1.477  -5.733   3.782  0.00  0.00    -0.311 N 
ATOM     26  C   UNL     1       0.227  -5.957   3.331  0.00  0.00    +0.218 C 
ATOM     27  O   UNL     1      -0.045  -5.745   2.168  0.00  0.00    -0.275 OA
ATOM     28  H   UNL     1       1.695  -5.903   4.712  0.00  0.00    +0.149 HD
BRANCH  25  29
ATOM     29  C   UNL     1       2.507  -5.233   2.868  0.00  0.00    +0.143 C 
BRANCH  29  34
ATOM     30  C   UNL     1       5.391  -3.668   4.743  0.00  0.00    +0.121 A 
ATOM     31  C   UNL     1       6.193  -4.772   4.990  0.00  0.00    +0.049 A 
ATOM     32  C   UNL     1       5.803  -6.022   4.549  0.00  0.00    +0.049 A 
ATOM     33  C   UNL     1       4.608  -6.173   3.861  0.00  0.00    +0.125 A 
ATOM     34  C   UNL     1       3.805  -5.069   3.615  0.00  0.00    +0.015 A 
ATOM     35  C   UNL     1       4.193  -3.820   4.060  0.00  0.00    +0.054 A 
BRANCH  30  37
ATOM     36  C   UNL     1       7.020  -2.355   5.873  0.00  0.00    +0.277 C 
ATOM     37  O   UNL     1       5.775  -2.438   5.176  0.00  0.00    -0.495 OA
ENDBRANCH  30  37
BRANCH  33  38
ATOM     38  O   UNL     1       4.224  -7.403   3.427  0.00  0.00    -0.495 OA
ATOM     39  C   UNL     1       5.100  -8.495   3.715  0.00  0.00    +0.277 C 
ENDBRANCH  33  38
ENDBRANCH  29  34
ENDBRANCH  25  29
ENDBRANCH   1  26
TORSDOF 6
