REMARK  Name = ZINC05363603
REMARK  10 active torsions:
REMARK  status: ('A' for Active; 'I' for Inactive)
REMARK    1  A    between atoms: C_1  and  C_2
REMARK    2  A    between atoms: C_8  and  N_10
REMARK    3  A    between atoms: C_11  and  C_13
REMARK    4  A    between atoms: C_13  and  C_15
REMARK    5  A    between atoms: C_13  and  O_16
REMARK    6  A    between atoms: O_16  and  C_17
REMARK    7  A    between atoms: C_17  and  C_19
REMARK    8  A    between atoms: C_22  and  N_28
REMARK    9  A    between atoms: C_23  and  N_25
REMARK   10  A    between atoms: N_28  and  C_29
REMARK                            x       y       z     vdW  Elec       q    Type
REMARK                         _______ _______ _______ _____ _____    ______ ____
ROOT
ATOM      1  O   UNL     1      -0.034   0.012   0.546  0.00  0.00    -0.449 OA
ENDROOT
BRANCH   1   2
ATOM      2  C   UNL     1       1.244  -0.621   0.820  0.00  0.00    +0.259 C 
ATOM      3  C   UNL     1       2.005  -0.821  -0.492  0.00  0.00    +0.062 C 
BRANCH   2   5
ATOM      4  N   UNL     1       2.060  -2.684   1.913  0.00  0.00    -0.309 N 
ATOM      5  C   UNL     1       1.012  -1.958   1.475  0.00  0.00    +0.254 C 
ATOM      6  O   UNL     1      -0.117  -2.380   1.608  0.00  0.00    -0.272 OA
ATOM      7  H   UNL     1       2.963  -2.346   1.807  0.00  0.00    +0.149 HD
BRANCH   4  14
ATOM      8  C   UNL     1       3.120  -3.224   4.554  0.00  0.00    +0.009 C 
ATOM      9  C   UNL     1       3.007  -4.307   3.478  0.00  0.00    +0.006 C 
ATOM     10  C   UNL     1       4.302  -4.355   2.666  0.00  0.00    +0.005 C 
ATOM     11  C   UNL     1       4.189  -5.438   1.590  0.00  0.00    +0.000 C 
ATOM     12  C   UNL     1       3.017  -5.115   0.662  0.00  0.00    +0.002 C 
ATOM     13  C   UNL     1       1.722  -5.066   1.475  0.00  0.00    +0.022 C 
ATOM     14  C   UNL     1       1.834  -3.984   2.550  0.00  0.00    +0.076 C 
ENDBRANCH   4  14
ENDBRANCH   2   5
ENDBRANCH   1   2
BRANCH   1  15
ATOM     15  C   UNL     1      -0.064   1.360   0.560  0.00  0.00    +0.340 C 
ATOM     16  O   UNL     1       0.949   1.988   0.795  0.00  0.00    -0.245 OA
BRANCH  15  17
ATOM     17  C   UNL     1      -1.326   2.071   0.285  0.00  0.00    +0.061 A 
ATOM     18  C   UNL     1      -2.490   1.349   0.004  0.00  0.00    +0.017 A 
ATOM     19  C   UNL     1      -3.660   2.008  -0.246  0.00  0.00    +0.026 A 
ATOM     20  C   UNL     1      -3.696   3.400  -0.233  0.00  0.00    +0.058 A 
ATOM     21  C   UNL     1      -2.540   4.127   0.041  0.00  0.00    +0.148 A 
ATOM     22  C   UNL     1      -1.359   3.469   0.299  0.00  0.00    +0.049 A 
BRANCH  21  23
ATOM     23  N   UNL     1      -2.582   5.607   0.055  0.00  0.00    +0.058 N 
ATOM     24  O   UNL     1      -1.641   6.246  -0.380  0.00  0.00    -0.126 OA
ATOM     25  O   UNL     1      -3.557   6.185   0.500  0.00  0.00    -0.126 OA
ENDBRANCH  21  23
BRANCH  20  26
ATOM     26  N   UNL     1      -4.888   4.066  -0.493  0.00  0.00    -0.345 N 
ATOM     27  C   UNL     1      -6.131   3.306  -0.654  0.00  0.00    +0.125 C 
ATOM     28  H   UNL     1      -4.898   5.033  -0.569  0.00  0.00    +0.146 HD
ENDBRANCH  20  26
ENDBRANCH  15  17
ENDBRANCH   1  15
TORSDOF 7
