REMARK  Name = ZINC64058534
REMARK  10 active torsions:
REMARK  status: ('A' for Active; 'I' for Inactive)
REMARK    1  A    between atoms: C_1  and  N_2
REMARK    2  A    between atoms: C_5  and  C_8
REMARK    3  A    between atoms: N_10  and  C_11
REMARK    4  A    between atoms: N_10  and  C_12
REMARK    5  A    between atoms: C_12  and  C_14
REMARK    6  A    between atoms: C_12  and  C_21
REMARK    7  A    between atoms: C_14  and  C_15
REMARK    8  A    between atoms: C_27  and  C_29
REMARK    9  A    between atoms: C_29  and  C_30
REMARK   10  A    between atoms: C_30  and  C_31
REMARK                            x       y       z     vdW  Elec       q    Type
REMARK                         _______ _______ _______ _____ _____    ______ ____
ROOT
ATOM      1  C   UNL     1       3.585  -5.237  -0.023  0.00  0.00    +0.013 C 
ATOM      2  C   UNL     1       4.852  -5.952   0.453  0.00  0.00    +0.024 C 
ATOM      3  C   UNL     1       5.677  -6.384  -0.764  0.00  0.00    +0.108 C 
ATOM      4  N   UNL     1       5.928  -5.207  -1.607  0.00  0.00    -0.301 N 
ATOM      5  C   UNL     1       4.785  -4.395  -2.046  0.00  0.00    +0.108 C 
ATOM      6  C   UNL     1       3.970  -3.985  -0.815  0.00  0.00    +0.024 C 
ATOM      7  C   UNL     1       7.184  -4.879  -1.971  0.00  0.00    +0.216 C 
ATOM      8  O   UNL     1       8.119  -5.557  -1.602  0.00  0.00    -0.276 OA
ENDROOT
BRANCH   1   9
ATOM      9  C   UNL     1       2.742  -4.834   1.188  0.00  0.00    +0.083 C 
BRANCH   9  12
ATOM     10  C   UNL     1       1.283  -2.884   1.120  0.00  0.00    +0.238 C 
ATOM     11  O   UNL     1       2.067  -2.308   1.844  0.00  0.00    -0.273 OA
ATOM     12  N   UNL     1       1.528  -4.152   0.733  0.00  0.00    -0.299 N 
ATOM     13  C   UNL     1       0.581  -4.847  -0.142  0.00  0.00    +0.132 C 
BRANCH  10  18
ATOM     14  C   UNL     1      -0.018   1.461   0.010  0.00  0.00    +0.149 C 
ATOM     15  N   UNL     1       0.002  -0.004   0.002  0.00  0.00    -0.276 N 
ATOM     16  C   UNL     1       0.008  -0.779  -1.141  0.00  0.00    +0.085 C 
ATOM     17  C   UNL     1       0.026  -2.066  -0.858  0.00  0.00    +0.019 C 
ATOM     18  C   UNL     1       0.034  -2.182   0.651  0.00  0.00    +0.183 C 
ATOM     19  N   UNL     1       0.023  -0.783   1.124  0.00  0.00    -0.225 NA
ATOM     20  H   UNL     1      -0.784  -0.605   1.703  0.00  0.00    +0.146 HD
ENDBRANCH  10  18
ENDBRANCH   9  12
BRANCH   9  21
ATOM     21  C   UNL     1       2.357  -6.085   1.980  0.00  0.00    +0.058 C 
BRANCH  21  22
ATOM     22  C   UNL     1       1.632  -5.680   3.238  0.00  0.00    -0.046 A 
ATOM     23  C   UNL     1       2.343  -5.440   4.399  0.00  0.00    +0.004 A 
ATOM     24  C   UNL     1       1.678  -5.068   5.552  0.00  0.00    +0.000 A 
ATOM     25  C   UNL     1       0.302  -4.937   5.545  0.00  0.00    +0.000 A 
ATOM     26  C   UNL     1      -0.409  -5.177   4.384  0.00  0.00    +0.000 A 
ATOM     27  C   UNL     1       0.256  -5.544   3.229  0.00  0.00    +0.004 A 
ENDBRANCH  21  22
ENDBRANCH   9  21
ENDBRANCH   1   9
BRANCH   7  28
ATOM     28  C   UNL     1       7.425  -3.669  -2.837  0.00  0.00    +0.100 C 
BRANCH  28  29
ATOM     29  C   UNL     1       8.925  -3.522  -3.101  0.00  0.00    +0.042 C 
BRANCH  29  30
ATOM     30  C   UNL     1       9.166  -2.312  -3.966  0.00  0.00    -0.041 C 
ATOM     31  C   UNL     1       9.490  -1.066  -3.550  0.00  0.00    -0.001 A 
ATOM     32  C   UNL     1       9.705  -0.487  -2.219  0.00  0.00    +0.010 A 
ATOM     33  C   UNL     1      10.025   0.823  -2.117  0.00  0.00    +0.001 A 
ATOM     34  C   UNL     1      10.157   1.639  -3.249  0.00  0.00    +0.002 A 
ATOM     35  C   UNL     1       9.975   1.180  -4.505  0.00  0.00    +0.026 A 
ATOM     36  C   UNL     1       9.636  -0.183  -4.729  0.00  0.00    +0.043 A 
ATOM     37  N   UNL     1       9.410  -0.857  -5.831  0.00  0.00    -0.380 N 
ATOM     38  C   UNL     1       9.102  -2.246  -5.476  0.00  0.00    +0.144 C 
ATOM     39  H   UNL     1       9.446  -0.497  -6.732  0.00  0.00    +0.160 HD
ENDBRANCH  29  30
ENDBRANCH  28  29
ENDBRANCH   7  28
TORSDOF 8
