REMARK  Name = ZINC57426318
REMARK  8 active torsions:
REMARK  status: ('A' for Active; 'I' for Inactive)
REMARK    1  A    between atoms: C_1  and  C_2
REMARK    2  A    between atoms: C_5  and  C_9
REMARK    3  A    between atoms: C_7  and  C_8
REMARK    4  A    between atoms: C_9  and  N_10
REMARK    5  A    between atoms: C_19  and  S_20
REMARK    6  A    between atoms: S_20  and  C_21
REMARK    7  A    between atoms: C_21  and  C_22
REMARK    8  A    between atoms: N_24  and  C_25
REMARK                            x       y       z     vdW  Elec       q    Type
REMARK                         _______ _______ _______ _____ _____    ______ ____
ROOT
ATOM      1  N   UNL     1       1.447  -4.746  -0.032  0.00  0.00    -0.282 N 
ATOM      2  C   UNL     1       2.091  -4.954  -1.205  0.00  0.00    +0.269 A 
ATOM      3  O   UNL     1       1.532  -4.755  -2.270  0.00  0.00    -0.266 OA
ATOM      4  C   UNL     1       3.409  -5.401  -1.163  0.00  0.00    +0.102 A 
ATOM      5  C   UNL     1       4.069  -5.635   0.057  0.00  0.00    +0.086 A 
ATOM      6  C   UNL     1       5.394  -6.083  -0.050  0.00  0.00    +0.036 A 
ATOM      7  C   UNL     1       5.954  -6.263  -1.265  0.00  0.00    +0.048 A 
ATOM      8  S   UNL     1       4.636  -5.807  -2.378  0.00  0.00    -0.090 S 
ATOM      9  N   UNL     1       3.342  -5.398   1.189  0.00  0.00    -0.222 NA
ATOM     10  C   UNL     1       2.108  -4.974   1.141  0.00  0.00    +0.173 A 
ENDROOT
BRANCH   1  11
ATOM     11  C   UNL     1       0.059  -4.275  -0.021  0.00  0.00    +0.162 C 
BRANCH  11  16
ATOM     12  C   UNL     1      -0.018   1.503   0.010  0.00  0.00    +0.044 C 
ATOM     13  C   UNL     1       0.002  -0.004   0.002  0.00  0.00    -0.048 A 
ATOM     14  C   UNL     1       0.006  -0.689  -1.199  0.00  0.00    +0.004 A 
ATOM     15  C   UNL     1       0.025  -2.071  -1.207  0.00  0.00    +0.005 A 
ATOM     16  C   UNL     1       0.040  -2.768  -0.013  0.00  0.00    -0.027 A 
ATOM     17  C   UNL     1       0.037  -2.084   1.188  0.00  0.00    +0.009 A 
ATOM     18  C   UNL     1       0.023  -0.702   1.195  0.00  0.00    -0.047 A 
ATOM     19  C   UNL     1       0.025   0.045   2.504  0.00  0.00    +0.044 C 
ENDBRANCH  11  16
ENDBRANCH   1  11
BRANCH  10  20
ATOM     20  S   UNL     1       1.255  -4.690   2.657  0.00  0.00    -0.078 S 
BRANCH  20  21
ATOM     21  C   UNL     1       2.476  -5.109   3.932  0.00  0.00    +0.173 C 
BRANCH  21  22
ATOM     22  C   UNL     1       1.867  -4.907   5.296  0.00  0.00    +0.224 C 
ATOM     23  O   UNL     1       0.723  -4.519   5.398  0.00  0.00    -0.275 OA
ATOM     24  N   UNL     1       2.595  -5.158   6.402  0.00  0.00    -0.312 N 
ATOM     25  H   UNL     1       3.510  -5.468   6.321  0.00  0.00    +0.149 HD
BRANCH  24  26
ATOM     26  C   UNL     1       2.003  -4.962   7.728  0.00  0.00    +0.073 C 
ATOM     27  C   UNL     1       1.228  -6.218   8.131  0.00  0.00    +0.022 C 
ATOM     28  C   UNL     1       0.610  -6.013   9.516  0.00  0.00    +0.002 C 
ATOM     29  C   UNL     1       1.719  -5.749  10.536  0.00  0.00    +0.000 C 
ATOM     30  C   UNL     1       2.495  -4.493  10.133  0.00  0.00    +0.002 C 
ATOM     31  C   UNL     1       3.113  -4.698   8.748  0.00  0.00    +0.022 C 
ENDBRANCH  24  26
ENDBRANCH  21  22
ENDBRANCH  20  21
ENDBRANCH  10  20
TORSDOF 6
