REMARK  Name = ZINC13500590
REMARK  12 active torsions:
REMARK  status: ('A' for Active; 'I' for Inactive)
REMARK    1  A    between atoms: C_1  and  C_2
REMARK    2  A    between atoms: C_4  and  C_37
REMARK    3  A    between atoms: C_9  and  C_14
REMARK    4  A    between atoms: C_14  and  N_72
REMARK    5  A    between atoms: C_15  and  N_72
REMARK    6  A    between atoms: C_20  and  C_22
REMARK    7  A    between atoms: C_20  and  C_34
REMARK    8  A    between atoms: C_20  and  N_72
REMARK    9  A    between atoms: N_26  and  C_27
REMARK   10  A    between atoms: C_27  and  C_28
REMARK   11  A    between atoms: C_34  and  C_35
REMARK   12  A    between atoms: C_34  and  C_36
REMARK                            x       y       z     vdW  Elec       q    Type
REMARK                         _______ _______ _______ _____ _____    ______ ____
ROOT
ATOM      1  N   UNL     1       0.841   6.854  -2.839  0.00  0.00    +0.391 N 
ATOM      2  H   UNL     1       1.415   7.192  -3.621  0.00  0.00    -0.080 HD
ENDROOT
BRANCH   1   3
ATOM      3  C   UNL     1      -0.037   5.768  -3.323  0.00  0.00    -0.067 C 
ATOM      4  C   UNL     1       0.819   4.549  -3.725  0.00  0.00    -0.015 C 
ATOM      5  C   UNL     1       0.116   3.993  -4.990  0.00  0.00    -0.002 C 
ATOM      6  C   UNL     1      -0.331   5.280  -5.727  0.00  0.00    -0.002 C 
ATOM      7  C   UNL     1      -0.768   6.232  -4.595  0.00  0.00    -0.015 C 
ENDBRANCH   1   3
BRANCH   1   8
ATOM      8  C   UNL     1       0.025   7.973  -2.324  0.00  0.00    -0.036 C 
BRANCH   8  17
ATOM      9  C   UNL     1      -6.080   9.169  -6.438  0.00  0.00    +0.044 C 
ATOM     10  C   UNL     1      -4.620   9.411  -6.151  0.00  0.00    -0.050 A 
ATOM     11  C   UNL     1      -3.889  10.261  -6.970  0.00  0.00    +0.008 A 
ATOM     12  C   UNL     1      -2.554  10.498  -6.725  0.00  0.00    -0.026 A 
ATOM     13  C   UNL     1      -1.929   9.878  -5.647  0.00  0.00    +0.052 A 
ATOM     14  C   UNL     1      -2.674   9.017  -4.819  0.00  0.00    -0.001 A 
ATOM     15  C   UNL     1      -4.028   8.792  -5.087  0.00  0.00    +0.013 A 
ATOM     16  C   UNL     1      -2.006   8.365  -3.692  0.00  0.00    +0.017 A 
ATOM     17  C   UNL     1      -0.692   8.623  -3.479  0.00  0.00    +0.001 A 
ATOM     18  C   UNL     1       0.009   9.496  -4.339  0.00  0.00    +0.251 A 
ATOM     19  O   UNL     1       1.191   9.710  -4.134  0.00  0.00    -0.268 OA
ATOM     20  N   UNL     1      -0.595  10.095  -5.380  0.00  0.00    -0.322 N 
ATOM     21  H   UNL     1      -0.083  10.689  -5.952  0.00  0.00    +0.169 HD
ATOM     22  C   UNL     1      -1.773  11.424  -7.622  0.00  0.00    +0.046 C 
ENDBRANCH   8  17
ENDBRANCH   1   8
BRANCH   1  23
ATOM     23  C   UNL     1       1.732   6.346  -1.774  0.00  0.00    +0.006 C 
BRANCH  23  24
ATOM     24  C   UNL     1       2.918   5.676  -2.418  0.00  0.00    +0.139 A 
ATOM     25  N   UNL     1       3.513   6.036  -3.530  0.00  0.00    -0.115 NA
ATOM     26  N   UNL     1       4.483   5.217  -3.746  0.00  0.00    -0.023 NA
ATOM     27  N   UNL     1       4.526   4.346  -2.798  0.00  0.00    -0.044 NA
ATOM     28  N   UNL     1       3.574   4.592  -1.963  0.00  0.00    -0.226 N 
BRANCH  28  29
ATOM     29  C   UNL     1       3.268   3.838  -0.746  0.00  0.00    +0.182 C 
BRANCH  29  30
ATOM     30  C   UNL     1       2.288   2.739  -1.068  0.00  0.00    -0.026 A 
ATOM     31  C   UNL     1       2.748   1.492  -1.448  0.00  0.00    +0.005 A 
ATOM     32  C   UNL     1       1.850   0.484  -1.744  0.00  0.00    +0.000 A 
ATOM     33  C   UNL     1       0.491   0.725  -1.665  0.00  0.00    +0.000 A 
ATOM     34  C   UNL     1       0.031   1.970  -1.280  0.00  0.00    +0.000 A 
ATOM     35  C   UNL     1       0.929   2.978  -0.984  0.00  0.00    +0.005 A 
ENDBRANCH  29  30
ENDBRANCH  28  29
ENDBRANCH  23  24
BRANCH  23  36
ATOM     36  C   UNL     1       2.212   7.516  -0.914  0.00  0.00    -0.024 C 
ATOM     37  C   UNL     1       3.156   6.998   0.172  0.00  0.00    +0.006 C 
ATOM     38  C   UNL     1       2.952   8.526  -1.794  0.00  0.00    +0.006 C 
ENDBRANCH  23  36
ENDBRANCH   1  23
TORSDOF 8
