REMARK  Name = ZINC66563800
REMARK  9 active torsions:
REMARK  status: ('A' for Active; 'I' for Inactive)
REMARK    1  A    between atoms: C_1  and  C_2
REMARK    2  A    between atoms: C_3  and  C_7
REMARK    3  A    between atoms: C_7  and  N_8
REMARK    4  A    between atoms: N_8  and  C_9
REMARK    5  A    between atoms: N_8  and  C_10
REMARK    6  A    between atoms: C_10  and  C_11
REMARK    7  A    between atoms: N_13  and  C_14
REMARK    8  A    between atoms: C_14  and  C_16
REMARK    9  A    between atoms: C_14  and  C_22
REMARK                            x       y       z     vdW  Elec       q    Type
REMARK                         _______ _______ _______ _____ _____    ______ ____
ROOT
ATOM      1  C   UNL     1       2.339   2.366  -4.984  0.00  0.00    +0.228 C 
ATOM      2  O   UNL     1       2.892   3.143  -4.235  0.00  0.00    -0.274 OA
ATOM      3  N   UNL     1       3.035   1.774  -5.975  0.00  0.00    -0.307 N 
ATOM      4  H   UNL     1       2.613   1.099  -6.529  0.00  0.00    +0.149 HD
ENDROOT
BRANCH   1   5
ATOM      5  C   UNL     1       0.874   2.062  -4.808  0.00  0.00    +0.180 C 
BRANCH   5   6
ATOM      6  N   UNL     1       0.348   2.827  -3.669  0.00  0.00    -0.292 NA
ATOM      7  C   UNL     1       0.953   2.376  -2.409  0.00  0.00    +0.105 C 
BRANCH   6   8
ATOM      8  C   UNL     1      -1.117   2.744  -3.610  0.00  0.00    +0.128 C 
BRANCH   8  11
ATOM      9  C   UNL     1      -1.935   5.707  -4.091  0.00  0.00    +0.066 C 
ATOM     10  C   UNL     1      -2.005   5.024  -2.749  0.00  0.00    +0.050 A 
ATOM     11  C   UNL     1      -1.635   3.727  -2.592  0.00  0.00    +0.026 A 
ATOM     12  S   UNL     1      -1.933   3.509  -0.845  0.00  0.00    -0.079 S 
ATOM     13  C   UNL     1      -2.485   5.063  -0.509  0.00  0.00    +0.156 A 
ATOM     14  N   UNL     1      -2.422   5.661  -1.673  0.00  0.00    -0.252 NA
ENDBRANCH   8  11
ENDBRANCH   6   8
ENDBRANCH   5   6
ENDBRANCH   1   5
BRANCH   3  15
ATOM     15  C   UNL     1       4.431   2.150  -6.215  0.00  0.00    +0.106 C 
BRANCH  15  16
ATOM     16  C   UNL     1       4.477   3.421  -7.022  0.00  0.00    -0.027 A 
ATOM     17  C   UNL     1       3.577   3.619  -8.052  0.00  0.00    +0.005 A 
ATOM     18  C   UNL     1       3.619   4.786  -8.792  0.00  0.00    +0.000 A 
ATOM     19  C   UNL     1       4.561   5.755  -8.502  0.00  0.00    +0.000 A 
ATOM     20  C   UNL     1       5.461   5.558  -7.471  0.00  0.00    +0.000 A 
ATOM     21  C   UNL     1       5.416   4.393  -6.728  0.00  0.00    +0.005 A 
ENDBRANCH  15  16
BRANCH  15  22
ATOM     22  C   UNL     1       5.135   1.031  -6.986  0.00  0.00    +0.014 C 
ATOM     23  C   UNL     1       4.357   0.709  -8.278  0.00  0.00    +0.006 C 
ATOM     24  C   UNL     1       4.483  -0.828  -8.424  0.00  0.00    +0.000 C 
ATOM     25  C   UNL     1       4.377  -1.321  -6.960  0.00  0.00    +0.000 C 
ATOM     26  C   UNL     1       5.148  -0.259  -6.147  0.00  0.00    +0.006 C 
ENDBRANCH  15  22
ENDBRANCH   3  15
TORSDOF 7
