REMARK  Name = ZINC62495252
REMARK  6 active torsions:
REMARK  status: ('A' for Active; 'I' for Inactive)
REMARK    1  A    between atoms: C_1  and  C_2
REMARK    2  A    between atoms: C_5  and  O_22
REMARK    3  A    between atoms: C_6  and  C_8
REMARK    4  A    between atoms: C_8  and  C_9
REMARK    5  A    between atoms: C_16  and  N_21
REMARK    6  A    between atoms: O_22  and  C_23
REMARK                            x       y       z     vdW  Elec       q    Type
REMARK                         _______ _______ _______ _____ _____    ______ ____
ROOT
ATOM      1  C   UNL     1       1.496  -3.187   2.864  0.00  0.00    +0.263 C 
ATOM      2  C   UNL     1       1.503  -4.052   4.099  0.00  0.00    +0.258 C 
ATOM      3  O   UNL     1       1.507  -5.261   3.996  0.00  0.00    -0.271 OA
ATOM      4  N   UNL     1       1.505  -3.476   5.319  0.00  0.00    -0.279 N 
ATOM      5  C   UNL     1       1.628  -2.083   5.418  0.00  0.00    +0.077 A 
ATOM      6  C   UNL     1       1.406  -1.443   6.626  0.00  0.00    +0.049 A 
ATOM      7  C   UNL     1       1.518  -0.061   6.705  0.00  0.00    +0.027 A 
ATOM      8  C   UNL     1       1.851   0.675   5.576  0.00  0.00    +0.026 A 
ATOM      9  C   UNL     1       2.078   0.035   4.372  0.00  0.00    +0.049 A 
ATOM     10  C   UNL     1       1.972  -1.343   4.290  0.00  0.00    +0.143 A 
ATOM     11  O   UNL     1       2.224  -1.983   3.116  0.00  0.00    -0.477 OA
ATOM     12  H   UNL     1       1.423  -4.019   6.118  0.00  0.00    +0.155 HD
ENDROOT
BRANCH   7  13
ATOM     13  N   UNL     1       1.296   0.590   7.924  0.00  0.00    -0.358 N 
ATOM     14  H   UNL     1       1.064   0.076   8.713  0.00  0.00    +0.142 HD
ATOM     15  H   UNL     1       1.375   1.555   7.979  0.00  0.00    +0.142 HD
ENDBRANCH   7  13
BRANCH   1  16
ATOM     16  C   UNL     1       0.052  -2.841   2.493  0.00  0.00    +0.093 C 
BRANCH  16  22
ATOM     17  C   UNL     1      -0.018   1.503   0.010  0.00  0.00    +0.044 C 
ATOM     18  C   UNL     1       0.002  -0.004   0.002  0.00  0.00    -0.050 A 
ATOM     19  C   UNL     1       0.006  -0.688  -1.200  0.00  0.00    +0.007 A 
ATOM     20  C   UNL     1       0.024  -2.069  -1.210  0.00  0.00    +0.046 A 
ATOM     21  C   UNL     1       0.039  -2.770  -0.013  0.00  0.00    +0.123 A 
ATOM     22  C   UNL     1       0.036  -2.082   1.191  0.00  0.00    -0.002 A 
ATOM     23  C   UNL     1       0.023  -0.701   1.196  0.00  0.00    +0.010 A 
BRANCH  21  24
ATOM     24  O   UNL     1       0.057  -4.129  -0.021  0.00  0.00    -0.495 OA
ATOM     25  C   UNL     1       0.058  -4.771  -1.298  0.00  0.00    +0.277 C 
ENDBRANCH  21  24
ENDBRANCH  16  22
ENDBRANCH   1  16
TORSDOF 4
