REMARK  Name = ZINC09521071
REMARK  14 active torsions:
REMARK  status: ('A' for Active; 'I' for Inactive)
REMARK    1  A    between atoms: C_1  and  C_2
REMARK    2  A    between atoms: C_2  and  O_3
REMARK    3  A    between atoms: O_3  and  C_4
REMARK    4  A    between atoms: C_4  and  C_6
REMARK    5  A    between atoms: C_10  and  N_11
REMARK    6  A    between atoms: C_12  and  C_14
REMARK    7  A    between atoms: C_14  and  C_16
REMARK    8  A    between atoms: C_14  and  S_17
REMARK    9  A    between atoms: S_17  and  C_18
REMARK   10  A    between atoms: N_24  and  C_25
REMARK   11  A    between atoms: C_25  and  C_26
REMARK   12  A    between atoms: C_25  and  C_27
REMARK   13  A    between atoms: C_25  and  C_28
REMARK   14  A    between atoms: C_29  and  O_31
REMARK                            x       y       z     vdW  Elec       q    Type
REMARK                         _______ _______ _______ _____ _____    ______ ____
ROOT
ATOM      1  N   UNL     1      -3.091   1.667   0.539  0.00  0.00    -0.278 N 
ATOM      2  C   UNL     1      -2.143   1.058   1.278  0.00  0.00    +0.231 C 
ATOM      3  O   UNL     1      -2.427   0.089   1.950  0.00  0.00    -0.274 OA
ATOM      4  H   UNL     1      -2.864   2.442   0.002  0.00  0.00    +0.155 HD
ENDROOT
BRANCH   1   9
ATOM      5  C   UNL     1      -5.497   1.677  -0.131  0.00  0.00    +0.091 A 
ATOM      6  C   UNL     1      -6.764   0.980   0.045  0.00  0.00    -0.021 A 
ATOM      7  C   UNL     1      -6.721  -0.077   0.884  0.00  0.00    -0.004 A 
ATOM      8  S   UNL     1      -5.034  -0.164   1.421  0.00  0.00    -0.077 S 
ATOM      9  C   UNL     1      -4.392   1.188   0.549  0.00  0.00    +0.086 A 
ATOM     10  C   UNL     1      -7.851  -0.972   1.287  0.00  0.00    +0.043 C 
ATOM     11  C   UNL     1      -8.608  -1.429   0.033  0.00  0.00    +0.005 C 
ATOM     12  C   UNL     1      -9.710  -0.415  -0.261  0.00  0.00    +0.001 C 
ATOM     13  C   UNL     1      -9.258   0.985   0.150  0.00  0.00    +0.005 C 
ATOM     14  C   UNL     1      -8.042   1.412  -0.664  0.00  0.00    +0.037 C 
BRANCH   5  15
ATOM     15  C   UNL     1      -5.392   2.851  -1.000  0.00  0.00    +0.342 C 
ATOM     16  O   UNL     1      -5.122   2.713  -2.179  0.00  0.00    -0.245 OA
BRANCH  15  17
ATOM     17  O   UNL     1      -5.595   4.085  -0.494  0.00  0.00    -0.461 OA
BRANCH  17  19
ATOM     18  C   UNL     1      -5.737   6.510  -0.664  0.00  0.00    +0.048 C 
ATOM     19  C   UNL     1      -5.475   5.202  -1.414  0.00  0.00    +0.229 C 
ENDBRANCH  17  19
ENDBRANCH  15  17
ENDBRANCH   5  15
ENDBRANCH   1   9
BRANCH   2  20
ATOM     20  C   UNL     1      -0.729   1.579   1.267  0.00  0.00    +0.137 C 
ATOM     21  C   UNL     1      -0.013   1.086   0.008  0.00  0.00    +0.029 C 
BRANCH  20  22
ATOM     22  S   UNL     1       0.147   0.980   2.733  0.00  0.00    -0.073 S 
BRANCH  22  23
ATOM     23  C   UNL     1       1.675   1.838   2.550  0.00  0.00    +0.194 A 
ATOM     24  N   UNL     1       2.619   1.659   3.458  0.00  0.00    -0.202 NA
ATOM     25  C   UNL     1       3.787   2.289   3.354  0.00  0.00    +0.167 A 
ATOM     26  C   UNL     1       4.001   3.151   2.259  0.00  0.00    +0.100 A 
ATOM     27  C   UNL     1       5.303   3.678   2.397  0.00  0.00    +0.149 A 
ATOM     28  N   UNL     1       5.837   3.184   3.478  0.00  0.00    -0.176 NA
ATOM     29  N   UNL     1       4.928   2.318   4.099  0.00  0.00    -0.241 N 
ATOM     30  C   UNL     1       2.966   3.308   1.319  0.00  0.00    +0.227 A 
ATOM     31  N   UNL     1       1.838   2.637   1.501  0.00  0.00    -0.187 NA
BRANCH  29  32
ATOM     32  C   UNL     1       5.163   1.571   5.338  0.00  0.00    +0.058 C 
ATOM     33  C   UNL     1       5.041   0.072   5.060  0.00  0.00    +0.036 C 
ATOM     34  C   UNL     1       6.568   1.881   5.861  0.00  0.00    +0.036 C 
ATOM     35  C   UNL     1       4.127   1.982   6.386  0.00  0.00    +0.036 C 
ENDBRANCH  29  32
BRANCH  30  36
ATOM     36  O   UNL     1       3.121   4.124   0.250  0.00  0.00    -0.492 OA
ATOM     37  H   UNL     1       3.489   3.685  -0.529  0.00  0.00    +0.294 HD
ENDBRANCH  30  36
ENDBRANCH  22  23
ENDBRANCH  20  22
ENDBRANCH   2  20
TORSDOF 9
