REMARK  Name = ZINC21785564
REMARK  14 active torsions:
REMARK  status: ('A' for Active; 'I' for Inactive)
REMARK    1  A    between atoms: C_1  and  C_2
REMARK    2  A    between atoms: C_2  and  N_3
REMARK    3  A    between atoms: N_3  and  C_4
REMARK    4  A    between atoms: N_3  and  S_6
REMARK    5  A    between atoms: C_4  and  C_5
REMARK    6  A    between atoms: S_6  and  C_9
REMARK    7  A    between atoms: C_11  and  C_16
REMARK    8  A    between atoms: C_14  and  C_15
REMARK    9  A    between atoms: N_21  and  C_23
REMARK   10  A    between atoms: C_23  and  C_25
REMARK   11  A    between atoms: C_23  and  C_26
REMARK   12  A    between atoms: N_28  and  C_29
REMARK   13  A    between atoms: C_33  and  C_36
REMARK   14  A    between atoms: C_34  and  C_35
REMARK                            x       y       z     vdW  Elec       q    Type
REMARK                         _______ _______ _______ _____ _____    ______ ____
ROOT
ATOM      1  C   UNL     1      -1.356  -3.364  -2.434  0.00  0.00    +0.092 A 
ATOM      2  C   UNL     1      -2.291  -2.621  -3.191  0.00  0.00    +0.035 A 
ATOM      3  C   UNL     1      -3.045  -3.283  -4.115  0.00  0.00    +0.074 A 
ATOM      4  C   UNL     1      -2.852  -4.676  -4.251  0.00  0.00    +0.268 A 
ATOM      5  O   UNL     1      -3.507  -5.311  -5.061  0.00  0.00    -0.266 OA
ATOM      6  N   UNL     1      -1.939  -5.297  -3.481  0.00  0.00    -0.217 N 
ATOM      7  N   UNL     1      -1.234  -4.658  -2.619  0.00  0.00    -0.168 NA
ENDROOT
BRANCH   1  10
ATOM      8  C   UNL     1       0.149  -0.675  -0.281  0.00  0.00    +0.109 A 
ATOM      9  C   UNL     1      -0.641  -1.307  -1.219  0.00  0.00    +0.039 A 
ATOM     10  C   UNL     1      -0.513  -2.680  -1.423  0.00  0.00    +0.004 A 
ATOM     11  C   UNL     1       0.406  -3.408  -0.670  0.00  0.00    +0.010 A 
ATOM     12  C   UNL     1       1.188  -2.766   0.269  0.00  0.00    +0.006 A 
ATOM     13  C   UNL     1       1.060  -1.402   0.463  0.00  0.00    -0.024 A 
ATOM     14  C   UNL     1       1.916  -0.707   1.490  0.00  0.00    +0.046 C 
BRANCH   8  15
ATOM     15  S   UNL     1      -0.007   1.062  -0.026  0.00  0.00    +0.061 S 
ATOM     16  O   UNL     1       1.308   1.599  -0.068  0.00  0.00    -0.153 OA
ATOM     17  O   UNL     1      -1.040   1.508  -0.895  0.00  0.00    -0.153 OA
BRANCH  15  18
ATOM     18  N   UNL     1      -0.560   1.282   1.519  0.00  0.00    -0.177 NA
BRANCH  18  20
ATOM     19  C   UNL     1       0.341   3.136   2.835  0.00  0.00    +0.022 C 
ATOM     20  C   UNL     1       0.378   1.627   2.590  0.00  0.00    +0.106 C 
ENDBRANCH  18  20
BRANCH  18  21
ATOM     21  C   UNL     1      -1.987   1.133   1.815  0.00  0.00    +0.106 C 
ATOM     22  C   UNL     1      -2.259  -0.289   2.310  0.00  0.00    +0.022 C 
ENDBRANCH  18  21
ENDBRANCH  15  18
ENDBRANCH   8  15
ENDBRANCH   1  10
BRANCH   6  23
ATOM     23  C   UNL     1      -1.746  -6.742  -3.629  0.00  0.00    +0.194 C 
ATOM     24  C   UNL     1      -0.298  -7.023  -4.035  0.00  0.00    +0.043 C 
BRANCH  23  25
ATOM     25  C   UNL     1      -2.042  -7.425  -2.319  0.00  0.00    +0.242 C 
ATOM     26  O   UNL     1      -2.381  -6.770  -1.356  0.00  0.00    -0.273 OA
ATOM     27  N   UNL     1      -1.930  -8.764  -2.217  0.00  0.00    -0.284 N 
ATOM     28  H   UNL     1      -1.712  -9.367  -3.111  0.00  0.00    +0.155 HD
BRANCH  27  29
ATOM     29  C   UNL     1      -2.090  -9.388  -0.975  0.00  0.00    +0.037 A 
ATOM     30  C   UNL     1      -1.951  -8.653   0.196  0.00  0.00    +0.023 A 
ATOM     31  C   UNL     1      -2.110  -9.271   1.420  0.00  0.00    +0.002 A 
ATOM     32  C   UNL     1      -2.408 -10.620   1.482  0.00  0.00    +0.004 A 
ATOM     33  C   UNL     1      -2.548 -11.354   0.319  0.00  0.00    -0.046 A 
ATOM     34  C   UNL     1      -2.395 -10.741  -0.909  0.00  0.00    -0.026 A 
ATOM     35  C   UNL     1      -2.554 -11.540  -2.177  0.00  0.00    +0.046 C 
ATOM     36  C   UNL     1      -2.873 -12.824   0.391  0.00  0.00    +0.044 C 
ENDBRANCH  27  29
ENDBRANCH  23  25
ENDBRANCH   6  23
TORSDOF 8
