REMARK  Name = ZINC13810881
REMARK  3 active torsions:
REMARK  status: ('A' for Active; 'I' for Inactive)
REMARK    1  A    between atoms: C_4  and  C_7
REMARK    2  A    between atoms: C_10  and  C_13
REMARK    3  A    between atoms: C_15  and  C_23
REMARK                            x       y       z     vdW  Elec       q    Type
REMARK                         _______ _______ _______ _____ _____    ______ ____
ROOT
ATOM      1  C   UNL     1       7.416  -2.757  -0.085  0.00  0.00    +0.073 C 
ATOM      2  C   UNL     1       7.419  -4.104  -0.103  0.00  0.00    +0.030 C 
ATOM      3  C   UNL     1       8.767  -4.801  -0.119  0.00  0.00    +0.160 C 
ATOM      4  N   UNL     1       9.951  -3.933  -0.114  0.00  0.00    -0.162 N 
ATOM      5  C   UNL     1       9.769  -2.578  -0.095  0.00  0.00    +0.227 C 
ATOM      6  N   UNL     1       8.571  -2.044  -0.087  0.00  0.00    -0.216 NA
ATOM      7  N   UNL     1      11.027  -2.039  -0.095  0.00  0.00    -0.187 N 
ATOM      8  N   UNL     1      11.937  -3.104  -0.114  0.00  0.00    -0.058 NA
ATOM      9  N   UNL     1      11.324  -4.178  -0.125  0.00  0.00    -0.055 NA
ATOM     10  H   UNL     1      11.247  -1.095  -0.084  0.00  0.00    +0.179 HD
ENDROOT
BRANCH   3  11
ATOM     11  C   UNL     1       8.829  -5.669  -1.350  0.00  0.00    +0.015 A 
ATOM     12  C   UNL     1       9.027  -5.093  -2.593  0.00  0.00    +0.048 A 
ATOM     13  C   UNL     1       9.084  -5.890  -3.723  0.00  0.00    +0.020 A 
ATOM     14  C   UNL     1       8.943  -7.260  -3.610  0.00  0.00    +0.003 A 
ATOM     15  C   UNL     1       8.745  -7.836  -2.369  0.00  0.00    +0.020 A 
ATOM     16  C   UNL     1       8.694  -7.041  -1.238  0.00  0.00    +0.048 A 
ATOM     17 CL   UNL     1       8.454  -7.764   0.322  0.00  0.00    -0.083 Cl
ATOM     18 CL   UNL     1       9.203  -3.372  -2.734  0.00  0.00    -0.083 Cl
ENDBRANCH   3  11
BRANCH   1  22
ATOM     19  C   UNL     1       3.698  -0.688  -0.037  0.00  0.00    -0.018 A 
ATOM     20  C   UNL     1       4.895   0.028  -0.040  0.00  0.00    +0.009 A 
ATOM     21  C   UNL     1       6.098  -0.642  -0.055  0.00  0.00    +0.010 A 
ATOM     22  C   UNL     1       6.120  -2.036  -0.068  0.00  0.00    +0.000 A 
ATOM     23  C   UNL     1       4.924  -2.752  -0.066  0.00  0.00    +0.010 A 
ATOM     24  C   UNL     1       3.720  -2.083  -0.045  0.00  0.00    +0.009 A 
BRANCH  19  28
ATOM     25  C   UNL     1      -0.017   1.379   0.010  0.00  0.00    +0.000 A 
ATOM     26  C   UNL     1       1.169   2.092   0.002  0.00  0.00    +0.001 A 
ATOM     27  C   UNL     1       2.377   1.427  -0.013  0.00  0.00    +0.008 A 
ATOM     28  C   UNL     1       2.402   0.033  -0.021  0.00  0.00    -0.018 A 
ATOM     29  C   UNL     1       1.205  -0.680  -0.013  0.00  0.00    +0.008 A 
ATOM     30  C   UNL     1       0.002  -0.004   0.002  0.00  0.00    +0.001 A 
ENDBRANCH  19  28
ENDBRANCH   1  22
TORSDOF 3
