REMARK  Name = ZINC20132017
REMARK  6 active torsions:
REMARK  status: ('A' for Active; 'I' for Inactive)
REMARK    1  A    between atoms: C_1  and  C_2
REMARK    2  A    between atoms: C_6  and  C_18
REMARK    3  A    between atoms: N_8  and  C_9
REMARK    4  A    between atoms: C_18  and  N_20
REMARK    5  A    between atoms: C_21  and  C_24
REMARK    6  A    between atoms: C_24  and  O_25
REMARK                            x       y       z     vdW  Elec       q    Type
REMARK                         _______ _______ _______ _____ _____    ______ ____
ROOT
ATOM      1  C   UNL     1       0.573   7.268   0.053  0.00  0.00    +0.069 C 
ATOM      2  C   UNL     1       0.799   5.778   0.041  0.00  0.00    +0.081 A 
ATOM      3  C   UNL     1       2.093   5.278   0.018  0.00  0.00    +0.159 A 
ATOM      4  C   UNL     1       2.279   3.882   0.015  0.00  0.00    +0.027 A 
ATOM      5  C   UNL     1       3.636   3.333   0.005  0.00  0.00    +0.027 A 
ATOM      6  C   UNL     1       4.672   4.202   0.271  0.00  0.00    +0.064 A 
ATOM      7  C   UNL     1       4.319   5.610   0.546  0.00  0.00    +0.209 A 
ATOM      8  N   UNL     1       5.098   6.370   1.284  0.00  0.00    -0.323 N 
ATOM      9  O   UNL     1       3.169   6.099   0.002  0.00  0.00    -0.437 OA
ATOM     10  C   UNL     1       1.149   3.055   0.019  0.00  0.00    +0.007 A 
ATOM     11  C   UNL     1      -0.098   3.645   0.041  0.00  0.00    +0.117 A 
ATOM     12  N   UNL     1      -0.233   4.958   0.051  0.00  0.00    -0.256 NA
ATOM     13  H   UNL     1       5.980   5.937   1.778  0.00  0.00    +0.169 HD
ENDROOT
BRANCH   8  14
ATOM     14  C   UNL     1       4.810   7.698   1.439  0.00  0.00    +0.080 A 
ATOM     15  C   UNL     1       5.253   8.626   0.494  0.00  0.00    +0.067 A 
ATOM     16  C   UNL     1       4.954   9.965   0.654  0.00  0.00    +0.126 A 
ATOM     17  C   UNL     1       4.226  10.390   1.754  0.00  0.00    +0.041 A 
ATOM     18  C   UNL     1       3.790   9.476   2.697  0.00  0.00    +0.043 A 
ATOM     19  C   UNL     1       4.076   8.134   2.547  0.00  0.00    +0.147 A 
ATOM     20  F   UNL     1       3.650   7.243   3.469  0.00  0.00    -0.203 F 
ATOM     21  F   UNL     1       5.377  10.864  -0.262  0.00  0.00    -0.205 F 
ENDBRANCH   8  14
BRANCH   6  22
ATOM     22  C   UNL     1       6.071   3.746   0.283  0.00  0.00    +0.082 C 
ATOM     23  S   UNL     1       6.440   2.105  -0.040  0.00  0.00    -0.035 S 
BRANCH  22  24
ATOM     24  N   UNL     1       7.063   4.620   0.547  0.00  0.00    -0.352 N 
ATOM     25  H   UNL     1       8.109   4.279   0.555  0.00  0.00    +0.143 HD
ATOM     26  H   UNL     1       6.826   5.674   0.753  0.00  0.00    +0.143 HD
ENDBRANCH  22  24
ENDBRANCH   6  22
BRANCH  10  27
ATOM     27  C   UNL     1       1.292   1.555   0.007  0.00  0.00    +0.193 C 
BRANCH  27  28
ATOM     28  O   UNL     1      -0.004   0.953   0.021  0.00  0.00    -0.390 OA
ATOM     29  H   UNL     1      -0.101  -0.143   0.014  0.00  0.00    +0.210 HD
ENDBRANCH  27  28
ENDBRANCH  10  27
TORSDOF 5
