REMARK  Name = ZINC36595717
REMARK  12 active torsions:
REMARK  status: ('A' for Active; 'I' for Inactive)
REMARK    1  A    between atoms: C_1  and  C_2
REMARK    2  A    between atoms: C_5  and  S_8
REMARK    3  A    between atoms: S_8  and  C_11
REMARK    4  A    between atoms: C_11  and  N_12
REMARK    5  A    between atoms: C_13  and  C_15
REMARK    6  A    between atoms: C_15  and  C_17
REMARK    7  A    between atoms: C_15  and  N_24
REMARK    8  A    between atoms: C_21  and  O_23
REMARK    9  A    between atoms: N_24  and  C_25
REMARK   10  A    between atoms: C_25  and  C_26
REMARK   11  A    between atoms: C_29  and  C_31
REMARK   12  A    between atoms: C_32  and  C_34
REMARK                            x       y       z     vdW  Elec       q    Type
REMARK                         _______ _______ _______ _____ _____    ______ ____
ROOT
ATOM      1  C   UNL     1       3.026  -4.609   3.566  0.00  0.00    +0.193 C 
ENDROOT
BRANCH   1   2
ATOM      2  C   UNL     1       1.810  -3.797   3.930  0.00  0.00    -0.015 A 
ATOM      3  C   UNL     1       0.732  -4.404   4.548  0.00  0.00    +0.006 A 
ATOM      4  C   UNL     1      -0.385  -3.662   4.884  0.00  0.00    +0.004 A 
ATOM      5  C   UNL     1      -0.427  -2.310   4.601  0.00  0.00    +0.045 A 
ATOM      6  C   UNL     1       0.652  -1.698   3.981  0.00  0.00    +0.117 A 
ATOM      7  C   UNL     1       1.775  -2.444   3.651  0.00  0.00    +0.051 A 
BRANCH   6   8
ATOM      8  O   UNL     1       0.613  -0.368   3.703  0.00  0.00    -0.507 OA
ATOM      9  H   UNL     1       0.956   0.192   4.412  0.00  0.00    +0.292 HD
ENDBRANCH   6   8
ENDBRANCH   1   2
BRANCH   1  11
ATOM     10  N   UNL     1       2.440  -4.466   1.167  0.00  0.00    -0.294 N 
ATOM     11  C   UNL     1       2.826  -5.231   2.208  0.00  0.00    +0.239 C 
ATOM     12  O   UNL     1       3.013  -6.419   2.051  0.00  0.00    -0.273 OA
ATOM     13  H   UNL     1       2.359  -3.506   1.274  0.00  0.00    +0.150 HD
BRANCH  10  14
ATOM     14  C   UNL     1       2.143  -5.086  -0.127  0.00  0.00    +0.278 C 
BRANCH  14  15
ATOM     15  S   UNL     1       0.369  -5.449  -0.231  0.00  0.00    +0.013 S 
ATOM     16  O   UNL     1      -0.077  -6.059   0.973  0.00  0.00    -0.168 OA
ATOM     17  O   UNL     1       0.060  -6.025  -1.492  0.00  0.00    -0.168 OA
BRANCH  15  22
ATOM     18  C   UNL     1      -2.320  -0.048  -0.306  0.00  0.00    +0.044 C 
ATOM     19  C   UNL     1      -1.648  -1.397  -0.287  0.00  0.00    -0.050 A 
ATOM     20  C   UNL     1      -1.272  -1.999  -1.474  0.00  0.00    +0.005 A 
ATOM     21  C   UNL     1      -0.656  -3.236  -1.456  0.00  0.00    +0.027 A 
ATOM     22  C   UNL     1      -0.415  -3.872  -0.253  0.00  0.00    +0.090 A 
ATOM     23  C   UNL     1      -0.790  -3.269   0.934  0.00  0.00    +0.027 A 
ATOM     24  C   UNL     1      -1.402  -2.030   0.917  0.00  0.00    +0.005 A 
ENDBRANCH  15  22
ENDBRANCH  14  15
ENDBRANCH  10  14
ENDBRANCH   1  11
BRANCH   1  25
ATOM     25  N   UNL     1       3.224  -5.665   4.562  0.00  0.00    -0.272 N 
ATOM     26  C   UNL     1       3.740  -5.364   5.770  0.00  0.00    +0.283 C 
ATOM     27  O   UNL     1       3.985  -6.251   6.565  0.00  0.00    -0.267 OA
BRANCH  26  28
ATOM     28  C   UNL     1       4.005  -3.966   6.126  0.00  0.00    +0.189 A 
ATOM     29  C   UNL     1       4.558  -3.527   7.295  0.00  0.00    +0.054 A 
ATOM     30  C   UNL     1       4.628  -2.128   7.207  0.00  0.00    +0.042 A 
ATOM     31  C   UNL     1       4.122  -1.778   6.004  0.00  0.00    +0.196 A 
ATOM     32  O   UNL     1       3.752  -2.889   5.354  0.00  0.00    -0.458 OA
ENDBRANCH  26  28
BRANCH  25  33
ATOM     33  C   UNL     1       2.860  -7.048   4.245  0.00  0.00    +0.183 C 
BRANCH  33  34
ATOM     34  C   UNL     1       4.098  -7.818   3.862  0.00  0.00    +0.122 A 
ATOM     35  C   UNL     1       4.891  -8.502   4.706  0.00  0.00    +0.046 A 
ATOM     36  C   UNL     1       5.928  -9.066   3.927  0.00  0.00    +0.045 A 
ATOM     37  C   UNL     1       5.707  -8.692   2.654  0.00  0.00    +0.102 A 
ATOM     38  O   UNL     1       4.594  -7.941   2.620  0.00  0.00    -0.463 OA
ATOM     39  C   UNL     1       6.559  -9.058   1.467  0.00  0.00    +0.086 C 
ENDBRANCH  33  34
ENDBRANCH  25  33
ENDBRANCH   1  25
TORSDOF 10
