REMARK  Name = ZINC19297860
REMARK  12 active torsions:
REMARK  status: ('A' for Active; 'I' for Inactive)
REMARK    1  A    between atoms: C_1  and  C_2
REMARK    2  A    between atoms: N_13  and  C_29
REMARK    3  A    between atoms: C_14  and  S_16
REMARK    4  A    between atoms: S_16  and  C_17
REMARK    5  A    between atoms: C_17  and  C_18
REMARK    6  A    between atoms: N_20  and  C_21
REMARK    7  A    between atoms: N_20  and  C_22
REMARK    8  A    between atoms: C_22  and  C_23
REMARK    9  A    between atoms: N_25  and  C_26
REMARK   10  A    between atoms: C_29  and  C_30
REMARK   11  A    between atoms: C_30  and  C_31
REMARK   12  A    between atoms: C_30  and  C_32
REMARK                            x       y       z     vdW  Elec       q    Type
REMARK                         _______ _______ _______ _____ _____    ______ ____
ROOT
ATOM      1  C   UNL     1      -9.977   7.960   0.013  0.00  0.00    +0.008 C 
ATOM      2  C   UNL     1      -9.051   6.780  -0.289  0.00  0.00    -0.009 C 
ATOM      3  C   UNL     1      -9.474   5.565   0.542  0.00  0.00    +0.008 C 
ATOM      4  C   UNL     1      -8.719   4.323   0.068  0.00  0.00    +0.037 C 
ATOM      5  C   UNL     1      -7.223   4.629   0.062  0.00  0.00    -0.023 A 
ATOM      6  C   UNL     1      -6.780   5.902   0.068  0.00  0.00    -0.004 A 
ATOM      7  S   UNL     1      -5.012   5.774   0.058  0.00  0.00    -0.073 S 
ATOM      8  C   UNL     1      -4.873   4.005   0.047  0.00  0.00    +0.117 A 
ATOM      9  C   UNL     1      -6.210   3.572   0.050  0.00  0.00    +0.076 A 
ATOM     10  C   UNL     1      -6.407   2.155   0.043  0.00  0.00    +0.263 A 
ATOM     11  O   UNL     1      -7.533   1.688   0.045  0.00  0.00    -0.267 OA
ATOM     12  N   UNL     1      -5.332   1.345   0.029  0.00  0.00    -0.287 N 
ATOM     13  C   UNL     1      -4.064   1.851   0.031  0.00  0.00    +0.173 A 
ATOM     14  N   UNL     1      -3.855   3.152   0.037  0.00  0.00    -0.216 NA
ATOM     15  C   UNL     1      -7.607   7.151   0.080  0.00  0.00    +0.046 C 
ENDROOT
BRANCH  13  16
ATOM     16  S   UNL     1      -2.689   0.750   0.019  0.00  0.00    -0.078 S 
BRANCH  16  17
ATOM     17  C   UNL     1      -1.330   1.944   0.019  0.00  0.00    +0.173 C 
BRANCH  17  18
ATOM     18  C   UNL     1      -0.014   1.209   0.009  0.00  0.00    +0.226 C 
ATOM     19  O   UNL     1       0.002  -0.004   0.002  0.00  0.00    -0.275 OA
ATOM     20  N   UNL     1       1.143   1.898   0.001  0.00  0.00    -0.295 N 
ATOM     21  C   UNL     1       1.124   3.363   0.009  0.00  0.00    +0.132 C 
BRANCH  20  22
ATOM     22  C   UNL     1       2.422   1.183  -0.015  0.00  0.00    +0.203 C 
BRANCH  22  23
ATOM     23  C   UNL     1       2.847   0.946  -1.441  0.00  0.00    +0.231 C 
ATOM     24  O   UNL     1       2.150   1.335  -2.354  0.00  0.00    -0.274 OA
ATOM     25  N   UNL     1       4.001   0.300  -1.702  0.00  0.00    -0.311 N 
ATOM     26  H   UNL     1       4.633  -0.053  -0.874  0.00  0.00    +0.149 HD
BRANCH  25  27
ATOM     27  C   UNL     1       4.414   0.069  -3.088  0.00  0.00    +0.073 C 
ATOM     28  C   UNL     1       4.965  -1.314  -3.440  0.00  0.00    +0.024 C 
ATOM     29  C   UNL     1       5.909  -0.112  -3.359  0.00  0.00    +0.024 C 
ENDBRANCH  25  27
ENDBRANCH  22  23
ENDBRANCH  20  22
ENDBRANCH  17  18
ENDBRANCH  16  17
ENDBRANCH  13  16
BRANCH  12  30
ATOM     30  C   UNL     1      -5.526  -0.107   0.016  0.00  0.00    +0.130 C 
BRANCH  30  31
ATOM     31  C   UNL     1      -5.591  -0.626   1.454  0.00  0.00    +0.003 C 
ATOM     32  C   UNL     1      -6.832  -0.057   2.145  0.00  0.00    +0.009 C 
ATOM     33  C   UNL     1      -5.669  -2.154   1.442  0.00  0.00    +0.009 C 
ENDBRANCH  30  31
ENDBRANCH  12  30
TORSDOF 8
