REMARK  Name = ZINC41018454
REMARK  11 active torsions:
REMARK  status: ('A' for Active; 'I' for Inactive)
REMARK    1  A    between atoms: C_1  and  C_2
REMARK    2  A    between atoms: C_2  and  O_3
REMARK    3  A    between atoms: O_3  and  C_4
REMARK    4  A    between atoms: C_4  and  C_6
REMARK    5  A    between atoms: C_7  and  C_27
REMARK    6  A    between atoms: C_10  and  N_11
REMARK    7  A    between atoms: C_12  and  C_14
REMARK    8  A    between atoms: C_18  and  O_25
REMARK    9  A    between atoms: O_25  and  C_26
REMARK   10  A    between atoms: C_30  and  C_34
REMARK   11  A    between atoms: C_32  and  C_33
REMARK                            x       y       z     vdW  Elec       q    Type
REMARK                         _______ _______ _______ _____ _____    ______ ____
ROOT
ATOM      1  C   UNL     1      -3.418  -2.478  -0.082  0.00  0.00    +0.095 A 
ATOM      2  C   UNL     1      -3.990  -2.624  -1.409  0.00  0.00    +0.005 A 
ATOM      3  C   UNL     1      -5.253  -3.120  -1.448  0.00  0.00    +0.056 A 
ATOM      4  S   UNL     1      -5.644  -3.379   0.268  0.00  0.00    -0.080 S 
ATOM      5  C   UNL     1      -4.217  -2.865   0.983  0.00  0.00    +0.087 A 
ENDROOT
BRANCH   2   6
ATOM      6  C   UNL     1      -3.246  -2.255  -2.637  0.00  0.00    -0.014 A 
ATOM      7  C   UNL     1      -3.087  -0.913  -2.982  0.00  0.00    +0.009 A 
ATOM      8  C   UNL     1      -2.394  -0.576  -4.127  0.00  0.00    +0.004 A 
ATOM      9  C   UNL     1      -1.857  -1.565  -4.930  0.00  0.00    -0.050 A 
ATOM     10  C   UNL     1      -2.011  -2.898  -4.593  0.00  0.00    +0.007 A 
ATOM     11  C   UNL     1      -2.698  -3.247  -3.448  0.00  0.00    -0.042 A 
ATOM     12  C   UNL     1      -2.860  -4.699  -3.078  0.00  0.00    +0.044 C 
ATOM     13  C   UNL     1      -1.101  -1.190  -6.179  0.00  0.00    +0.044 C 
ENDBRANCH   2   6
BRANCH   5  14
ATOM     14  N   UNL     1      -3.908  -2.831   2.332  0.00  0.00    -0.275 N 
ATOM     15  C   UNL     1      -4.811  -3.248   3.241  0.00  0.00    +0.256 C 
ATOM     16  O   UNL     1      -5.898  -3.654   2.876  0.00  0.00    -0.270 OA
ATOM     17  H   UNL     1      -3.041  -2.507   2.623  0.00  0.00    +0.156 HD
BRANCH  15  18
ATOM     18  C   UNL     1      -4.482  -3.212   4.675  0.00  0.00    +0.122 A 
ATOM     19  C   UNL     1      -5.389  -3.641   5.635  0.00  0.00    +0.032 A 
ATOM     20  C   UNL     1      -5.013  -3.547   7.000  0.00  0.00    +0.022 A 
ATOM     21  C   UNL     1      -5.798  -4.144   7.996  0.00  0.00    +0.057 A 
ATOM     22  C   UNL     1      -5.394  -4.079   9.314  0.00  0.00    +0.121 A 
ATOM     23  C   UNL     1      -4.217  -3.417   9.656  0.00  0.00    +0.049 A 
ATOM     24  C   UNL     1      -3.448  -2.809   8.688  0.00  0.00    +0.050 A 
ATOM     25  C   UNL     1      -3.839  -2.857   7.357  0.00  0.00    +0.139 A 
ATOM     26  O   UNL     1      -3.109  -2.223   6.407  0.00  0.00    -0.422 OA
ATOM     27  C   UNL     1      -3.174  -2.726   5.150  0.00  0.00    +0.350 A 
ATOM     28  O   UNL     1      -2.189  -2.770   4.436  0.00  0.00    -0.244 OA
BRANCH  22  29
ATOM     29  O   UNL     1      -6.148  -4.663  10.282  0.00  0.00    -0.495 OA
ATOM     30  C   UNL     1      -5.673  -4.559  11.626  0.00  0.00    +0.277 C 
ENDBRANCH  22  29
ENDBRANCH  15  18
ENDBRANCH   5  14
BRANCH   1  31
ATOM     31  C   UNL     1      -2.066  -1.957   0.120  0.00  0.00    +0.342 C 
ATOM     32  O   UNL     1      -1.116  -2.717   0.123  0.00  0.00    -0.245 OA
BRANCH  31  33
ATOM     33  O   UNL     1      -1.873  -0.635   0.303  0.00  0.00    -0.461 OA
BRANCH  33  35
ATOM     34  C   UNL     1      -0.508   1.322   0.684  0.00  0.00    +0.048 C 
ATOM     35  C   UNL     1      -0.527  -0.196   0.494  0.00  0.00    +0.229 C 
ENDBRANCH  33  35
ENDBRANCH  31  33
ENDBRANCH   1  31
TORSDOF 7
