REMARK  Name = ZINC36534680
REMARK  10 active torsions:
REMARK  status: ('A' for Active; 'I' for Inactive)
REMARK    1  A    between atoms: C_1  and  N_2
REMARK    2  A    between atoms: N_2  and  C_3
REMARK    3  A    between atoms: C_3  and  C_5
REMARK    4  A    between atoms: C_3  and  C_14
REMARK    5  A    between atoms: C_8  and  N_11
REMARK    6  A    between atoms: N_16  and  C_17
REMARK    7  A    between atoms: C_23  and  C_25
REMARK    8  A    between atoms: C_25  and  C_26
REMARK    9  A    between atoms: C_25  and  C_32
REMARK   10  A    between atoms: C_25  and  O_38
REMARK                            x       y       z     vdW  Elec       q    Type
REMARK                         _______ _______ _______ _____ _____    ______ ____
ROOT
ATOM      1  C   UNL     1       0.296  -0.856   1.269  0.00  0.00    +0.192 C 
ENDROOT
BRANCH   1   2
ATOM      2  C   UNL     1      -0.702  -0.472   2.331  0.00  0.00    -0.018 A 
ATOM      3  C   UNL     1      -0.377   0.486   3.272  0.00  0.00    +0.008 A 
ATOM      4  C   UNL     1      -1.293   0.838   4.246  0.00  0.00    +0.033 A 
ATOM      5  C   UNL     1      -2.535   0.232   4.278  0.00  0.00    +0.126 A 
ATOM      6  C   UNL     1      -2.861  -0.726   3.336  0.00  0.00    +0.033 A 
ATOM      7  C   UNL     1      -1.946  -1.075   2.359  0.00  0.00    +0.008 A 
BRANCH   5   8
ATOM      8  N   UNL     1      -3.515   0.608   5.321  0.00  0.00    +0.056 N 
ATOM      9  O   UNL     1      -3.230   1.445   6.145  0.00  0.00    -0.126 OA
ATOM     10  O   UNL     1      -4.601   0.078   5.348  0.00  0.00    -0.126 OA
ENDBRANCH   5   8
ENDBRANCH   1   2
BRANCH   1  12
ATOM     11  C   UNL     1       0.224   1.387   0.085  0.00  0.00    +0.133 C 
ATOM     12  N   UNL     1       0.050  -0.068   0.059  0.00  0.00    -0.286 N 
ATOM     13  C   UNL     1      -0.336  -0.681  -1.077  0.00  0.00    +0.257 C 
ATOM     14  O   UNL     1      -0.585  -1.868  -1.072  0.00  0.00    -0.272 OA
BRANCH  13  15
ATOM     15  C   UNL     1      -0.458   0.109  -2.355  0.00  0.00    +0.192 C 
BRANCH  15  16
ATOM     16  C   UNL     1      -0.402  -0.829  -3.533  0.00  0.00    -0.003 A 
ATOM     17  C   UNL     1      -1.573  -1.309  -4.090  0.00  0.00    +0.007 A 
ATOM     18  C   UNL     1      -1.522  -2.170  -5.171  0.00  0.00    +0.000 A 
ATOM     19  C   UNL     1      -0.300  -2.551  -5.694  0.00  0.00    +0.000 A 
ATOM     20  C   UNL     1       0.870  -2.071  -5.137  0.00  0.00    +0.000 A 
ATOM     21  C   UNL     1       0.819  -1.206  -4.059  0.00  0.00    +0.007 A 
ENDBRANCH  15  16
BRANCH  15  22
ATOM     22  C   UNL     1      -1.770   0.850  -2.364  0.00  0.00    -0.003 A 
ATOM     23  C   UNL     1      -2.839   0.372  -1.628  0.00  0.00    +0.007 A 
ATOM     24  C   UNL     1      -4.043   1.051  -1.637  0.00  0.00    +0.000 A 
ATOM     25  C   UNL     1      -4.178   2.208  -2.381  0.00  0.00    +0.000 A 
ATOM     26  C   UNL     1      -3.110   2.686  -3.117  0.00  0.00    +0.000 A 
ATOM     27  C   UNL     1      -1.905   2.009  -3.105  0.00  0.00    +0.007 A 
ENDBRANCH  15  22
BRANCH  15  28
ATOM     28  O   UNL     1       0.618   1.046  -2.441  0.00  0.00    -0.371 OA
ATOM     29  H   UNL     1       1.495   0.638  -2.440  0.00  0.00    +0.212 HD
ENDBRANCH  15  28
ENDBRANCH  13  15
ENDBRANCH   1  12
BRANCH   1  30
ATOM     30  C   UNL     1       1.691  -0.585   1.771  0.00  0.00    +0.238 C 
ATOM     31  O   UNL     1       2.409   0.191   1.176  0.00  0.00    -0.273 OA
ATOM     32  N   UNL     1       2.141  -1.204   2.880  0.00  0.00    -0.311 N 
ATOM     33  H   UNL     1       1.567  -1.824   3.356  0.00  0.00    +0.149 HD
BRANCH  32  34
ATOM     34  C   UNL     1       3.497  -0.940   3.367  0.00  0.00    +0.073 C 
ATOM     35  C   UNL     1       4.488  -1.849   2.636  0.00  0.00    +0.022 C 
ATOM     36  C   UNL     1       5.904  -1.573   3.145  0.00  0.00    +0.002 C 
ATOM     37  C   UNL     1       5.969  -1.852   4.648  0.00  0.00    +0.000 C 
ATOM     38  C   UNL     1       4.979  -0.944   5.379  0.00  0.00    +0.002 C 
ATOM     39  C   UNL     1       3.563  -1.219   4.870  0.00  0.00    +0.022 C 
ENDBRANCH  32  34
ENDBRANCH   1  30
TORSDOF 9
