REMARK  Name = ZINC39671835
REMARK  13 active torsions:
REMARK  status: ('A' for Active; 'I' for Inactive)
REMARK    1  A    between atoms: C_1  and  C_2
REMARK    2  A    between atoms: C_4  and  C_38
REMARK    3  A    between atoms: N_5  and  C_7
REMARK    4  A    between atoms: C_7  and  C_8
REMARK    5  A    between atoms: C_8  and  C_9
REMARK    6  A    between atoms: C_9  and  N_10
REMARK    7  A    between atoms: C_11  and  C_13
REMARK    8  A    between atoms: C_24  and  C_26
REMARK    9  A    between atoms: C_26  and  C_28
REMARK   10  A    between atoms: C_26  and  O_31
REMARK   11  A    between atoms: C_28  and  C_29
REMARK   12  A    between atoms: C_28  and  C_30
REMARK   13  A    between atoms: O_31  and  C_32
REMARK                            x       y       z     vdW  Elec       q    Type
REMARK                         _______ _______ _______ _____ _____    ______ ____
ROOT
ATOM      1  C   UNL     1       4.171  -6.773   4.022  0.00  0.00    +0.100 C 
ATOM      2  C   UNL     1       5.008  -5.616   4.611  0.00  0.00    +0.121 C 
ATOM      3  N   UNL     1       5.036  -5.878   6.069  0.00  0.00    -0.297 N 
ATOM      4  C   UNL     1       5.182  -7.350   6.176  0.00  0.00    +0.115 C 
ATOM      5  C   UNL     1       4.291  -7.910   5.051  0.00  0.00    -0.004 C 
ATOM      6  C   UNL     1       4.949  -9.131   4.414  0.00  0.00    -0.010 C 
ATOM      7  C   UNL     1       5.004 -10.268   5.439  0.00  0.00    -0.082 C 
ATOM      8  N   UNL     1       3.644 -10.596   5.882  0.00  0.00    +0.379 N 
ATOM      9  C   UNL     1       3.052  -9.445   6.576  0.00  0.00    -0.082 C 
ATOM     10  C   UNL     1       2.915  -8.273   5.599  0.00  0.00    -0.010 C 
ATOM     11  C   UNL     1       4.949  -4.982   7.072  0.00  0.00    +0.257 C 
ATOM     12  O   UNL     1       5.071  -5.345   8.223  0.00  0.00    -0.272 OA
ATOM     13  H   UNL     1       3.078 -10.831   5.081  0.00  0.00    -0.086 HD
ATOM     14  H   UNL     1       3.677 -11.384   6.510  0.00  0.00    -0.086 HD
ENDROOT
BRANCH   1  16
ATOM     15  N   UNL     1       1.977  -6.885   2.886  0.00  0.00    -0.315 N 
ATOM     16  C   UNL     1       2.732  -6.354   3.869  0.00  0.00    +0.218 C 
ATOM     17  O   UNL     1       2.253  -5.539   4.628  0.00  0.00    -0.275 OA
ATOM     18  H   UNL     1       2.360  -7.537   2.279  0.00  0.00    +0.149 HD
BRANCH  15  19
ATOM     19  C   UNL     1       0.578  -6.478   2.737  0.00  0.00    +0.106 C 
BRANCH  19  20
ATOM     20  C   UNL     1      -0.047  -7.224   1.556  0.00  0.00    +0.042 C 
BRANCH  20  21
ATOM     21  C   UNL     1      -1.509  -6.798   1.400  0.00  0.00    +0.145 C 
BRANCH  21  26
ATOM     22  C   UNL     1      -2.993  -7.917  -3.263  0.00  0.00    +0.067 C 
ATOM     23  C   UNL     1      -2.747  -7.982  -1.777  0.00  0.00    +0.060 A 
ATOM     24  C   UNL     1      -3.143  -9.018  -0.925  0.00  0.00    +0.047 A 
ATOM     25  C   UNL     1      -2.737  -8.705   0.327  0.00  0.00    +0.036 A 
ATOM     26  N   UNL     1      -2.107  -7.513   0.270  0.00  0.00    -0.268 N 
ATOM     27  N   UNL     1      -2.122  -7.081  -1.063  0.00  0.00    -0.176 NA
ATOM     28  C   UNL     1      -2.951  -9.537   1.565  0.00  0.00    +0.065 C 
ENDBRANCH  21  26
ENDBRANCH  20  21
ENDBRANCH  19  20
ENDBRANCH  15  19
ENDBRANCH   1  16
BRANCH  11  29
ATOM     29  C   UNL     1       4.699  -3.528   6.763  0.00  0.00    +0.261 C 
BRANCH  29  30
ATOM     30  C   UNL     1       6.035  -2.820   6.525  0.00  0.00    +0.033 C 
ATOM     31  C   UNL     1       6.809  -3.549   5.425  0.00  0.00    +0.011 C 
ATOM     32  C   UNL     1       5.776  -1.375   6.096  0.00  0.00    +0.011 C 
ENDBRANCH  29  30
BRANCH  29  33
ATOM     33  O   UNL     1       4.025  -2.916   7.865  0.00  0.00    -0.479 OA
BRANCH  33  34
ATOM     34  C   UNL     1       3.132  -1.935   7.574  0.00  0.00    +0.122 A 
ATOM     35  C   UNL     1       2.838  -1.633   6.252  0.00  0.00    +0.045 A 
ATOM     36  C   UNL     1       1.928  -0.635   5.958  0.00  0.00    +0.004 A 
ATOM     37  C   UNL     1       1.312   0.063   6.980  0.00  0.00    +0.000 A 
ATOM     38  C   UNL     1       1.603  -0.236   8.298  0.00  0.00    +0.004 A 
ATOM     39  C   UNL     1       2.507  -1.237   8.597  0.00  0.00    +0.045 A 
ENDBRANCH  33  34
ENDBRANCH  29  33
ENDBRANCH  11  29
TORSDOF 9
