REMARK  Name = ZINC20734051
REMARK  11 active torsions:
REMARK  status: ('A' for Active; 'I' for Inactive)
REMARK    1  A    between atoms: C_1  and  O_2
REMARK    2  A    between atoms: O_2  and  C_3
REMARK    3  A    between atoms: C_3  and  C_5
REMARK    4  A    between atoms: C_5  and  C_7
REMARK    5  A    between atoms: C_5  and  N_11
REMARK    6  A    between atoms: C_7  and  C_8
REMARK    7  A    between atoms: C_8  and  S_9
REMARK    8  A    between atoms: S_9  and  C_10
REMARK    9  A    between atoms: C_23  and  C_25
REMARK   10  A    between atoms: C_30  and  O_31
REMARK   11  A    between atoms: O_31  and  C_32
REMARK                            x       y       z     vdW  Elec       q    Type
REMARK                         _______ _______ _______ _____ _____    ______ ____
ROOT
ATOM      1  N   UNL     1      -2.701  -2.378   2.149  0.00  0.00    -0.286 N 
ATOM      2  C   UNL     1      -3.382  -2.740   1.044  0.00  0.00    +0.304 C 
ATOM      3  O   UNL     1      -2.871  -2.618  -0.052  0.00  0.00    -0.253 OA
ATOM      4  N   UNL     1      -4.630  -3.238   1.154  0.00  0.00    -0.273 N 
ATOM      5  C   UNL     1      -5.350  -3.737  -0.027  0.00  0.00    +0.116 C 
ATOM      6  C   UNL     1      -5.597  -5.242   0.131  0.00  0.00    +0.076 C 
ATOM      7  C   UNL     1      -6.098  -5.509   1.528  0.00  0.00    +0.066 A 
ATOM      8  C   UNL     1      -5.966  -4.651   2.562  0.00  0.00    +0.064 A 
ATOM      9  N   UNL     1      -6.532  -5.240   3.650  0.00  0.00    -0.346 N 
ATOM     10  H   UNL     1      -6.590  -4.868   4.544  0.00  0.00    +0.167 HD
ATOM     11  C   UNL     1      -6.999  -6.446   3.248  0.00  0.00    +0.197 A 
ATOM     12  N   UNL     1      -6.734  -6.596   1.976  0.00  0.00    -0.240 NA
ATOM     13  C   UNL     1      -5.305  -3.304   2.463  0.00  0.00    +0.160 C 
ATOM     14  H   UNL     1      -3.135  -2.405   3.017  0.00  0.00    +0.151 HD
ENDROOT
BRANCH  13  15
ATOM     15  C   UNL     1      -6.346  -2.218   2.558  0.00  0.00    +0.021 A 
ATOM     16  C   UNL     1      -7.397  -2.187   1.662  0.00  0.00    +0.009 A 
ATOM     17  C   UNL     1      -8.351  -1.191   1.748  0.00  0.00    +0.001 A 
ATOM     18  C   UNL     1      -8.257  -0.223   2.732  0.00  0.00    +0.004 A 
ATOM     19  C   UNL     1      -7.209  -0.250   3.631  0.00  0.00    +0.046 A 
ATOM     20  C   UNL     1      -6.252  -1.252   3.549  0.00  0.00    +0.135 A 
BRANCH  20  21
ATOM     21  O   UNL     1      -5.223  -1.283   4.436  0.00  0.00    -0.405 OA
BRANCH  21  22
ATOM     22  C   UNL     1      -5.190  -0.257   5.429  0.00  0.00    +0.575 C 
ATOM     23  F   UNL     1      -6.354  -0.319   6.203  0.00  0.00    -0.133 F 
ATOM     24  F   UNL     1      -4.074  -0.439   6.252  0.00  0.00    -0.133 F 
ATOM     25  F   UNL     1      -5.111   0.993   4.806  0.00  0.00    -0.133 F 
ENDBRANCH  21  22
ENDBRANCH  20  21
ENDBRANCH  13  15
BRANCH   1  26
ATOM     26  C   UNL     1      -1.306  -1.943   2.041  0.00  0.00    +0.184 C 
BRANCH  26  27
ATOM     27  C   UNL     1      -0.402  -3.149   2.054  0.00  0.00    +0.327 C 
ATOM     28  O   UNL     1      -0.874  -4.257   2.146  0.00  0.00    -0.249 OA
BRANCH  27  30
ATOM     29  C   UNL     1       1.724  -4.177   1.984  0.00  0.00    +0.280 C 
ATOM     30  O   UNL     1       0.928  -2.991   1.965  0.00  0.00    -0.467 OA
ENDBRANCH  27  30
ENDBRANCH  26  27
BRANCH  26  31
ATOM     31  C   UNL     1      -0.962  -1.034   3.222  0.00  0.00    +0.044 C 
BRANCH  31  32
ATOM     32  C   UNL     1      -1.793   0.248   3.138  0.00  0.00    +0.071 C 
BRANCH  32  33
ATOM     33  S   UNL     1      -1.385   1.326   4.538  0.00  0.00    -0.164 S 
ATOM     34  C   UNL     1      -2.440   2.781   4.294  0.00  0.00    +0.084 C 
ENDBRANCH  32  33
ENDBRANCH  31  32
ENDBRANCH  26  31
ENDBRANCH   1  26
TORSDOF 9
