REMARK  Name = ZINC34836001
REMARK  12 active torsions:
REMARK  status: ('A' for Active; 'I' for Inactive)
REMARK    1  A    between atoms: C_1  and  C_2
REMARK    2  A    between atoms: C_2  and  C_3
REMARK    3  A    between atoms: C_3  and  C_4
REMARK    4  A    between atoms: C_4  and  N_5
REMARK    5  A    between atoms: C_6  and  C_31
REMARK    6  A    between atoms: C_14  and  C_20
REMARK    7  A    between atoms: N_22  and  C_23
REMARK    8  A    between atoms: C_26  and  C_30
REMARK    9  A    between atoms: C_27  and  C_29
REMARK   10  A    between atoms: N_33  and  C_34
REMARK   11  A    between atoms: C_39  and  C_44
REMARK   12  A    between atoms: C_41  and  C_43
REMARK                            x       y       z     vdW  Elec       q    Type
REMARK                         _______ _______ _______ _____ _____    ______ ____
ROOT
ATOM      1  N   UNL     1       1.760  -3.062   2.102  0.00  0.00    -0.287 N 
ATOM      2  C   UNL     1       3.223  -3.289   2.322  0.00  0.00    +0.198 C 
ATOM      3  C   UNL     1       3.223  -4.139   3.555  0.00  0.00    +0.127 C 
ATOM      4  C   UNL     1       2.724  -5.549   3.298  0.00  0.00    +0.009 C 
ATOM      5  C   UNL     1       2.791  -6.172   4.465  0.00  0.00    +0.004 C 
ATOM      6  C   UNL     1       3.277  -5.108   5.456  0.00  0.00    +0.155 C 
ATOM      7  O   UNL     1       4.166  -4.287   4.589  0.00  0.00    -0.358 OA
ATOM      8  C   UNL     1       2.001  -4.194   5.615  0.00  0.00    +0.123 C 
ATOM      9  C   UNL     1       2.107  -3.346   4.347  0.00  0.00    +0.128 C 
ATOM     10  C   UNL     1       1.089  -3.196   3.294  0.00  0.00    +0.223 C 
ATOM     11  O   UNL     1      -0.114  -3.193   3.448  0.00  0.00    -0.275 OA
ENDROOT
BRANCH   8  12
ATOM     12  C   UNL     1       0.741  -5.021   5.631  0.00  0.00    +0.224 C 
ATOM     13  O   UNL     1      -0.100  -4.862   4.772  0.00  0.00    -0.275 OA
ATOM     14  N   UNL     1       0.550  -5.938   6.600  0.00  0.00    -0.285 N 
ATOM     15  H   UNL     1       1.254  -6.119   7.242  0.00  0.00    +0.155 HD
BRANCH  14  16
ATOM     16  C   UNL     1      -0.665  -6.628   6.680  0.00  0.00    +0.034 A 
ATOM     17  C   UNL     1      -0.691  -7.942   7.130  0.00  0.00    +0.023 A 
ATOM     18  C   UNL     1      -1.891  -8.620   7.208  0.00  0.00    +0.005 A 
ATOM     19  C   UNL     1      -3.067  -7.992   6.838  0.00  0.00    -0.047 A 
ATOM     20  C   UNL     1      -3.044  -6.685   6.390  0.00  0.00    -0.046 A 
ATOM     21  C   UNL     1      -1.848  -5.999   6.316  0.00  0.00    +0.027 A 
ATOM     22  C   UNL     1      -4.328  -6.005   5.987  0.00  0.00    +0.044 C 
ATOM     23  C   UNL     1      -4.375  -8.736   6.924  0.00  0.00    +0.044 C 
ENDBRANCH  14  16
ENDBRANCH   8  12
BRANCH   2  24
ATOM     24  C   UNL     1       3.939  -1.986   2.566  0.00  0.00    +0.237 C 
ATOM     25  O   UNL     1       3.312  -1.002   2.897  0.00  0.00    -0.274 OA
ATOM     26  N   UNL     1       5.277  -1.913   2.416  0.00  0.00    -0.311 N 
ATOM     27  H   UNL     1       5.778  -2.700   2.151  0.00  0.00    +0.149 HD
BRANCH  26  28
ATOM     28  C   UNL     1       5.973  -0.646   2.653  0.00  0.00    +0.076 C 
ATOM     29  C   UNL     1       5.932   0.204   1.381  0.00  0.00    +0.022 C 
ATOM     30  C   UNL     1       6.659   1.527   1.629  0.00  0.00    +0.002 C 
ATOM     31  C   UNL     1       8.114   1.246   2.007  0.00  0.00    +0.003 C 
ATOM     32  C   UNL     1       8.156   0.396   3.279  0.00  0.00    -0.009 C 
ATOM     33  C   UNL     1       7.429  -0.927   3.031  0.00  0.00    +0.009 C 
ATOM     34  C   UNL     1       8.116  -1.681   1.890  0.00  0.00    +0.009 C 
ATOM     35  C   UNL     1       9.612   0.115   3.657  0.00  0.00    +0.008 C 
ENDBRANCH  26  28
ENDBRANCH   2  24
BRANCH   1  36
ATOM     36  C   UNL     1       1.140  -2.741   0.815  0.00  0.00    +0.108 C 
BRANCH  36  37
ATOM     37  C   UNL     1       1.108  -1.223   0.629  0.00  0.00    +0.019 C 
BRANCH  37  39
ATOM     38  C   UNL     1       0.428   0.631  -0.902  0.00  0.00    +0.004 C 
ATOM     39  C   UNL     1       0.460  -0.887  -0.716  0.00  0.00    -0.002 C 
ENDBRANCH  37  39
ENDBRANCH  36  37
ENDBRANCH   1  36
TORSDOF 7
