REMARK  Name = ZINC57314611
REMARK  6 active torsions:
REMARK  status: ('A' for Active; 'I' for Inactive)
REMARK    1  A    between atoms: C_1  and  C_2
REMARK    2  A    between atoms: C_2  and  C_3
REMARK    3  A    between atoms: C_6  and  C_8
REMARK    4  A    between atoms: C_10  and  C_11
REMARK    5  A    between atoms: C_10  and  C_13
REMARK    6  A    between atoms: N_15  and  C_16
REMARK                            x       y       z     vdW  Elec       q    Type
REMARK                         _______ _______ _______ _____ _____    ______ ____
ROOT
ATOM      1  C   UNL     1       1.749  -1.758  -4.906  0.00  0.00    +0.216 C 
ATOM      2  O   UNL     1       2.988  -2.089  -5.329  0.00  0.00    -0.285 OA
ATOM      3  C   UNL     1       0.666  -1.842  -5.784  0.00  0.00    +0.161 C 
ENDROOT
BRANCH   1   7
ATOM      4  C   UNL     1       0.707  -0.490  -1.238  0.00  0.00    +0.079 A 
ATOM      5  N   UNL     1       1.986  -0.748  -1.396  0.00  0.00    -0.252 NA
ATOM      6  C   UNL     1       2.467  -1.169  -2.539  0.00  0.00    +0.130 A 
ATOM      7  C   UNL     1       1.548  -1.326  -3.572  0.00  0.00    +0.080 A 
ATOM      8  S   UNL     1       0.042  -0.838  -2.744  0.00  0.00    -0.069 S 
BRANCH   4  10
ATOM      9  C   UNL     1      -0.019   1.526   0.010  0.00  0.00    +0.011 C 
ATOM     10  C   UNL     1       0.002  -0.004   0.002  0.00  0.00    +0.059 C 
ENDBRANCH   4  10
ENDBRANCH   1   7
BRANCH   3  11
ATOM     11  C   UNL     1       0.875  -2.288  -7.162  0.00  0.00    +0.258 C 
ATOM     12  O   UNL     1       1.992  -2.586  -7.543  0.00  0.00    -0.269 OA
ATOM     13  N   UNL     1      -0.171  -2.369  -8.009  0.00  0.00    -0.308 N 
ATOM     14  H   UNL     1      -1.061  -2.132  -7.705  0.00  0.00    +0.149 HD
BRANCH  13  15
ATOM     15  C   UNL     1       0.038  -2.816  -9.389  0.00  0.00    +0.073 C 
ATOM     16  C   UNL     1      -0.060  -4.354  -9.467  0.00  0.00    +0.022 C 
ATOM     17  C   UNL     1      -1.526  -4.621  -9.888  0.00  0.00    +0.002 C 
ATOM     18  C   UNL     1      -1.806  -3.477 -10.895  0.00  0.00    +0.002 C 
ATOM     19  C   UNL     1      -1.073  -2.259 -10.297  0.00  0.00    +0.022 C 
ENDBRANCH  13  15
ENDBRANCH   3  11
BRANCH   3  20
ATOM     20  C   UNL     1      -0.647  -1.492  -5.335  0.00  0.00    +0.108 C 
ATOM     21  N   UNL     1      -1.690  -1.213  -4.979  0.00  0.00    -0.191 NA
ENDBRANCH   3  20
TORSDOF 5
