REMARK  Name = ZINC64429386
REMARK  6 active torsions:
REMARK  status: ('A' for Active; 'I' for Inactive)
REMARK    1  A    between atoms: C_1  and  C_2
REMARK    2  A    between atoms: C_3  and  C_15
REMARK    3  A    between atoms: C_5  and  C_7
REMARK    4  A    between atoms: C_7  and  C_8
REMARK    5  A    between atoms: N_17  and  N_18
REMARK    6  A    between atoms: N_21  and  C_22
REMARK                            x       y       z     vdW  Elec       q    Type
REMARK                         _______ _______ _______ _____ _____    ______ ____
ROOT
ATOM      1  C   UNL     1      -0.018   1.503   0.010  0.00  0.00    +0.067 C 
ATOM      2  C   UNL     1       0.002  -0.004   0.002  0.00  0.00    +0.058 A 
ATOM      3  C   UNL     1       0.006  -0.722  -1.174  0.00  0.00    +0.098 A 
ATOM      4  S   UNL     1       0.032  -2.390  -0.537  0.00  0.00    -0.067 S 
ATOM      5  C   UNL     1       0.035  -2.012   1.103  0.00  0.00    +0.084 A 
ATOM      6  N   UNL     1       0.022  -0.699   1.113  0.00  0.00    -0.248 NA
ENDROOT
BRANCH   3   7
ATOM      7  C   UNL     1      -0.007  -0.248  -2.562  0.00  0.00    +0.269 C 
ATOM      8  O   UNL     1      -0.025   0.946  -2.797  0.00  0.00    -0.268 OA
ATOM      9  N   UNL     1      -0.000  -1.134  -3.577  0.00  0.00    -0.229 N 
ATOM     10  H   UNL     1       0.013  -2.086  -3.389  0.00  0.00    +0.173 HD
BRANCH   9  11
ATOM     11  N   UNL     1      -0.013  -0.681  -4.902  0.00  0.00    -0.218 N 
ATOM     12  C   UNL     1      -0.006  -1.568  -5.918  0.00  0.00    +0.316 C 
ATOM     13  O   UNL     1      -0.017  -1.175  -7.068  0.00  0.00    -0.251 OA
ATOM     14  N   UNL     1       0.013  -2.890  -5.657  0.00  0.00    -0.295 N 
ATOM     15  H   UNL     1      -0.027   0.270  -5.090  0.00  0.00    +0.174 HD
ATOM     16  H   UNL     1       0.022  -3.204  -4.739  0.00  0.00    +0.151 HD
BRANCH  14  17
ATOM     17  C   UNL     1       0.021  -3.854  -6.761  0.00  0.00    +0.075 C 
ATOM     18  C   UNL     1      -0.898  -5.071  -6.642  0.00  0.00    +0.024 C 
ATOM     19  C   UNL     1       0.615  -5.237  -6.487  0.00  0.00    +0.024 C 
ENDBRANCH  14  17
ENDBRANCH   9  11
ENDBRANCH   3   7
BRANCH   5  20
ATOM     20  C   UNL     1       0.053  -2.955   2.278  0.00  0.00    +0.098 C 
BRANCH  20  21
ATOM     21  C   UNL     1      -1.361  -3.289   2.677  0.00  0.00    -0.041 A 
ATOM     22  C   UNL     1      -2.021  -2.504   3.604  0.00  0.00    +0.007 A 
ATOM     23  C   UNL     1      -3.318  -2.809   3.970  0.00  0.00    +0.038 A 
ATOM     24  C   UNL     1      -3.957  -3.901   3.408  0.00  0.00    +0.123 A 
ATOM     25  C   UNL     1      -3.295  -4.686   2.479  0.00  0.00    +0.038 A 
ATOM     26  C   UNL     1      -2.000  -4.376   2.110  0.00  0.00    +0.007 A 
ATOM     27  F   UNL     1      -5.225  -4.200   3.765  0.00  0.00    -0.205 F 
ENDBRANCH  20  21
ENDBRANCH   5  20
TORSDOF 5
