REMARK  Name = ZINC60386198
REMARK  6 active torsions:
REMARK  status: ('A' for Active; 'I' for Inactive)
REMARK    1  A    between atoms: C_1  and  C_2
REMARK    2  A    between atoms: C_2  and  C_25
REMARK    3  A    between atoms: N_5  and  C_9
REMARK    4  A    between atoms: C_9  and  C_10
REMARK    5  A    between atoms: N_12  and  C_13
REMARK    6  A    between atoms: C_14  and  C_23
REMARK                            x       y       z     vdW  Elec       q    Type
REMARK                         _______ _______ _______ _____ _____    ______ ____
ROOT
ATOM      1  C   UNL     1      -0.019   1.526   0.010  0.00  0.00    +0.047 C 
ATOM      2  C   UNL     1       0.002  -0.004   0.002  0.00  0.00    +0.135 C 
ATOM      3  C   UNL     1      -1.403  -0.557   0.139  0.00  0.00    +0.251 C 
ATOM      4  O   UNL     1      -2.332  -0.392  -0.621  0.00  0.00    -0.272 OA
ATOM      5  N   UNL     1      -1.403  -1.272   1.282  0.00  0.00    -0.215 N 
ATOM      6  C   UNL     1      -0.206  -1.247   1.879  0.00  0.00    +0.310 C 
ATOM      7  O   UNL     1       0.040  -1.819   2.924  0.00  0.00    -0.252 OA
ATOM      8  N   UNL     1       0.695  -0.520   1.195  0.00  0.00    -0.281 N 
ATOM      9  H   UNL     1       1.621  -0.365   1.440  0.00  0.00    +0.152 HD
ENDROOT
BRANCH   2  10
ATOM     10  C   UNL     1       0.657  -0.517  -1.255  0.00  0.00    -0.015 A 
ATOM     11  C   UNL     1      -0.124  -0.771  -2.381  0.00  0.00    +0.007 A 
ATOM     12  C   UNL     1       0.436  -1.235  -3.531  0.00  0.00    +0.009 A 
ATOM     13  C   UNL     1       1.822  -1.462  -3.588  0.00  0.00    -0.018 A 
ATOM     14  C   UNL     1       2.436  -1.940  -4.758  0.00  0.00    +0.008 A 
ATOM     15  C   UNL     1       3.781  -2.148  -4.776  0.00  0.00    +0.001 A 
ATOM     16  C   UNL     1       4.561  -1.894  -3.650  0.00  0.00    +0.001 A 
ATOM     17  C   UNL     1       4.001  -1.431  -2.499  0.00  0.00    +0.008 A 
ATOM     18  C   UNL     1       2.616  -1.204  -2.443  0.00  0.00    -0.018 A 
ATOM     19  C   UNL     1       2.002  -0.720  -1.274  0.00  0.00    +0.014 A 
ENDBRANCH   2  10
BRANCH   5  20
ATOM     20  C   UNL     1      -2.569  -1.986   1.805  0.00  0.00    +0.214 C 
BRANCH  20  21
ATOM     21  C   UNL     1      -2.585  -3.391   1.260  0.00  0.00    +0.236 C 
ATOM     22  O   UNL     1      -1.707  -3.759   0.508  0.00  0.00    -0.274 OA
ATOM     23  N   UNL     1      -3.573  -4.239   1.608  0.00  0.00    -0.278 N 
ATOM     24  H   UNL     1      -4.275  -3.944   2.209  0.00  0.00    +0.155 HD
BRANCH  23  25
ATOM     25  C   UNL     1      -3.587  -5.532   1.105  0.00  0.00    +0.090 A 
ATOM     26  C   UNL     1      -4.516  -6.529   1.346  0.00  0.00    +0.084 A 
ATOM     27  C   UNL     1      -4.306  -7.813   0.694  0.00  0.00    -0.018 A 
ATOM     28  C   UNL     1      -3.197  -7.861  -0.075  0.00  0.00    -0.004 A 
ATOM     29  S   UNL     1      -2.485  -6.246   0.060  0.00  0.00    -0.077 S 
ATOM     30  C   UNL     1      -2.680  -9.025  -0.862  0.00  0.00    +0.043 C 
ATOM     31  C   UNL     1      -3.826  -9.622  -1.689  0.00  0.00    +0.005 C 
ATOM     32  C   UNL     1      -4.529 -10.685  -0.851  0.00  0.00    +0.001 C 
ATOM     33  C   UNL     1      -4.499 -10.298   0.626  0.00  0.00    +0.005 C 
ATOM     34  C   UNL     1      -5.255  -8.992   0.852  0.00  0.00    +0.037 C 
BRANCH  26  35
ATOM     35  C   UNL     1      -5.641  -6.305   2.203  0.00  0.00    +0.102 C 
ATOM     36  N   UNL     1      -6.534  -6.128   2.883  0.00  0.00    -0.191 NA
ENDBRANCH  26  35
ENDBRANCH  23  25
ENDBRANCH  20  21
ENDBRANCH   5  20
TORSDOF 5
