REMARK  Name = ZINC61845000
REMARK  3 active torsions:
REMARK  status: ('A' for Active; 'I' for Inactive)
REMARK    1  A    between atoms: C_2  and  S_8
REMARK    2  A    between atoms: S_8  and  N_11
REMARK    3  A    between atoms: N_11  and  C_12
REMARK                            x       y       z     vdW  Elec       q    Type
REMARK                         _______ _______ _______ _____ _____    ______ ____
ROOT
ATOM      1  S   UNL     1       1.208   3.800   0.010  0.00  0.00    +0.096 S 
ATOM      2  O   UNL     1       2.099   4.200  -1.022  0.00  0.00    -0.148 OA
ATOM      3  O   UNL     1      -0.148   4.224   0.052  0.00  0.00    -0.148 OA
ENDROOT
BRANCH   1   5
ATOM      4  C   UNL     1      -0.016   1.352   0.009  0.00  0.00    +0.058 A 
ATOM      5  C   UNL     1       1.185   2.038   0.002  0.00  0.00    +0.137 A 
ATOM      6  C   UNL     1       2.344   1.335  -0.013  0.00  0.00    +0.106 A 
ATOM      7  S   UNL     1       1.753  -0.350  -0.017  0.00  0.00    -0.063 S 
ATOM      8  C   UNL     1       0.002  -0.004   0.002  0.00  0.00    +0.081 A 
ATOM      9 CL   UNL     1      -1.332  -1.115   0.010  0.00  0.00    -0.076 Cl
ATOM     10 CL   UNL     1       3.978   1.920  -0.026  0.00  0.00    -0.074 Cl
ENDBRANCH   1   5
BRANCH   1  11
ATOM     11  N   UNL     1       1.896   4.274   1.440  0.00  0.00    -0.058 NA
BRANCH  11  12
ATOM     12  C   UNL     1       2.046   5.622   1.724  0.00  0.00    +0.256 A 
ATOM     13  N   UNL     1       2.597   6.157   2.852  0.00  0.00    -0.313 N 
ATOM     14  C   UNL     1       2.531   7.513   2.689  0.00  0.00    +0.223 A 
ATOM     15  N   UNL     1       1.974   7.738   1.533  0.00  0.00    -0.136 NA
ATOM     16  N   UNL     1       1.691   6.625   0.956  0.00  0.00    -0.110 NA
ATOM     17  H   UNL     1       2.960   5.675   3.612  0.00  0.00    +0.170 HD
ENDBRANCH  11  12
ENDBRANCH   1  11
TORSDOF 3
