REMARK  Name = ZINC39605191
REMARK  12 active torsions:
REMARK  status: ('A' for Active; 'I' for Inactive)
REMARK    1  A    between atoms: C_1  and  C_2
REMARK    2  A    between atoms: C_2  and  C_3
REMARK    3  A    between atoms: C_2  and  O_4
REMARK    4  A    between atoms: O_4  and  C_5
REMARK    5  A    between atoms: C_5  and  C_6
REMARK    6  A    between atoms: C_6  and  C_7
REMARK    7  A    between atoms: C_7  and  N_8
REMARK    8  A    between atoms: C_9  and  C_11
REMARK    9  A    between atoms: C_22  and  C_24
REMARK   10  A    between atoms: C_27  and  O_34
REMARK   11  A    between atoms: C_28  and  C_30
REMARK   12  A    between atoms: O_34  and  C_35
REMARK                            x       y       z     vdW  Elec       q    Type
REMARK                         _______ _______ _______ _____ _____    ______ ____
ROOT
ATOM      1  C   UNL     1      -7.037  -5.505  -1.521  0.00  0.00    +0.100 C 
ATOM      2  C   UNL     1      -7.639  -4.330  -2.322  0.00  0.00    +0.121 C 
ATOM      3  N   UNL     1      -7.751  -4.841  -3.709  0.00  0.00    -0.296 N 
ATOM      4  C   UNL     1      -8.189  -6.248  -3.549  0.00  0.00    +0.115 C 
ATOM      5  C   UNL     1      -7.402  -6.762  -2.327  0.00  0.00    -0.004 C 
ATOM      6  C   UNL     1      -6.137  -7.485  -2.781  0.00  0.00    -0.010 C 
ATOM      7  C   UNL     1      -6.527  -8.761  -3.533  0.00  0.00    -0.082 C 
ATOM      8  N   UNL     1      -7.319  -9.627  -2.651  0.00  0.00    +0.379 N 
ATOM      9  C   UNL     1      -8.577  -8.961  -2.294  0.00  0.00    -0.082 C 
ATOM     10  C   UNL     1      -8.275  -7.692  -1.490  0.00  0.00    -0.010 C 
ATOM     11  C   UNL     1      -7.509  -4.176  -4.856  0.00  0.00    +0.247 C 
ATOM     12  O   UNL     1      -7.032  -3.058  -4.822  0.00  0.00    -0.270 OA
ATOM     13  H   UNL     1      -7.523 -10.493  -3.127  0.00  0.00    -0.086 HD
ATOM     14  H   UNL     1      -6.794  -9.823  -1.812  0.00  0.00    -0.086 HD
ENDROOT
BRANCH  11  15
ATOM     15  C   UNL     1      -7.822  -4.805  -6.154  0.00  0.00    +0.038 A 
ATOM     16  C   UNL     1      -8.742  -5.855  -6.220  0.00  0.00    +0.016 A 
ATOM     17  C   UNL     1      -9.032  -6.439  -7.432  0.00  0.00    +0.047 A 
ATOM     18  C   UNL     1      -8.411  -5.986  -8.590  0.00  0.00    +0.132 A 
ATOM     19  C   UNL     1      -7.495  -4.942  -8.529  0.00  0.00    +0.097 A 
ATOM     20  C   UNL     1      -7.204  -4.349  -7.321  0.00  0.00    +0.029 A 
BRANCH  19  21
ATOM     21  C   UNL     1      -6.824  -4.456  -9.788  0.00  0.00    +0.421 C 
ATOM     22  F   UNL     1      -5.952  -3.407  -9.476  0.00  0.00    -0.166 F 
ATOM     23  F   UNL     1      -6.103  -5.505 -10.368  0.00  0.00    -0.166 F 
ATOM     24  F   UNL     1      -7.794  -4.003 -10.688  0.00  0.00    -0.166 F 
ENDBRANCH  19  21
BRANCH  18  25
ATOM     25  O   UNL     1      -8.699  -6.565  -9.784  0.00  0.00    -0.495 OA
ATOM     26  C   UNL     1      -9.649  -7.632  -9.774  0.00  0.00    +0.277 C 
ENDBRANCH  18  25
ENDBRANCH  11  15
BRANCH   1  28
ATOM     27  N   UNL     1      -4.869  -5.956  -0.418  0.00  0.00    -0.315 N 
ATOM     28  C   UNL     1      -5.540  -5.361  -1.424  0.00  0.00    +0.218 C 
ATOM     29  O   UNL     1      -4.938  -4.709  -2.251  0.00  0.00    -0.275 OA
ATOM     30  H   UNL     1      -5.350  -6.477   0.244  0.00  0.00    +0.149 HD
BRANCH  27  31
ATOM     31  C   UNL     1      -3.414  -5.816  -0.323  0.00  0.00    +0.106 C 
BRANCH  31  32
ATOM     32  C   UNL     1      -2.905  -6.582   0.899  0.00  0.00    +0.047 C 
BRANCH  32  33
ATOM     33  C   UNL     1      -1.386  -6.436   0.998  0.00  0.00    +0.161 C 
BRANCH  33  34
ATOM     34  O   UNL     1      -0.911  -7.152   2.140  0.00  0.00    -0.377 OA
BRANCH  34  36
ATOM     35  C   UNL     1       0.829  -7.176   3.816  0.00  0.00    +0.037 C 
ATOM     36  C   UNL     1       0.504  -7.079   2.325  0.00  0.00    +0.112 C 
ATOM     37  C   UNL     1       1.176  -8.235   1.580  0.00  0.00    +0.037 C 
ENDBRANCH  34  36
ENDBRANCH  33  34
ENDBRANCH  32  33
ENDBRANCH  31  32
ENDBRANCH  27  31
ENDBRANCH   1  28
TORSDOF 9
