REMARK  Name = ZINC20465628
REMARK  8 active torsions:
REMARK  status: ('A' for Active; 'I' for Inactive)
REMARK    1  A    between atoms: N_10  and  C_13
REMARK    2  A    between atoms: C_15  and  C_25
REMARK    3  A    between atoms: C_18  and  C_23
REMARK    4  A    between atoms: C_20  and  O_22
REMARK    5  A    between atoms: C_23  and  O_24
REMARK    6  A    between atoms: C_25  and  N_26
REMARK    7  A    between atoms: N_26  and  S_27
REMARK    8  A    between atoms: S_27  and  C_30
REMARK                            x       y       z     vdW  Elec       q    Type
REMARK                         _______ _______ _______ _____ _____    ______ ____
ROOT
ATOM      1  C   UNL     1      -0.007   1.145  -0.083  0.00  0.00    +0.118 C 
ATOM      2  C   UNL     1      -0.755   1.626   1.180  0.00  0.00    +0.154 C 
ATOM      3  O   UNL     1      -1.538   2.757   0.735  0.00  0.00    -0.366 OA
ATOM      4  C   UNL     1      -2.050   2.382  -0.562  0.00  0.00    +0.174 C 
ATOM      5  C   UNL     1      -0.877   1.654  -1.254  0.00  0.00    +0.165 C 
ENDROOT
BRANCH   1  15
ATOM      6  C   UNL     1       6.113   5.758  -1.468  0.00  0.00    +0.005 A 
ATOM      7  C   UNL     1       7.203   4.898  -1.481  0.00  0.00    +0.018 A 
ATOM      8  C   UNL     1       6.989   3.535  -1.437  0.00  0.00    +0.084 A 
ATOM      9  N   UNL     1       5.766   3.043  -1.384  0.00  0.00    -0.350 N 
ATOM     10  C   UNL     1       4.701   3.830  -1.370  0.00  0.00    +0.099 A 
ATOM     11  C   UNL     1       4.843   5.214  -1.417  0.00  0.00    +0.042 A 
ATOM     12  N   UNL     1       3.431   3.269  -1.313  0.00  0.00    -0.314 N 
ATOM     13  C   UNL     1       3.504   1.802  -1.277  0.00  0.00    +0.122 C 
ATOM     14  C   UNL     1       2.088   1.222  -1.295  0.00  0.00    +0.104 C 
ATOM     15  N   UNL     1       1.335   1.738  -0.143  0.00  0.00    -0.292 NA
ATOM     16  C   UNL     1       1.262   3.205  -0.179  0.00  0.00    +0.104 C 
ATOM     17  C   UNL     1       2.678   3.785  -0.161  0.00  0.00    +0.122 C 
ATOM     18  H   UNL     1       5.612   1.955  -1.350  0.00  0.00    +0.166 HD
ENDBRANCH   1  15
BRANCH   5  19
ATOM     19  O   UNL     1      -0.135   2.563  -2.070  0.00  0.00    -0.388 OA
ATOM     20  H   UNL     1      -0.607   3.021  -2.952  0.00  0.00    +0.210 HD
ENDBRANCH   5  19
BRANCH   4  21
ATOM     21  C   UNL     1      -2.449   3.626  -1.358  0.00  0.00    +0.190 C 
BRANCH  21  22
ATOM     22  O   UNL     1      -3.608   4.219  -0.767  0.00  0.00    -0.392 OA
ATOM     23  H   UNL     1      -4.044   5.129  -1.204  0.00  0.00    +0.210 HD
ENDBRANCH  21  22
ENDBRANCH   4  21
BRANCH   2  24
ATOM     24  C   UNL     1       0.242   2.055   2.259  0.00  0.00    +0.139 C 
BRANCH  24  25
ATOM     25  N   UNL     1      -0.479   2.356   3.498  0.00  0.00    -0.187 NA
ATOM     26  H   UNL     1      -1.536   2.658   3.460  0.00  0.00    +0.148 HD
BRANCH  25  27
ATOM     27  S   UNL     1       0.348   2.484   4.927  0.00  0.00    +0.058 S 
ATOM     28  O   UNL     1      -0.612   2.804   5.925  0.00  0.00    -0.153 OA
ATOM     29  O   UNL     1       1.186   1.339   5.015  0.00  0.00    -0.153 OA
BRANCH  27  30
ATOM     30  C   UNL     1       1.415   3.879   4.788  0.00  0.00    +0.105 A 
ATOM     31  C   UNL     1       2.699   3.721   4.302  0.00  0.00    +0.030 A 
ATOM     32  C   UNL     1       3.535   4.816   4.187  0.00  0.00    +0.022 A 
ATOM     33  C   UNL     1       3.089   6.069   4.570  0.00  0.00    +0.041 A 
ATOM     34  C   UNL     1       1.806   6.225   5.062  0.00  0.00    +0.022 A 
ATOM     35  C   UNL     1       0.969   5.130   5.171  0.00  0.00    +0.030 A 
ATOM     36 CL   UNL     1       4.140   7.444   4.433  0.00  0.00    -0.084 Cl
ENDBRANCH  27  30
ENDBRANCH  25  27
ENDBRANCH  24  25
ENDBRANCH   2  24
TORSDOF 8
