REMARK  Name = ZINC60354980
REMARK  8 active torsions:
REMARK  status: ('A' for Active; 'I' for Inactive)
REMARK    1  A    between atoms: C_1  and  C_2
REMARK    2  A    between atoms: C_5  and  C_7
REMARK    3  A    between atoms: C_7  and  C_9
REMARK    4  A    between atoms: C_7  and  N_29
REMARK    5  A    between atoms: C_9  and  N_10
REMARK    6  A    between atoms: C_11  and  C_13
REMARK    7  A    between atoms: N_18  and  S_20
REMARK    8  A    between atoms: S_20  and  C_23
REMARK                            x       y       z     vdW  Elec       q    Type
REMARK                         _______ _______ _______ _____ _____    ______ ____
ROOT
ATOM      1  N   UNL     1       3.248  -4.589   1.308  0.00  0.00    -0.316 N 
ATOM      2  C   UNL     1       3.862  -5.017   2.429  0.00  0.00    +0.217 C 
ATOM      3  O   UNL     1       3.660  -4.452   3.483  0.00  0.00    -0.275 OA
ATOM      4  H   UNL     1       3.410  -5.041   0.464  0.00  0.00    +0.149 HD
ENDROOT
BRANCH   2   5
ATOM      5  C   UNL     1       4.798  -6.196   2.373  0.00  0.00    +0.091 C 
ATOM      6  C   UNL     1       5.953  -5.886   1.417  0.00  0.00    +0.015 C 
ATOM      7  C   UNL     1       6.887  -7.096   1.335  0.00  0.00    +0.018 C 
ATOM      8  C   UNL     1       7.471  -7.381   2.722  0.00  0.00    +0.109 C 
ATOM      9  N   UNL     1       6.365  -7.537   3.677  0.00  0.00    -0.176 NA
ATOM     10  C   UNL     1       5.358  -6.471   3.772  0.00  0.00    +0.122 C 
BRANCH   9  11
ATOM     11  S   UNL     1       6.257  -8.887   4.629  0.00  0.00    +0.061 S 
ATOM     12  O   UNL     1       4.889  -9.020   4.991  0.00  0.00    -0.153 OA
ATOM     13  O   UNL     1       6.970  -9.916   3.957  0.00  0.00    -0.153 OA
BRANCH  11  14
ATOM     14  C   UNL     1       7.141  -8.550   6.115  0.00  0.00    +0.105 A 
ATOM     15  C   UNL     1       8.489  -8.843   6.199  0.00  0.00    +0.028 A 
ATOM     16  C   UNL     1       9.183  -8.579   7.365  0.00  0.00    +0.002 A 
ATOM     17  C   UNL     1       8.528  -8.020   8.447  0.00  0.00    +0.000 A 
ATOM     18  C   UNL     1       7.180  -7.726   8.363  0.00  0.00    +0.002 A 
ATOM     19  C   UNL     1       6.488  -7.987   7.196  0.00  0.00    +0.028 A 
ENDBRANCH  11  14
ENDBRANCH   9  11
ENDBRANCH   2   5
BRANCH   1  20
ATOM     20  C   UNL     1       2.338  -3.443   1.362  0.00  0.00    +0.096 C 
BRANCH  20  21
ATOM     21  C   UNL     1       1.678  -3.250  -0.005  0.00  0.00    +0.016 C 
BRANCH  21  26
ATOM     22  C   UNL     1      -2.285  -6.370  -0.010  0.00  0.00    +0.086 C 
ATOM     23  C   UNL     1      -0.926  -5.791  -0.311  0.00  0.00    +0.102 A 
ATOM     24  C   UNL     1       0.007  -6.345  -1.105  0.00  0.00    +0.044 A 
ATOM     25  C   UNL     1       1.118  -5.471  -1.103  0.00  0.00    +0.043 A 
ATOM     26  C   UNL     1       0.797  -4.434  -0.309  0.00  0.00    +0.093 A 
ATOM     27  O   UNL     1      -0.445  -4.630   0.164  0.00  0.00    -0.466 OA
ENDBRANCH  21  26
BRANCH  21  28
ATOM     28  N   UNL     1       0.866  -2.026   0.011  0.00  0.00    +0.387 N 
ATOM     29  C   UNL     1       1.732  -0.840   0.232  0.00  0.00    -0.078 C 
ATOM     30  C   UNL     1       0.882   0.329  -0.327  0.00  0.00    -0.020 C 
ATOM     31  C   UNL     1       0.197  -0.301  -1.561  0.00  0.00    -0.020 C 
ATOM     32  C   UNL     1       0.228  -1.820  -1.307  0.00  0.00    -0.078 C 
ATOM     33  H   UNL     1       0.164  -2.084   0.733  0.00  0.00    -0.081 HD
ENDBRANCH  21  28
ENDBRANCH  20  21
ENDBRANCH   1  20
TORSDOF 7
