REMARK  Name = ZINC17078727
REMARK  8 active torsions:
REMARK  status: ('A' for Active; 'I' for Inactive)
REMARK    1  A    between atoms: C_1  and  C_2
REMARK    2  A    between atoms: C_2  and  C_3
REMARK    3  A    between atoms: C_2  and  C_4
REMARK    4  A    between atoms: C_2  and  C_5
REMARK    5  A    between atoms: C_8  and  C_11
REMARK    6  A    between atoms: N_13  and  C_14
REMARK    7  A    between atoms: C_14  and  N_16
REMARK    8  A    between atoms: C_22  and  O_26
REMARK                            x       y       z     vdW  Elec       q    Type
REMARK                         _______ _______ _______ _____ _____    ______ ____
ROOT
ATOM      1  C   UNL     1       4.613  -1.960  -6.062  0.00  0.00    +0.163 C 
ATOM      2  S   UNL     1       3.788  -2.953  -7.186  0.00  0.00    -0.016 S 
ENDROOT
BRANCH   1   3
ATOM      3  N   UNL     1       5.887  -1.620  -6.280  0.00  0.00    -0.169 NA
ATOM      4  C   UNL     1       6.231  -1.025  -7.416  0.00  0.00    +0.163 A 
ATOM      5  N   UNL     1       5.429  -0.589  -8.428  0.00  0.00    -0.335 N 
ATOM      6  C   UNL     1       5.981   0.015  -9.546  0.00  0.00    +0.055 A 
ATOM      7  C   UNL     1       5.303   0.516 -10.671  0.00  0.00    +0.030 A 
ATOM      8  C   UNL     1       5.989   1.092 -11.712  0.00  0.00    +0.047 A 
ATOM      9  C   UNL     1       7.374   1.198 -11.689  0.00  0.00    +0.118 A 
ATOM     10  C   UNL     1       8.069   0.712 -10.591  0.00  0.00    +0.062 A 
ATOM     11  C   UNL     1       7.378   0.136  -9.551  0.00  0.00    +0.042 A 
ATOM     12  S   UNL     1       7.859  -0.587  -8.001  0.00  0.00    -0.052 S 
ATOM     13  H   UNL     1       4.467  -0.702  -8.366  0.00  0.00    +0.168 HD
BRANCH   9  14
ATOM     14  O   UNL     1       8.039   1.770 -12.728  0.00  0.00    -0.507 OA
ATOM     15  H   UNL     1       8.165   2.725 -12.637  0.00  0.00    +0.292 HD
ENDBRANCH   9  14
ENDBRANCH   1   3
BRANCH   1  18
ATOM     16  C   UNL     1       2.692  -1.863  -4.739  0.00  0.00    +0.250 C 
ATOM     17  O   UNL     1       2.107  -2.568  -5.536  0.00  0.00    -0.270 OA
ATOM     18  N   UNL     1       3.977  -1.520  -4.958  0.00  0.00    -0.262 N 
ATOM     19  H   UNL     1       4.445  -0.957  -4.321  0.00  0.00    +0.157 HD
BRANCH  16  23
ATOM     20  C   UNL     1       0.691  -0.478  -1.258  0.00  0.00    -0.042 A 
ATOM     21  C   UNL     1       0.021  -1.280  -2.165  0.00  0.00    +0.005 A 
ATOM     22  C   UNL     1       0.665  -1.734  -3.297  0.00  0.00    +0.013 A 
ATOM     23  C   UNL     1       1.996  -1.380  -3.528  0.00  0.00    +0.037 A 
ATOM     24  C   UNL     1       2.666  -0.570  -2.609  0.00  0.00    +0.013 A 
ATOM     25  C   UNL     1       2.008  -0.120  -1.483  0.00  0.00    +0.005 A 
BRANCH  20  27
ATOM     26  C   UNL     1      -0.046   1.542  -0.023  0.00  0.00    +0.015 C 
ATOM     27  C   UNL     1      -0.020   0.013  -0.023  0.00  0.00    -0.013 C 
ATOM     28  C   UNL     1       0.719  -0.484   1.222  0.00  0.00    +0.015 C 
ATOM     29  C   UNL     1      -1.453  -0.521  -0.013  0.00  0.00    +0.015 C 
ENDBRANCH  20  27
ENDBRANCH  16  23
ENDBRANCH   1  18
TORSDOF 5
