REMARK  Name = ZINC39604169
REMARK  10 active torsions:
REMARK  status: ('A' for Active; 'I' for Inactive)
REMARK    1  A    between atoms: C_1  and  C_2
REMARK    2  A    between atoms: C_2  and  O_3
REMARK    3  A    between atoms: O_3  and  C_4
REMARK    4  A    between atoms: C_4  and  C_6
REMARK    5  A    between atoms: C_6  and  C_7
REMARK    6  A    between atoms: C_7  and  N_8
REMARK    7  A    between atoms: C_9  and  C_11
REMARK    8  A    between atoms: C_22  and  C_24
REMARK    9  A    between atoms: C_29  and  S_30
REMARK   10  A    between atoms: S_30  and  C_31
REMARK                            x       y       z     vdW  Elec       q    Type
REMARK                         _______ _______ _______ _____ _____    ______ ____
ROOT
ATOM      1  C   UNL     1       3.507  -6.483  -5.153  0.00  0.00    +0.100 C 
ATOM      2  C   UNL     1       2.538  -6.071  -6.283  0.00  0.00    +0.121 C 
ATOM      3  N   UNL     1       2.447  -7.267  -7.153  0.00  0.00    -0.296 N 
ATOM      4  C   UNL     1       2.425  -8.409  -6.207  0.00  0.00    +0.115 C 
ATOM      5  C   UNL     1       3.429  -8.018  -5.105  0.00  0.00    -0.004 C 
ATOM      6  C   UNL     1       2.923  -8.480  -3.742  0.00  0.00    -0.010 C 
ATOM      7  C   UNL     1       2.909 -10.010  -3.700  0.00  0.00    -0.082 C 
ATOM      8  N   UNL     1       4.264 -10.520  -3.939  0.00  0.00    +0.379 N 
ATOM      9  C   UNL     1       4.708 -10.151  -5.288  0.00  0.00    -0.082 C 
ATOM     10  C   UNL     1       4.798  -8.626  -5.398  0.00  0.00    -0.010 C 
ATOM     11  C   UNL     1       2.396  -7.308  -8.499  0.00  0.00    +0.249 C 
ATOM     12  O   UNL     1       2.225  -8.368  -9.069  0.00  0.00    -0.270 OA
ATOM     13  H   UNL     1       4.896 -10.125  -3.258  0.00  0.00    -0.086 HD
ATOM     14  H   UNL     1       4.265 -11.525  -3.850  0.00  0.00    -0.086 HD
ENDROOT
BRANCH  11  15
ATOM     15  C   UNL     1       2.548  -6.067  -9.280  0.00  0.00    +0.069 A 
ATOM     16  C   UNL     1       2.031  -4.857  -8.803  0.00  0.00    +0.017 A 
ATOM     17  C   UNL     1       2.200  -3.721  -9.574  0.00  0.00    +0.020 A 
ATOM     18  C   UNL     1       2.869  -3.810 -10.783  0.00  0.00    +0.112 A 
ATOM     19  N   UNL     1       3.348  -4.959 -11.216  0.00  0.00    -0.248 NA
ATOM     20  C   UNL     1       3.219  -6.077 -10.515  0.00  0.00    +0.114 A 
BRANCH  20  21
ATOM     21  S   UNL     1       3.886  -7.584 -11.139  0.00  0.00    -0.069 S 
BRANCH  21  22
ATOM     22  C   UNL     1       4.474  -7.157 -12.744  0.00  0.00    +0.014 A 
ATOM     23  C   UNL     1       5.806  -6.804 -12.927  0.00  0.00    +0.015 A 
ATOM     24  C   UNL     1       6.263  -6.471 -14.187  0.00  0.00    +0.001 A 
ATOM     25  C   UNL     1       5.398  -6.489 -15.265  0.00  0.00    +0.000 A 
ATOM     26  C   UNL     1       4.072  -6.839 -15.087  0.00  0.00    +0.001 A 
ATOM     27  C   UNL     1       3.609  -7.179 -13.831  0.00  0.00    +0.015 A 
ENDBRANCH  21  22
ENDBRANCH  20  21
ENDBRANCH  11  15
BRANCH   1  29
ATOM     28  N   UNL     1       3.970  -5.616  -2.883  0.00  0.00    -0.314 N 
ATOM     29  C   UNL     1       3.062  -5.894  -3.839  0.00  0.00    +0.218 C 
ATOM     30  O   UNL     1       1.886  -5.671  -3.642  0.00  0.00    -0.275 OA
ATOM     31  H   UNL     1       4.910  -5.794  -3.040  0.00  0.00    +0.149 HD
BRANCH  28  32
ATOM     32  C   UNL     1       3.536  -5.043  -1.605  0.00  0.00    +0.115 C 
BRANCH  32  33
ATOM     33  C   UNL     1       4.754  -4.825  -0.705  0.00  0.00    +0.139 C 
BRANCH  33  34
ATOM     34  C   UNL     1       4.308  -4.237   0.609  0.00  0.00    +0.309 C 
ATOM     35  O   UNL     1       3.137  -4.014   0.805  0.00  0.00    -0.251 OA
BRANCH  34  36
ATOM     36  O   UNL     1       5.213  -3.959   1.561  0.00  0.00    -0.465 OA
BRANCH  36  38
ATOM     37  C   UNL     1       5.888  -3.156   3.738  0.00  0.00    +0.048 C 
ATOM     38  C   UNL     1       4.720  -3.403   2.781  0.00  0.00    +0.229 C 
ENDBRANCH  36  38
ENDBRANCH  34  36
ENDBRANCH  33  34
ENDBRANCH  32  33
ENDBRANCH  28  32
ENDBRANCH   1  29
TORSDOF 9
