REMARK  Name = ZINC28721406
REMARK  7 active torsions:
REMARK  status: ('A' for Active; 'I' for Inactive)
REMARK    1  A    between atoms: C_1  and  C_2
REMARK    2  A    between atoms: C_3  and  C_14
REMARK    3  A    between atoms: C_4  and  C_13
REMARK    4  A    between atoms: N_5  and  C_7
REMARK    5  A    between atoms: N_21  and  C_22
REMARK    6  A    between atoms: C_22  and  C_23
REMARK    7  A    between atoms: N_25  and  C_26
REMARK                            x       y       z     vdW  Elec       q    Type
REMARK                         _______ _______ _______ _____ _____    ______ ____
ROOT
ATOM      1  C   UNL     1       0.863   1.876  -0.172  0.00  0.00    +0.054 C 
ATOM      2  C   UNL     1      -0.585   1.509  -0.009  0.00  0.00    +0.204 C 
ATOM      3  O   UNL     1      -0.910   0.349  -0.146  0.00  0.00    -0.277 OA
ATOM      4  N   UNL     1      -1.532   2.410   0.276  0.00  0.00    -0.318 N 
ATOM      5  C   UNL     1      -1.241   3.823   0.502  0.00  0.00    +0.085 C 
ATOM      6  C   UNL     1       0.132   4.172  -0.075  0.00  0.00    -0.058 C 
ATOM      7  N   UNL     1       1.116   3.196   0.421  0.00  0.00    +0.397 N 
ATOM      8  H   UNL     1      -2.568   2.045   0.337  0.00  0.00    +0.149 HD
ATOM      9  H   UNL     1       1.008   3.114   1.512  0.00  0.00    -0.079 HD
ENDROOT
BRANCH   1  12
ATOM     10  C   UNL     1       1.278   1.589   2.957  0.00  0.00    +0.068 C 
ATOM     11  C   UNL     1       1.904   0.718   1.899  0.00  0.00    +0.063 A 
ATOM     12  C   UNL     1       1.720   0.846   0.517  0.00  0.00    -0.009 A 
ATOM     13  C   UNL     1       2.444  -0.123  -0.090  0.00  0.00    +0.044 A 
ATOM     14  N   UNL     1       3.071  -0.834   0.874  0.00  0.00    -0.237 N 
ATOM     15  N   UNL     1       2.713  -0.288   2.113  0.00  0.00    -0.171 NA
ATOM     16  C   UNL     1       2.536  -0.364  -1.575  0.00  0.00    +0.066 C 
BRANCH  14  17
ATOM     17  C   UNL     1       3.923  -1.928   0.669  0.00  0.00    +0.066 A 
ATOM     18  C   UNL     1       3.889  -3.009   1.540  0.00  0.00    +0.028 A 
ATOM     19  C   UNL     1       4.727  -4.087   1.334  0.00  0.00    +0.002 A 
ATOM     20  C   UNL     1       5.607  -4.087   0.267  0.00  0.00    +0.000 A 
ATOM     21  C   UNL     1       5.647  -3.010  -0.599  0.00  0.00    +0.002 A 
ATOM     22  C   UNL     1       4.808  -1.930  -0.401  0.00  0.00    +0.028 A 
ENDBRANCH  14  17
ENDBRANCH   1  12
BRANCH   7  23
ATOM     23  C   UNL     1       2.487   3.643   0.144  0.00  0.00    +0.020 C 
BRANCH  23  24
ATOM     24  C   UNL     1       2.655   3.862  -1.338  0.00  0.00    +0.201 C 
ATOM     25  O   UNL     1       1.754   3.578  -2.099  0.00  0.00    -0.278 OA
ATOM     26  N   UNL     1       3.805   4.375  -1.818  0.00  0.00    -0.285 N 
ATOM     27  H   UNL     1       4.645   4.574  -1.136  0.00  0.00    +0.155 HD
BRANCH  26  28
ATOM     28  C   UNL     1       3.931   4.654  -3.186  0.00  0.00    +0.069 A 
ATOM     29  C   UNL     1       3.183   3.941  -4.112  0.00  0.00    +0.029 A 
ATOM     30  C   UNL     1       3.304   4.222  -5.459  0.00  0.00    +0.040 A 
ATOM     31  C   UNL     1       4.180   5.205  -5.888  0.00  0.00    +0.126 A 
ATOM     32  C   UNL     1       4.933   5.914  -4.967  0.00  0.00    +0.078 A 
ATOM     33  C   UNL     1       4.810   5.641  -3.617  0.00  0.00    +0.147 A 
ATOM     34  F   UNL     1       5.545   6.332  -2.718  0.00  0.00    -0.203 F 
ATOM     35  F   UNL     1       4.300   5.474  -7.206  0.00  0.00    -0.205 F 
ENDBRANCH  26  28
ENDBRANCH  23  24
ENDBRANCH   7  23
TORSDOF 5
