REMARK  Name = ZINC16522346
REMARK  13 active torsions:
REMARK  status: ('A' for Active; 'I' for Inactive)
REMARK    1  A    between atoms: C_1  and  C_2
REMARK    2  A    between atoms: C_4  and  C_35
REMARK    3  A    between atoms: C_5  and  C_34
REMARK    4  A    between atoms: C_6  and  S_9
REMARK    5  A    between atoms: C_7  and  C_8
REMARK    6  A    between atoms: S_9  and  N_12
REMARK    7  A    between atoms: N_15  and  C_18
REMARK    8  A    between atoms: C_18  and  C_19
REMARK    9  A    between atoms: N_21  and  C_22
REMARK   10  A    between atoms: C_22  and  C_24
REMARK   11  A    between atoms: C_22  and  C_31
REMARK   12  A    between atoms: C_24  and  C_25
REMARK   13  A    between atoms: C_31  and  C_33
REMARK                            x       y       z     vdW  Elec       q    Type
REMARK                         _______ _______ _______ _____ _____    ______ ____
ROOT
ATOM      1  N   UNL     1       1.634  -2.886   3.290  0.00  0.00    -0.174 NA
ATOM      2  C   UNL     1       2.256  -4.183   2.982  0.00  0.00    +0.125 C 
ATOM      3  C   UNL     1       2.921  -4.718   4.255  0.00  0.00    +0.102 C 
ATOM      4  N   UNL     1       3.837  -3.702   4.789  0.00  0.00    -0.291 NA
ATOM      5  C   UNL     1       3.112  -2.488   5.188  0.00  0.00    +0.102 C 
ATOM      6  C   UNL     1       2.456  -1.859   3.948  0.00  0.00    +0.125 C 
ENDROOT
BRANCH   1   7
ATOM      7  S   UNL     1       0.053  -2.588   2.900  0.00  0.00    +0.061 S 
ATOM      8  O   UNL     1      -0.393  -1.557   3.771  0.00  0.00    -0.153 OA
ATOM      9  O   UNL     1      -0.592  -3.852   2.824  0.00  0.00    -0.153 OA
BRANCH   7  15
ATOM     10  C   UNL     1      -0.312  -3.128  -2.286  0.00  0.00    +0.044 C 
ATOM     11  C   UNL     1      -0.137  -2.220  -1.097  0.00  0.00    -0.045 A 
ATOM     12  C   UNL     1       0.010  -0.858  -1.283  0.00  0.00    +0.007 A 
ATOM     13  C   UNL     1       0.171  -0.025  -0.192  0.00  0.00    -0.045 A 
ATOM     14  C   UNL     1       0.184  -0.553   1.086  0.00  0.00    -0.021 A 
ATOM     15  C   UNL     1       0.036  -1.915   1.272  0.00  0.00    +0.112 A 
ATOM     16  C   UNL     1      -0.129  -2.748   0.181  0.00  0.00    -0.021 A 
ATOM     17  C   UNL     1      -0.296  -4.231   0.385  0.00  0.00    +0.046 C 
ATOM     18  C   UNL     1       0.360   0.355   2.275  0.00  0.00    +0.046 C 
ATOM     19  C   UNL     1       0.333   1.460  -0.395  0.00  0.00    +0.044 C 
ENDBRANCH   7  15
ENDBRANCH   1   7
BRANCH   4  20
ATOM     20  C   UNL     1       4.623  -4.237   5.909  0.00  0.00    +0.180 C 
BRANCH  20  21
ATOM     21  C   UNL     1       5.713  -3.262   6.270  0.00  0.00    +0.228 C 
ATOM     22  O   UNL     1       5.825  -2.223   5.655  0.00  0.00    -0.274 OA
ATOM     23  N   UNL     1       6.564  -3.544   7.276  0.00  0.00    -0.304 N 
ATOM     24  H   UNL     1       6.474  -4.375   7.768  0.00  0.00    +0.149 HD
BRANCH  23  25
ATOM     25  C   UNL     1       7.624  -2.595   7.627  0.00  0.00    +0.143 C 
BRANCH  25  26
ATOM     26  C   UNL     1       7.077  -1.558   8.573  0.00  0.00    +0.151 C 
ATOM     27  O   UNL     1       6.069  -1.783   9.199  0.00  0.00    -0.296 OA
ATOM     28  C   UNL     1       7.787  -0.239   8.739  0.00  0.00    +0.088 C 
ENDBRANCH  25  26
BRANCH  25  29
ATOM     29  C   UNL     1       8.775  -3.344   8.301  0.00  0.00    +0.065 C 
BRANCH  29  30
ATOM     30  C   UNL     1       9.402  -4.295   7.315  0.00  0.00    -0.045 A 
ATOM     31  C   UNL     1       8.926  -5.588   7.203  0.00  0.00    +0.004 A 
ATOM     32  C   UNL     1       9.501  -6.461   6.298  0.00  0.00    +0.000 A 
ATOM     33  C   UNL     1      10.552  -6.040   5.504  0.00  0.00    +0.000 A 
ATOM     34  C   UNL     1      11.027  -4.747   5.615  0.00  0.00    +0.000 A 
ATOM     35  C   UNL     1      10.450  -3.873   6.517  0.00  0.00    +0.004 A 
ENDBRANCH  29  30
ENDBRANCH  25  29
ENDBRANCH  23  25
ENDBRANCH  20  21
ENDBRANCH   4  20
TORSDOF 8
