REMARK  Name = ZINC12889162
REMARK  11 active torsions:
REMARK  status: ('A' for Active; 'I' for Inactive)
REMARK    1  A    between atoms: C_1  and  C_2
REMARK    2  A    between atoms: C_2  and  C_3
REMARK    3  A    between atoms: C_3  and  C_5
REMARK    4  A    between atoms: C_3  and  C_6
REMARK    5  A    between atoms: C_6  and  C_8
REMARK    6  A    between atoms: C_6  and  N_21
REMARK    7  A    between atoms: N_10  and  C_11
REMARK    8  A    between atoms: C_11  and  C_12
REMARK    9  A    between atoms: C_22  and  C_24
REMARK   10  A    between atoms: C_26  and  C_39
REMARK   11  A    between atoms: C_26  and  C_40
REMARK                            x       y       z     vdW  Elec       q    Type
REMARK                         _______ _______ _______ _____ _____    ______ ____
ROOT
ATOM      1  C   UNL     1       0.205   1.428   0.615  0.00  0.00    +0.162 C 
ENDROOT
BRANCH   1   2
ATOM      2  C   UNL     1       1.222   1.610   1.712  0.00  0.00    +0.234 C 
ATOM      3  O   UNL     1       2.392   1.771   1.434  0.00  0.00    -0.274 OA
ATOM      4  N   UNL     1       0.833   1.593   3.002  0.00  0.00    -0.310 N 
ATOM      5  H   UNL     1      -0.089   1.391   3.228  0.00  0.00    +0.149 HD
BRANCH   4   6
ATOM      6  C   UNL     1       1.801   1.878   4.064  0.00  0.00    +0.139 C 
BRANCH   6   7
ATOM      7  C   UNL     1       1.116   1.795   5.404  0.00  0.00    -0.027 A 
ATOM      8  C   UNL     1       0.537   2.924   5.954  0.00  0.00    +0.009 A 
ATOM      9  C   UNL     1      -0.096   2.852   7.180  0.00  0.00    +0.050 A 
ATOM     10  C   UNL     1      -0.143   1.649   7.867  0.00  0.00    +0.166 A 
ATOM     11  C   UNL     1       0.445   0.513   7.316  0.00  0.00    +0.167 A 
ATOM     12  C   UNL     1       1.073   0.592   6.083  0.00  0.00    +0.054 A 
ATOM     13  O   UNL     1       0.266  -0.532   8.175  0.00  0.00    -0.453 OA
ATOM     14  C   UNL     1      -0.789  -0.121   9.066  0.00  0.00    +0.466 C 
ATOM     15  O   UNL     1      -0.690   1.316   9.072  0.00  0.00    -0.453 OA
ENDBRANCH   6   7
ENDBRANCH   4   6
ENDBRANCH   1   2
BRANCH   1  16
ATOM     16  N   UNL     1       0.869   1.525  -0.687  0.00  0.00    -0.302 N 
ATOM     17  C   UNL     1       0.240   2.117  -1.722  0.00  0.00    +0.236 C 
ATOM     18  O   UNL     1      -0.835   2.652  -1.552  0.00  0.00    -0.274 OA
ATOM     19  H   UNL     1       1.762   1.163  -0.805  0.00  0.00    +0.150 HD
BRANCH  17  20
ATOM     20  C   UNL     1       0.873   2.113  -3.090  0.00  0.00    +0.179 C 
ATOM     21  C   UNL     1       1.947   3.226  -3.142  0.00  0.00    +0.040 C 
ATOM     22  S   UNL     1       1.211   4.393  -4.368  0.00  0.00    -0.125 S 
ATOM     23  C   UNL     1      -0.500   3.710  -4.325  0.00  0.00    +0.167 C 
ATOM     24  N   UNL     1      -0.180   2.270  -4.094  0.00  0.00    -0.269 N 
ATOM     25  C   UNL     1      -0.983   1.575  -4.929  0.00  0.00    +0.249 C 
ATOM     26  O   UNL     1      -1.300   0.411  -4.788  0.00  0.00    -0.270 OA
ATOM     27  C   UNL     1      -1.415   2.446  -6.040  0.00  0.00    +0.043 A 
ATOM     28  C   UNL     1      -1.126   3.787  -5.688  0.00  0.00    -0.005 A 
ATOM     29  C   UNL     1      -1.407   4.794  -6.562  0.00  0.00    +0.007 A 
ATOM     30  C   UNL     1      -2.011   4.522  -7.779  0.00  0.00    +0.000 A 
ATOM     31  C   UNL     1      -2.329   3.220  -8.122  0.00  0.00    +0.001 A 
ATOM     32  C   UNL     1      -2.039   2.183  -7.259  0.00  0.00    +0.013 A 
ATOM     33  C   UNL     1       2.109   3.896  -1.776  0.00  0.00    +0.025 C 
ATOM     34  C   UNL     1       3.283   2.675  -3.642  0.00  0.00    +0.025 C 
ENDBRANCH  17  20
ENDBRANCH   1  16
BRANCH   1  35
ATOM     35  C   UNL     1      -0.452   0.054   0.752  0.00  0.00    +0.015 C 
ATOM     36  C   UNL     1      -1.585  -0.073  -0.269  0.00  0.00    +0.010 C 
BRANCH  35  38
ATOM     37  C   UNL     1       1.613  -1.042   1.632  0.00  0.00    +0.004 C 
ATOM     38  C   UNL     1       0.589  -1.038   0.496  0.00  0.00    +0.002 C 
ENDBRANCH  35  38
ENDBRANCH   1  35
TORSDOF 7
