REMARK  Name = ZINC64311216
REMARK  10 active torsions:
REMARK  status: ('A' for Active; 'I' for Inactive)
REMARK    1  A    between atoms: C_1  and  C_2
REMARK    2  A    between atoms: C_4  and  C_26
REMARK    3  A    between atoms: N_6  and  C_8
REMARK    4  A    between atoms: C_8  and  C_9
REMARK    5  A    between atoms: C_8  and  C_10
REMARK    6  A    between atoms: C_8  and  C_11
REMARK    7  A    between atoms: C_11  and  N_12
REMARK    8  A    between atoms: C_13  and  C_15
REMARK    9  A    between atoms: C_19  and  S_21
REMARK   10  A    between atoms: S_21  and  N_24
REMARK                            x       y       z     vdW  Elec       q    Type
REMARK                         _______ _______ _______ _____ _____    ______ ____
ROOT
ATOM      1  N   UNL     1       3.477  -2.389   0.896  0.00  0.00    -0.313 N 
ATOM      2  C   UNL     1       4.769  -2.196   0.567  0.00  0.00    +0.244 C 
ATOM      3  O   UNL     1       5.538  -1.720   1.380  0.00  0.00    -0.270 OA
ATOM      4  H   UNL     1       2.863  -2.769   0.247  0.00  0.00    +0.149 HD
ENDROOT
BRANCH   2   5
ATOM      5  C   UNL     1       5.251  -2.560  -0.781  0.00  0.00    +0.039 A 
ATOM      6  C   UNL     1       4.368  -3.101  -1.718  0.00  0.00    +0.016 A 
ATOM      7  C   UNL     1       4.823  -3.440  -2.974  0.00  0.00    +0.041 A 
ATOM      8  C   UNL     1       6.155  -3.244  -3.308  0.00  0.00    +0.150 A 
ATOM      9  C   UNL     1       7.036  -2.708  -2.381  0.00  0.00    +0.141 A 
ATOM     10  C   UNL     1       6.590  -2.361  -1.124  0.00  0.00    +0.044 A 
ATOM     11  F   UNL     1       6.596  -3.579  -4.541  0.00  0.00    -0.203 F 
BRANCH   9  12
ATOM     12  S   UNL     1       8.726  -2.464  -2.813  0.00  0.00    +0.059 S 
ATOM     13  O   UNL     1       8.733  -1.793  -4.066  0.00  0.00    -0.153 OA
ATOM     14  O   UNL     1       9.367  -1.933  -1.662  0.00  0.00    -0.153 OA
BRANCH  12  15
ATOM     15  N   UNL     1       9.386  -3.960  -3.075  0.00  0.00    -0.203 NA
ATOM     16  H   UNL     1      10.113  -4.066  -3.708  0.00  0.00    +0.144 HD
ATOM     17  H   UNL     1       9.045  -4.731  -2.595  0.00  0.00    +0.144 HD
ENDBRANCH  12  15
ENDBRANCH   9  12
ENDBRANCH   2   5
BRANCH   1  18
ATOM     18  C   UNL     1       2.998  -2.028   2.232  0.00  0.00    +0.092 C 
BRANCH  18  19
ATOM     19  C   UNL     1       1.483  -2.227   2.303  0.00  0.00    -0.055 C 
ATOM     20  C   UNL     1       0.972  -1.768   3.670  0.00  0.00    -0.008 C 
ATOM     21  C   UNL     1       1.153  -3.707   2.106  0.00  0.00    -0.008 C 
BRANCH  19  27
ATOM     22  C   UNL     1       0.933   2.275   0.459  0.00  0.00    +0.005 C 
ATOM     23  C   UNL     1       0.575   0.799   0.276  0.00  0.00    -0.031 C 
ATOM     24  C   UNL     1      -0.948   0.636   0.290  0.00  0.00    +0.003 C 
ATOM     25  C   UNL     1      -1.294  -0.852   0.185  0.00  0.00    -0.031 C 
ATOM     26  C   UNL     1      -0.620  -1.609   1.332  0.00  0.00    -0.075 C 
ATOM     27  N   UNL     1       0.836  -1.436   1.248  0.00  0.00    +0.384 N 
ATOM     28  C   UNL     1       1.180  -0.019   1.419  0.00  0.00    -0.075 C 
ATOM     29  C   UNL     1      -0.793  -1.400  -1.153  0.00  0.00    +0.005 C 
ATOM     30  H   UNL     1       1.159  -1.752   0.346  0.00  0.00    -0.081 HD
ENDBRANCH  19  27
ENDBRANCH  18  19
ENDBRANCH   1  18
TORSDOF 6
