REMARK  Name = ZINC28242891
REMARK  6 active torsions:
REMARK  status: ('A' for Active; 'I' for Inactive)
REMARK    1  A    between atoms: C_1  and  C_2
REMARK    2  A    between atoms: C_5  and  S_9
REMARK    3  A    between atoms: S_9  and  N_12
REMARK    4  A    between atoms: N_12  and  C_13
REMARK    5  A    between atoms: C_17  and  C_19
REMARK    6  A    between atoms: N_23  and  C_24
REMARK                            x       y       z     vdW  Elec       q    Type
REMARK                         _______ _______ _______ _____ _____    ______ ____
ROOT
ATOM      1  C   UNL     1       4.293   3.052  -0.675  0.00  0.00    +0.049 A 
ATOM      2  C   UNL     1       3.583   4.151  -0.206  0.00  0.00    +0.024 A 
ATOM      3  C   UNL     1       3.926   5.426  -0.615  0.00  0.00    +0.003 A 
ATOM      4  C   UNL     1       4.968   5.614  -1.500  0.00  0.00    +0.012 A 
ATOM      5  C   UNL     1       5.683   4.517  -1.981  0.00  0.00    +0.022 A 
ATOM      6  C   UNL     1       5.341   3.232  -1.565  0.00  0.00    +0.036 A 
ENDROOT
BRANCH   5   7
ATOM      7  C   UNL     1       6.801   4.717  -2.931  0.00  0.00    +0.182 A 
ATOM      8  N   UNL     1       7.761   3.858  -3.201  0.00  0.00    -0.108 NA
ATOM      9  N   UNL     1       8.568   4.346  -4.073  0.00  0.00    -0.023 NA
ATOM     10  N   UNL     1       8.198   5.533  -4.412  0.00  0.00    -0.043 NA
ATOM     11  N   UNL     1       7.032   5.822  -3.682  0.00  0.00    -0.222 N 
BRANCH  11  12
ATOM     12  C   UNL     1       6.238   7.052  -3.724  0.00  0.00    +0.111 C 
ATOM     13  C   UNL     1       6.694   8.155  -4.681  0.00  0.00    +0.029 C 
ATOM     14  C   UNL     1       6.880   8.327  -3.171  0.00  0.00    +0.029 C 
ENDBRANCH  11  12
ENDBRANCH   5   7
BRANCH   1  15
ATOM     15  N   UNL     1       3.946   1.765  -0.256  0.00  0.00    -0.216 N 
ATOM     16  H   UNL     1       3.861   0.951  -0.990  0.00  0.00    +0.174 HD
BRANCH  15  17
ATOM     17  S   UNL     1       3.661   1.466   1.348  0.00  0.00    +0.073 S 
ATOM     18  O   UNL     1       3.438   0.068   1.468  0.00  0.00    -0.150 OA
ATOM     19  O   UNL     1       2.708   2.429   1.778  0.00  0.00    -0.150 OA
BRANCH  17  24
ATOM     20  C   UNL     1       8.777   2.658   4.318  0.00  0.00    +0.044 C 
ATOM     21  C   UNL     1       7.500   2.360   3.577  0.00  0.00    -0.049 A 
ATOM     22  C   UNL     1       6.369   3.120   3.813  0.00  0.00    +0.005 A 
ATOM     23  C   UNL     1       5.196   2.844   3.137  0.00  0.00    +0.030 A 
ATOM     24  C   UNL     1       5.155   1.814   2.216  0.00  0.00    +0.122 A 
ATOM     25  C   UNL     1       6.287   1.056   1.975  0.00  0.00    +0.045 A 
ATOM     26  C   UNL     1       7.460   1.330   2.656  0.00  0.00    +0.020 A 
ATOM     27 BR   UNL     1       6.231  -0.353   0.716  0.00  0.00    -0.048 Br
ENDBRANCH  17  24
ENDBRANCH  15  17
ENDBRANCH   1  15
TORSDOF 5
