REMARK  Name = ZINC15403884
REMARK  3 active torsions:
REMARK  status: ('A' for Active; 'I' for Inactive)
REMARK    1  A    between atoms: C_1  and  C_2
REMARK    2  A    between atoms: C_7  and  N_8
REMARK    3  A    between atoms: C_12  and  C_15
REMARK                            x       y       z     vdW  Elec       q    Type
REMARK                         _______ _______ _______ _____ _____    ______ ____
ROOT
ATOM      1  N   UNL     1       1.651  11.340  -0.355  0.00  0.00    -0.292 N 
ATOM      2  C   UNL     1       1.429   9.984  -0.398  0.00  0.00    +0.180 C 
ATOM      3  N   UNL     1       0.292   9.488   0.029  0.00  0.00    -0.127 NA
ATOM      4  N   UNL     1      -0.007   8.253   0.044  0.00  0.00    -0.151 NA
ATOM      5  C   UNL     1       0.807   7.253   0.017  0.00  0.00    +0.081 C 
ATOM      6  C   UNL     1       2.305   7.442  -0.007  0.00  0.00    +0.135 C 
ATOM      7  S   UNL     1       2.672   8.900  -1.029  0.00  0.00    -0.082 S 
ATOM      8  H   UNL     1       2.523  11.696  -0.589  0.00  0.00    +0.154 HD
ENDROOT
BRANCH   5   9
ATOM      9  C   UNL     1       0.261   5.887   0.015  0.00  0.00    -0.001 A 
ATOM     10  C   UNL     1      -1.130   5.695   0.041  0.00  0.00    +0.015 A 
ATOM     11  C   UNL     1      -1.631   4.422   0.040  0.00  0.00    -0.025 A 
ATOM     12  C   UNL     1      -0.747   3.341   0.013  0.00  0.00    +0.043 A 
ATOM     13  C   UNL     1       0.620   3.515  -0.016  0.00  0.00    -0.016 A 
ATOM     14  C   UNL     1       1.134   4.790  -0.015  0.00  0.00    +0.015 A 
ATOM     15  C   UNL     1       1.200   2.122  -0.042  0.00  0.00    +0.133 C 
ATOM     16  C   UNL     1      -0.014   1.208  -0.022  0.00  0.00    +0.224 C 
ATOM     17  O   UNL     1       0.002  -0.005  -0.036  0.00  0.00    -0.275 OA
ATOM     18  N   UNL     1      -1.101   1.983   0.008  0.00  0.00    -0.271 N 
ATOM     19  C   UNL     1      -2.525   1.607   0.053  0.00  0.00    +0.114 C 
ATOM     20  C   UNL     1      -3.301   2.729   0.751  0.00  0.00    +0.024 C 
ATOM     21  C   UNL     1      -3.098   4.081   0.063  0.00  0.00    +0.038 C 
ENDBRANCH   5   9
BRANCH   1  28
ATOM     22  C   UNL     1       2.358  13.874   0.728  0.00  0.00    +0.045 C 
ATOM     23  C   UNL     1       0.922  13.452   0.559  0.00  0.00    -0.029 A 
ATOM     24  C   UNL     1      -0.098  14.305   0.933  0.00  0.00    +0.005 A 
ATOM     25  C   UNL     1      -1.417  13.919   0.778  0.00  0.00    +0.000 A 
ATOM     26  C   UNL     1      -1.719  12.678   0.247  0.00  0.00    +0.002 A 
ATOM     27  C   UNL     1      -0.704  11.823  -0.134  0.00  0.00    +0.023 A 
ATOM     28  C   UNL     1       0.622  12.205   0.026  0.00  0.00    +0.036 A 
ENDBRANCH   1  28
TORSDOF 2
