REMARK  Name = ZINC45067070
REMARK  6 active torsions:
REMARK  status: ('A' for Active; 'I' for Inactive)
REMARK    1  A    between atoms: C_8  and  N_13
REMARK    2  A    between atoms: N_13  and  C_14
REMARK    3  A    between atoms: C_14  and  C_15
REMARK    4  A    between atoms: C_15  and  C_16
REMARK    5  A    between atoms: C_16  and  S_17
REMARK    6  A    between atoms: S_17  and  N_20
REMARK                            x       y       z     vdW  Elec       q    Type
REMARK                         _______ _______ _______ _____ _____    ______ ____
ROOT
ATOM      1  C   UNL     1      -0.017   1.379   0.010  0.00  0.00    +0.017 A 
ATOM      2  C   UNL     1       1.164   2.093   0.002  0.00  0.00    +0.025 A 
ATOM      3  C   UNL     1       2.386   1.423  -0.013  0.00  0.00    +0.039 A 
ATOM      4  C   UNL     1       2.392   0.034  -0.021  0.00  0.00    +0.001 A 
ATOM      5  C   UNL     1       1.213  -0.676  -0.012  0.00  0.00    +0.022 A 
ATOM      6  C   UNL     1       0.002  -0.004   0.002  0.00  0.00    +0.018 A 
ATOM      7 BR   UNL     1      -1.621  -0.975   0.012  0.00  0.00    -0.050 Br
ATOM      8  C   UNL     1       3.844  -0.385  -0.038  0.00  0.00    +0.173 C 
ATOM      9  C   UNL     1       4.605   0.924  -0.038  0.00  0.00    +0.239 C 
ATOM     10  O   UNL     1       5.810   1.057  -0.049  0.00  0.00    -0.273 OA
ATOM     11  N   UNL     1       3.694   1.911  -0.024  0.00  0.00    -0.284 N 
ATOM     12  H   UNL     1       3.919   2.855  -0.022  0.00  0.00    +0.155 HD
ENDROOT
BRANCH   8  13
ATOM     13  N   UNL     1       4.167  -1.170   1.161  0.00  0.00    -0.302 NA
ATOM     14  H   UNL     1       4.338  -0.569   1.952  0.00  0.00    +0.123 HD
BRANCH  13  15
ATOM     15  C   UNL     1       5.312  -2.058   0.916  0.00  0.00    +0.083 C 
BRANCH  15  16
ATOM     16  C   UNL     1       5.617  -2.857   2.184  0.00  0.00    +0.039 C 
BRANCH  16  17
ATOM     17  C   UNL     1       6.810  -3.781   1.929  0.00  0.00    +0.186 C 
BRANCH  17  18
ATOM     18  S   UNL     1       7.172  -4.730   3.433  0.00  0.00    +0.027 S 
ATOM     19  O   UNL     1       7.657  -3.866   4.451  0.00  0.00    -0.158 OA
ATOM     20  O   UNL     1       6.118  -5.645   3.700  0.00  0.00    -0.158 OA
BRANCH  18  21
ATOM     21  N   UNL     1       8.467  -5.682   3.034  0.00  0.00    -0.208 NA
ATOM     22  H   UNL     1       9.107  -5.940   3.715  0.00  0.00    +0.144 HD
ATOM     23  H   UNL     1       8.585  -5.981   2.119  0.00  0.00    +0.144 HD
ENDBRANCH  18  21
ENDBRANCH  17  18
ENDBRANCH  16  17
ENDBRANCH  15  16
ENDBRANCH  13  15
ENDBRANCH   8  13
TORSDOF 6
