REMARK  Name = ZINC39100004
REMARK  8 active torsions:
REMARK  status: ('A' for Active; 'I' for Inactive)
REMARK    1  A    between atoms: C_1  and  C_2
REMARK    2  A    between atoms: C_2  and  C_3
REMARK    3  A    between atoms: C_3  and  C_15
REMARK    4  A    between atoms: C_5  and  C_10
REMARK    5  A    between atoms: C_5  and  O_12
REMARK    6  A    between atoms: C_10  and  C_11
REMARK    7  A    between atoms: O_12  and  C_13
REMARK    8  A    between atoms: C_13  and  C_14
REMARK                            x       y       z     vdW  Elec       q    Type
REMARK                         _______ _______ _______ _____ _____    ______ ____
ROOT
ATOM      1  C   UNL     1      -1.087  -0.401   0.358  0.00  0.00    +0.036 C 
ATOM      2  C   UNL     1      -1.059  -1.907   0.058  0.00  0.00    +0.083 C 
ATOM      3  C   UNL     1      -0.621  -2.646   1.325  0.00  0.00    +0.144 C 
ATOM      4  N   UNL     1      -1.396  -2.196   2.475  0.00  0.00    -0.334 N 
ATOM      5  C   UNL     1      -2.027  -1.068   2.519  0.00  0.00    +0.154 C 
ATOM      6  N   UNL     1      -2.038  -0.191   1.461  0.00  0.00    -0.313 N 
ATOM      7  N   UNL     1      -2.712  -0.736   3.664  0.00  0.00    -0.333 N 
ATOM      8  C   UNL     1      -1.548   0.369  -0.880  0.00  0.00    +0.032 C 
ATOM      9  H   UNL     1      -2.660   0.553   1.442  0.00  0.00    +0.149 HD
ATOM     10  H   UNL     1      -2.715  -1.343   4.420  0.00  0.00    +0.145 HD
ATOM     11  H   UNL     1      -3.191   0.106   3.715  0.00  0.00    +0.145 HD
ATOM     12  H   UNL     1      -1.441  -2.776   3.251  0.00  0.00    +0.165 HD
ENDROOT
BRANCH   1  14
ATOM     13  C   UNL     1       0.274   1.576   1.052  0.00  0.00    +0.006 C 
ATOM     14  C   UNL     1       0.307   0.072   0.776  0.00  0.00    +0.022 C 
ENDBRANCH   1  14
BRANCH   3  15
ATOM     15  C   UNL     1      -0.832  -4.149   1.131  0.00  0.00    +0.054 C 
ATOM     16  C   UNL     1      -2.314  -4.427   0.874  0.00  0.00    +0.008 C 
ENDBRANCH   3  15
BRANCH   3  17
ATOM     17  O   UNL     1       0.765  -2.392   1.562  0.00  0.00    -0.355 OA
BRANCH  17  18
ATOM     18  C   UNL     1       1.260  -2.959   2.777  0.00  0.00    +0.159 C 
ATOM     19  C   UNL     1       2.717  -2.539   2.980  0.00  0.00    +0.034 C 
ENDBRANCH  17  18
ENDBRANCH   3  17
TORSDOF 4
