REMARK  Name = ZINC01475171
REMARK  13 active torsions:
REMARK  status: ('A' for Active; 'I' for Inactive)
REMARK    1  A    between atoms: C_1  and  C_2
REMARK    2  A    between atoms: C_3  and  C_7
REMARK    3  A    between atoms: N_9  and  N_10
REMARK    4  A    between atoms: C_11  and  C_12
REMARK    5  A    between atoms: C_14  and  C_23
REMARK    6  A    between atoms: C_15  and  O_22
REMARK    7  A    between atoms: C_16  and  C_18
REMARK    8  A    between atoms: C_18  and  C_19
REMARK    9  A    between atoms: C_18  and  C_20
REMARK   10  A    between atoms: C_18  and  C_21
REMARK   11  A    between atoms: C_23  and  C_24
REMARK   12  A    between atoms: C_23  and  C_25
REMARK   13  A    between atoms: C_23  and  C_26
REMARK                            x       y       z     vdW  Elec       q    Type
REMARK                         _______ _______ _______ _____ _____    ______ ____
ROOT
ATOM      1  C   UNL     1      -3.635   1.705   0.029  0.00  0.00    -0.005 A 
ATOM      2  C   UNL     1      -3.657   3.102   0.042  0.00  0.00    +0.017 A 
ATOM      3  C   UNL     1      -4.862   3.771   0.046  0.00  0.00    +0.000 A 
ATOM      4  C   UNL     1      -6.054   3.058   0.048  0.00  0.00    +0.124 A 
ATOM      5  C   UNL     1      -6.038   1.669   0.040  0.00  0.00    +0.000 A 
ATOM      6  C   UNL     1      -4.837   0.992   0.030  0.00  0.00    +0.017 A 
ENDROOT
BRANCH   5   7
ATOM      7  C   UNL     1      -7.334   0.901   0.042  0.00  0.00    -0.009 C 
ATOM      8  C   UNL     1      -7.038  -0.600   0.032  0.00  0.00    +0.015 C 
ATOM      9  C   UNL     1      -8.135   1.256   1.297  0.00  0.00    +0.015 C 
ATOM     10  C   UNL     1      -8.146   1.269  -1.202  0.00  0.00    +0.015 C 
ENDBRANCH   5   7
BRANCH   3  11
ATOM     11  C   UNL     1      -4.886   5.278   0.056  0.00  0.00    -0.009 C 
ATOM     12  C   UNL     1      -3.452   5.811   0.052  0.00  0.00    +0.015 C 
ATOM     13  C   UNL     1      -5.622   5.784  -1.186  0.00  0.00    +0.015 C 
ATOM     14  C   UNL     1      -5.610   5.768   1.312  0.00  0.00    +0.015 C 
ENDBRANCH   3  11
BRANCH   1  16
ATOM     15  N   UNL     1      -1.234   1.650   0.017  0.00  0.00    -0.187 NA
ATOM     16  C   UNL     1      -2.349   0.986   0.018  0.00  0.00    +0.138 C 
BRANCH  15  19
ATOM     17  C   UNL     1       1.147   1.655   0.000  0.00  0.00    +0.267 C 
ATOM     18  O   UNL     1       1.130   2.872   0.007  0.00  0.00    -0.268 OA
ATOM     19  N   UNL     1      -0.011   0.966   0.007  0.00  0.00    -0.203 N 
ATOM     20  H   UNL     1       0.002  -0.004   0.002  0.00  0.00    +0.178 HD
BRANCH  17  23
ATOM     21  C   UNL     1       4.002   2.955  -0.020  0.00  0.00    +0.087 C 
ATOM     22  C   UNL     1       3.683   1.482  -0.025  0.00  0.00    +0.114 A 
ATOM     23  C   UNL     1       2.433   0.936  -0.016  0.00  0.00    +0.079 A 
ATOM     24  C   UNL     1       2.637  -0.520  -0.019  0.00  0.00    +0.054 A 
ATOM     25  C   UNL     1       3.965  -0.706  -0.039  0.00  0.00    +0.196 A 
ATOM     26  O   UNL     1       4.577   0.488  -0.038  0.00  0.00    -0.467 OA
ENDBRANCH  17  23
ENDBRANCH  15  19
ENDBRANCH   1  16
BRANCH   4  27
ATOM     27  O   UNL     1      -7.240   3.721   0.057  0.00  0.00    -0.506 OA
ATOM     28  H   UNL     1      -7.579   3.908   0.944  0.00  0.00    +0.292 HD
ENDBRANCH   4  27
TORSDOF 6
