REMARK  Name = ZINC04606590
REMARK  4 active torsions:
REMARK  status: ('A' for Active; 'I' for Inactive)
REMARK    1  A    between atoms: C_1  and  C_2
REMARK    2  A    between atoms: C_6  and  N_9
REMARK    3  A    between atoms: C_7  and  C_8
REMARK    4  A    between atoms: C_22  and  C_24
REMARK                            x       y       z     vdW  Elec       q    Type
REMARK                         _______ _______ _______ _____ _____    ______ ____
ROOT
ATOM      1  N   UNL     1       5.397  -2.759  -1.846  0.00  0.00    -0.269 N 
ATOM      2  C   UNL     1       5.248  -2.220  -0.620  0.00  0.00    +0.306 C 
ATOM      3  O   UNL     1       5.488  -2.885   0.370  0.00  0.00    -0.252 OA
ATOM      4  N   UNL     1       4.833  -0.944  -0.490  0.00  0.00    -0.285 N 
ATOM      5  C   UNL     1       4.775  -0.309   0.834  0.00  0.00    +0.112 C 
ATOM      6  C   UNL     1       5.583   0.993   0.790  0.00  0.00    +0.056 C 
ATOM      7  C   UNL     1       5.095   1.855  -0.365  0.00  0.00    +0.087 C 
ATOM      8  C   UNL     1       5.242   1.136  -1.698  0.00  0.00    +0.056 C 
ATOM      9  C   UNL     1       4.431  -0.165  -1.669  0.00  0.00    +0.112 C 
ATOM     10  N   UNL     1       3.711   2.295  -0.150  0.00  0.00    -0.282 N 
ATOM     11  C   UNL     1       3.488   3.740  -0.180  0.00  0.00    +0.120 C 
ATOM     12  C   UNL     1       4.743   4.502   0.349  0.00  0.00    +0.090 C 
ATOM     13  S   UNL     1       6.047   3.427  -0.406  0.00  0.00    -0.133 S 
ATOM     14  C   UNL     1       2.707   1.420   0.057  0.00  0.00    +0.254 C 
ATOM     15  O   UNL     1       2.897   0.227  -0.094  0.00  0.00    -0.269 OA
ATOM     16  H   UNL     1       5.125  -2.259  -2.631  0.00  0.00    +0.156 HD
ENDROOT
BRANCH   1  22
ATOM     17  C   UNL     1       7.199  -6.296  -4.746  0.00  0.00    +0.044 C 
ATOM     18  C   UNL     1       6.828  -5.779  -3.381  0.00  0.00    -0.046 A 
ATOM     19  C   UNL     1       7.029  -6.569  -2.264  0.00  0.00    +0.004 A 
ATOM     20  C   UNL     1       6.689  -6.098  -1.009  0.00  0.00    +0.002 A 
ATOM     21  C   UNL     1       6.149  -4.835  -0.867  0.00  0.00    +0.023 A 
ATOM     22  C   UNL     1       5.946  -4.038  -1.986  0.00  0.00    +0.038 A 
ATOM     23  C   UNL     1       6.282  -4.517  -3.246  0.00  0.00    -0.026 A 
ATOM     24  C   UNL     1       6.058  -3.658  -4.464  0.00  0.00    +0.046 C 
ENDBRANCH   1  22
BRANCH  14  25
ATOM     25  C   UNL     1       1.384   1.905   0.464  0.00  0.00    +0.074 A 
ATOM     26  C   UNL     1       0.201   1.198   0.609  0.00  0.00    +0.021 A 
ATOM     27  C   UNL     1      -0.907   1.907   1.002  0.00  0.00    +0.008 A 
ATOM     28  C   UNL     1      -0.792   3.240   1.237  0.00  0.00    +0.046 A 
ATOM     29  S   UNL     1       0.879   3.559   0.901  0.00  0.00    -0.092 S 
ENDBRANCH  14  25
TORSDOF 2
