REMARK  Name = ZINC39706820
REMARK  11 active torsions:
REMARK  status: ('A' for Active; 'I' for Inactive)
REMARK    1  A    between atoms: C_1  and  C_2
REMARK    2  A    between atoms: C_2  and  O_3
REMARK    3  A    between atoms: O_3  and  C_4
REMARK    4  A    between atoms: C_4  and  C_6
REMARK    5  A    between atoms: C_7  and  C_37
REMARK    6  A    between atoms: C_14  and  C_15
REMARK    7  A    between atoms: C_25  and  C_27
REMARK    8  A    between atoms: C_29  and  O_35
REMARK    9  A    between atoms: C_32  and  O_33
REMARK   10  A    between atoms: O_33  and  C_34
REMARK   11  A    between atoms: O_35  and  C_36
REMARK                            x       y       z     vdW  Elec       q    Type
REMARK                         _______ _______ _______ _____ _____    ______ ____
ROOT
ATOM      1  C   UNL     1       2.371  -1.874  -2.057  0.00  0.00    +0.085 C 
ATOM      2  C   UNL     1       2.773  -3.178  -2.084  0.00  0.00    +0.053 C 
ATOM      3  N   UNL     1       3.061  -3.773  -3.236  0.00  0.00    -0.228 NA
ATOM      4  C   UNL     1       2.994  -3.200  -4.409  0.00  0.00    +0.178 A 
ATOM      5  N   UNL     1       2.612  -1.893  -4.607  0.00  0.00    -0.275 N 
ATOM      6  C   UNL     1       2.581  -1.413  -5.857  0.00  0.00    +0.268 A 
ATOM      7  O   UNL     1       2.251  -0.265  -6.081  0.00  0.00    -0.266 OA
ATOM      8  C   UNL     1       2.963  -2.326  -6.955  0.00  0.00    +0.080 A 
ATOM      9  C   UNL     1       3.017  -2.090  -8.314  0.00  0.00    +0.026 C 
ATOM     10  S   UNL     1       3.335  -3.817  -6.046  0.00  0.00    -0.046 S 
ATOM     11  C   UNL     1       2.260  -1.137  -3.372  0.00  0.00    +0.165 C 
ATOM     12  C   UNL     1       2.891  -3.950  -0.795  0.00  0.00    +0.066 C 
ENDROOT
BRANCH   9  13
ATOM     13  C   UNL     1       2.882  -0.788  -8.803  0.00  0.00    -0.018 C 
ATOM     14  C   UNL     1       3.014  -0.366 -10.125  0.00  0.00    +0.003 A 
ATOM     15  C   UNL     1       3.306  -1.054 -11.323  0.00  0.00    +0.010 A 
ATOM     16  C   UNL     1       3.373  -0.370 -12.492  0.00  0.00    +0.001 A 
ATOM     17  C   UNL     1       3.160   1.012 -12.548  0.00  0.00    +0.002 A 
ATOM     18  C   UNL     1       2.875   1.737 -11.441  0.00  0.00    +0.026 A 
ATOM     19  C   UNL     1       2.787   1.091 -10.177  0.00  0.00    +0.043 A 
ATOM     20  N   UNL     1       2.530   1.559  -8.977  0.00  0.00    -0.380 N 
ATOM     21  C   UNL     1       2.554   0.458  -8.010  0.00  0.00    +0.149 C 
ATOM     22  H   UNL     1       2.348   2.488  -8.764  0.00  0.00    +0.160 HD
ENDBRANCH   9  13
BRANCH  11  23
ATOM     23  C   UNL     1       3.157   0.072  -3.303  0.00  0.00    +0.025 A 
ATOM     24  C   UNL     1       2.607   1.336  -3.204  0.00  0.00    +0.055 A 
ATOM     25  C   UNL     1       3.432   2.448  -3.140  0.00  0.00    +0.121 A 
ATOM     26  C   UNL     1       4.810   2.292  -3.175  0.00  0.00    +0.049 A 
ATOM     27  C   UNL     1       5.360   1.030  -3.275  0.00  0.00    +0.049 A 
ATOM     28  C   UNL     1       4.534  -0.084  -3.333  0.00  0.00    +0.126 A 
BRANCH  28  29
ATOM     29  O   UNL     1       5.076  -1.328  -3.426  0.00  0.00    -0.495 OA
ATOM     30  C   UNL     1       6.500  -1.423  -3.347  0.00  0.00    +0.277 C 
ENDBRANCH  28  29
BRANCH  25  31
ATOM     31  O   UNL     1       2.890   3.692  -3.042  0.00  0.00    -0.495 OA
ATOM     32  C   UNL     1       3.800   4.792  -2.981  0.00  0.00    +0.277 C 
ENDBRANCH  25  31
ENDBRANCH  11  23
BRANCH   1  33
ATOM     33  C   UNL     1       2.064  -1.236  -0.842  0.00  0.00    +0.339 C 
ATOM     34  O   UNL     1       1.999  -1.884   0.187  0.00  0.00    -0.245 OA
BRANCH  33  35
ATOM     35  O   UNL     1       1.840   0.096  -0.815  0.00  0.00    -0.462 OA
BRANCH  35  37
ATOM     36  C   UNL     1       1.280   2.171   0.289  0.00  0.00    +0.048 C 
ATOM     37  C   UNL     1       1.640   0.695   0.466  0.00  0.00    +0.229 C 
ENDBRANCH  35  37
ENDBRANCH  33  35
ENDBRANCH   1  33
TORSDOF 7
