REMARK  Name = ZINC15952304
REMARK  11 active torsions:
REMARK  status: ('A' for Active; 'I' for Inactive)
REMARK    1  A    between atoms: C_1  and  O_2
REMARK    2  A    between atoms: O_2  and  C_3
REMARK    3  A    between atoms: C_5  and  C_13
REMARK    4  A    between atoms: C_7  and  O_11
REMARK    5  A    between atoms: C_8  and  O_9
REMARK    6  A    between atoms: O_9  and  C_10
REMARK    7  A    between atoms: O_11  and  C_12
REMARK    8  A    between atoms: C_16  and  C_30
REMARK    9  A    between atoms: N_23  and  C_24
REMARK   10  A    between atoms: C_24  and  C_25
REMARK   11  A    between atoms: C_35  and  O_36
REMARK                            x       y       z     vdW  Elec       q    Type
REMARK                         _______ _______ _______ _____ _____    ______ ____
ROOT
ATOM      1  C   UNL     1      -4.871   0.264   0.038  0.00  0.00    +0.142 C 
ATOM      2  C   UNL     1      -5.460   0.318  -1.345  0.00  0.00    +0.035 A 
ATOM      3  C   UNL     1      -5.308   0.689  -2.643  0.00  0.00    +0.075 A 
ATOM      4  N   UNL     1      -6.452   0.321  -3.291  0.00  0.00    -0.276 N 
ATOM      5  H   UNL     1      -6.627   0.461  -4.235  0.00  0.00    +0.189 HD
ATOM      6  N   UNL     1      -7.263  -0.239  -2.466  0.00  0.00    -0.168 NA
ATOM      7  C   UNL     1      -6.737  -0.281  -1.258  0.00  0.00    +0.153 A 
ATOM      8  C   UNL     1      -6.945  -0.702   0.139  0.00  0.00    +0.268 C 
ATOM      9  O   UNL     1      -7.946  -1.252   0.556  0.00  0.00    -0.268 OA
ATOM     10  N   UNL     1      -5.873  -0.388   0.889  0.00  0.00    -0.278 N 
ENDROOT
BRANCH   1  13
ATOM     11  C   UNL     1      -1.201  -0.638   0.010  0.00  0.00    +0.165 A 
ATOM     12  C   UNL     1      -2.375   0.101   0.019  0.00  0.00    +0.055 A 
ATOM     13  C   UNL     1      -3.598  -0.543   0.028  0.00  0.00    -0.015 A 
ATOM     14  C   UNL     1      -3.657  -1.924   0.027  0.00  0.00    +0.055 A 
ATOM     15  C   UNL     1      -2.488  -2.670   0.017  0.00  0.00    +0.165 A 
ATOM     16  C   UNL     1      -1.256  -2.027   0.003  0.00  0.00    +0.204 A 
BRANCH  11  18
ATOM     17  C   UNL     1      -0.017   1.425   0.010  0.00  0.00    +0.277 C 
ATOM     18  O   UNL     1       0.002  -0.004   0.002  0.00  0.00    -0.491 OA
ENDBRANCH  11  18
BRANCH  16  19
ATOM     19  O   UNL     1      -0.106  -2.755  -0.012  0.00  0.00    -0.488 OA
ATOM     20  C   UNL     1       0.454  -3.109   1.254  0.00  0.00    +0.277 C 
ENDBRANCH  16  19
BRANCH  15  21
ATOM     21  O   UNL     1      -2.547  -4.028   0.017  0.00  0.00    -0.491 OA
ATOM     22  C   UNL     1      -3.847  -4.621   0.026  0.00  0.00    +0.277 C 
ENDBRANCH  15  21
ENDBRANCH   1  13
BRANCH   3  23
ATOM     23  C   UNL     1      -4.132   1.361  -3.238  0.00  0.00    +0.042 A 
ATOM     24  C   UNL     1      -4.247   2.656  -3.743  0.00  0.00    +0.013 A 
ATOM     25  C   UNL     1      -3.146   3.278  -4.297  0.00  0.00    +0.001 A 
ATOM     26  C   UNL     1      -1.929   2.622  -4.354  0.00  0.00    +0.004 A 
ATOM     27  C   UNL     1      -1.805   1.338  -3.857  0.00  0.00    +0.046 A 
ATOM     28  C   UNL     1      -2.899   0.703  -3.293  0.00  0.00    +0.126 A 
BRANCH  28  29
ATOM     29  O   UNL     1      -2.776  -0.557  -2.799  0.00  0.00    -0.506 OA
ATOM     30  H   UNL     1      -2.952  -1.253  -3.447  0.00  0.00    +0.292 HD
ENDBRANCH  28  29
ENDBRANCH   3  23
BRANCH  10  31
ATOM     31  C   UNL     1      -5.729  -0.655   2.323  0.00  0.00    +0.183 C 
BRANCH  31  32
ATOM     32  C   UNL     1      -6.253   0.520   3.108  0.00  0.00    +0.122 A 
ATOM     33  C   UNL     1      -7.518   0.677   3.538  0.00  0.00    +0.046 A 
ATOM     34  C   UNL     1      -7.566   1.911   4.226  0.00  0.00    +0.041 A 
ATOM     35  C   UNL     1      -6.328   2.434   4.175  0.00  0.00    +0.195 A 
ATOM     36  O   UNL     1      -5.536   1.584   3.502  0.00  0.00    -0.466 OA
ENDBRANCH  31  32
ENDBRANCH  10  31
TORSDOF 8
