REMARK  Name = ZINC10794205
REMARK  10 active torsions:
REMARK  status: ('A' for Active; 'I' for Inactive)
REMARK    1  A    between atoms: C_1  and  N_2
REMARK    2  A    between atoms: N_2  and  S_3
REMARK    3  A    between atoms: S_3  and  C_6
REMARK    4  A    between atoms: C_8  and  C_14
REMARK    5  A    between atoms: C_11  and  O_12
REMARK    6  A    between atoms: O_12  and  C_13
REMARK    7  A    between atoms: C_14  and  O_16
REMARK    8  A    between atoms: O_16  and  C_17
REMARK    9  A    between atoms: C_17  and  C_18
REMARK   10  A    between atoms: C_18  and  C_20
REMARK                            x       y       z     vdW  Elec       q    Type
REMARK                         _______ _______ _______ _____ _____    ______ ____
ROOT
ATOM      1  C   UNL     1       1.169   3.176   0.007  0.00  0.00    +0.147 A 
ATOM      2  C   UNL     1      -0.029   3.855   0.022  0.00  0.00    +0.047 A 
ATOM      3  C   UNL     1      -1.232   3.145   0.030  0.00  0.00    +0.061 A 
ATOM      4  C   UNL     1      -1.214   1.747   0.017  0.00  0.00    +0.018 A 
ATOM      5  C   UNL     1      -0.013   1.076   0.008  0.00  0.00    +0.048 A 
ATOM      6  C   UNL     1       1.183   1.786   0.000  0.00  0.00    +0.146 A 
ENDROOT
BRANCH   1   7
ATOM      7  S   UNL     1       2.688   4.071  -0.003  0.00  0.00    +0.062 S 
ATOM      8  O   UNL     1       3.482   3.510  -1.039  0.00  0.00    -0.153 OA
ATOM      9  O   UNL     1       2.347   5.449   0.035  0.00  0.00    -0.153 OA
BRANCH   7  11
ATOM     10  C   UNL     1       3.924   2.374   1.702  0.00  0.00    +0.127 C 
ATOM     11  N   UNL     1       3.463   3.736   1.422  0.00  0.00    -0.193 NA
ATOM     12  H   UNL     1       3.611   4.441   2.071  0.00  0.00    +0.148 HD
ENDBRANCH   7  11
ENDBRANCH   1   7
BRANCH   6  13
ATOM     13  O   UNL     1       2.365   1.121  -0.015  0.00  0.00    -0.493 OA
ATOM     14  C   UNL     1       2.306  -0.307  -0.022  0.00  0.00    +0.277 C 
ENDBRANCH   6  13
BRANCH   3  15
ATOM     15  C   UNL     1      -2.517   3.868   0.046  0.00  0.00    +0.340 C 
ATOM     16  O   UNL     1      -2.531   5.083   0.052  0.00  0.00    -0.245 OA
BRANCH  15  17
ATOM     17  O   UNL     1      -3.677   3.181   0.054  0.00  0.00    -0.453 OA
BRANCH  17  18
ATOM     18  C   UNL     1      -4.903   3.958   0.069  0.00  0.00    +0.312 C 
BRANCH  18  19
ATOM     19  C   UNL     1      -6.088   3.027   0.076  0.00  0.00    +0.207 C 
ATOM     20  O   UNL     1      -5.915   1.825   0.069  0.00  0.00    -0.288 OA
BRANCH  19  21
ATOM     21  C   UNL     1      -7.398   3.552   0.091  0.00  0.00    +0.059 A 
ATOM     22  C   UNL     1      -8.614   2.875   0.100  0.00  0.00    +0.020 A 
ATOM     23  C   UNL     1      -9.751   3.638   0.114  0.00  0.00    +0.023 A 
ATOM     24  C   UNL     1      -9.641   4.996   0.119  0.00  0.00    +0.056 A 
ATOM     25  S   UNL     1      -7.926   5.256   0.112  0.00  0.00    -0.078 S 
ATOM     26 BR   UNL     1     -11.023   6.286   0.139  0.00  0.00    -0.043 Br
ENDBRANCH  19  21
ENDBRANCH  18  19
ENDBRANCH  17  18
ENDBRANCH  15  17
ENDBRANCH   3  15
TORSDOF 8
