REMARK  Name = ZINC19359204
REMARK  8 active torsions:
REMARK  status: ('A' for Active; 'I' for Inactive)
REMARK    1  A    between atoms: C_1  and  C_2
REMARK    2  A    between atoms: C_5  and  N_8
REMARK    3  A    between atoms: C_12  and  S_13
REMARK    4  A    between atoms: S_13  and  C_14
REMARK    5  A    between atoms: C_14  and  C_15
REMARK    6  A    between atoms: N_17  and  C_18
REMARK    7  A    between atoms: C_18  and  C_19
REMARK    8  A    between atoms: C_19  and  N_25
REMARK                            x       y       z     vdW  Elec       q    Type
REMARK                         _______ _______ _______ _____ _____    ______ ____
ROOT
ATOM      1  S   UNL     1       1.948  -4.969  -2.242  0.00  0.00    -0.076 S 
ENDROOT
BRANCH   1   6
ATOM      2  N   UNL     1      -0.752  -5.019  -1.517  0.00  0.00    -0.259 N 
ATOM      3  C   UNL     1      -1.693  -5.933  -1.128  0.00  0.00    +0.225 A 
ATOM      4  N   UNL     1      -1.121  -7.111  -1.090  0.00  0.00    -0.112 NA
ATOM      5  N   UNL     1       0.220  -6.955  -1.462  0.00  0.00    -0.120 NA
ATOM      6  C   UNL     1       0.425  -5.687  -1.723  0.00  0.00    +0.198 A 
ATOM      7  N   UNL     1      -3.021  -5.660  -0.827  0.00  0.00    -0.299 N 
ATOM      8  C   UNL     1      -3.656  -4.335  -0.878  0.00  0.00    +0.108 C 
ATOM      9  C   UNL     1      -5.125  -4.513  -0.438  0.00  0.00    +0.020 C 
ATOM     10  C   UNL     1      -5.085  -5.832   0.379  0.00  0.00    +0.020 C 
ATOM     11  C   UNL     1      -4.029  -6.651  -0.408  0.00  0.00    +0.108 C 
BRANCH   2  16
ATOM     12  C   UNL     1      -1.588   0.556  -2.184  0.00  0.00    +0.044 C 
ATOM     13  C   UNL     1      -1.366  -0.924  -2.007  0.00  0.00    -0.050 A 
ATOM     14  C   UNL     1      -1.055  -1.711  -3.101  0.00  0.00    +0.005 A 
ATOM     15  C   UNL     1      -0.851  -3.068  -2.942  0.00  0.00    +0.026 A 
ATOM     16  C   UNL     1      -0.958  -3.641  -1.682  0.00  0.00    +0.052 A 
ATOM     17  C   UNL     1      -1.271  -2.849  -0.586  0.00  0.00    +0.026 A 
ATOM     18  C   UNL     1      -1.469  -1.492  -0.751  0.00  0.00    +0.005 A 
ENDBRANCH   2  16
ENDBRANCH   1   6
BRANCH   1  19
ATOM     19  C   UNL     1       3.092  -6.374  -2.321  0.00  0.00    +0.173 C 
BRANCH  19  20
ATOM     20  C   UNL     1       4.451  -5.892  -2.759  0.00  0.00    +0.223 C 
ATOM     21  O   UNL     1       4.630  -4.715  -2.994  0.00  0.00    -0.275 OA
ATOM     22  N   UNL     1       5.467  -6.767  -2.889  0.00  0.00    -0.313 N 
ATOM     23  H   UNL     1       5.324  -7.708  -2.700  0.00  0.00    +0.149 HD
BRANCH  22  24
ATOM     24  C   UNL     1       6.788  -6.298  -3.314  0.00  0.00    +0.126 C 
BRANCH  24  25
ATOM     25  C   UNL     1       7.719  -7.498  -3.503  0.00  0.00    +0.038 C 
ATOM     26  C   UNL     1       9.132  -7.003  -3.817  0.00  0.00    +0.024 C 
ATOM     27  C   UNL     1       9.107  -6.170  -5.100  0.00  0.00    +0.002 C 
ATOM     28  C   UNL     1       8.600  -7.032  -6.258  0.00  0.00    +0.000 C 
ATOM     29  C   UNL     1       7.186  -7.527  -5.944  0.00  0.00    +0.002 C 
ATOM     30  C   UNL     1       7.211  -8.360  -4.660  0.00  0.00    +0.024 C 
BRANCH  25  31
ATOM     31  N   UNL     1       7.743  -8.298  -2.271  0.00  0.00    -0.291 NA
ATOM     32  C   UNL     1       8.175  -7.486  -1.124  0.00  0.00    +0.113 C 
ATOM     33  C   UNL     1       8.129  -8.339   0.146  0.00  0.00    +0.175 C 
ATOM     34  O   UNL     1       8.946  -9.499  -0.035  0.00  0.00    -0.377 OA
ATOM     35  C   UNL     1       8.553 -10.313  -1.143  0.00  0.00    +0.175 C 
ATOM     36  C   UNL     1       8.604  -9.479  -2.426  0.00  0.00    +0.113 C 
ENDBRANCH  25  31
ENDBRANCH  24  25
ENDBRANCH  22  24
ENDBRANCH  19  20
ENDBRANCH   1  19
TORSDOF 7
