REMARK  Name = ZINC39485579
REMARK  7 active torsions:
REMARK  status: ('A' for Active; 'I' for Inactive)
REMARK    1  A    between atoms: C_1  and  C_2
REMARK    2  A    between atoms: C_5  and  S_19
REMARK    3  A    between atoms: C_7  and  C_8
REMARK    4  A    between atoms: N_10  and  C_11
REMARK    5  A    between atoms: C_16  and  C_17
REMARK    6  A    between atoms: S_19  and  N_22
REMARK    7  A    between atoms: N_22  and  C_23
REMARK                            x       y       z     vdW  Elec       q    Type
REMARK                         _______ _______ _______ _____ _____    ______ ____
ROOT
ATOM      1  C   UNL     1      -0.000   1.511   0.011  0.00  0.00    +0.044 C 
ATOM      2  C   UNL     1       0.021   0.004   0.001  0.00  0.00    -0.038 A 
ATOM      3  C   UNL     1      -0.084  -0.680  -1.193  0.00  0.00    +0.006 A 
ATOM      4  C   UNL     1      -0.065  -2.064  -1.205  0.00  0.00    +0.029 A 
ATOM      5  C   UNL     1       0.058  -2.770  -0.021  0.00  0.00    +0.111 A 
ATOM      6  C   UNL     1       0.164  -2.098   1.179  0.00  0.00    +0.042 A 
ATOM      7  C   UNL     1       0.151  -0.702   1.197  0.00  0.00    +0.042 A 
ENDROOT
BRANCH   7   8
ATOM      8  C   UNL     1       0.270   0.024   2.479  0.00  0.00    +0.249 C 
ATOM      9  O   UNL     1       0.196   1.238   2.499  0.00  0.00    -0.270 OA
ATOM     10  N   UNL     1       0.461  -0.658   3.625  0.00  0.00    -0.281 N 
ATOM     11  H   UNL     1       0.595  -1.618   3.602  0.00  0.00    +0.155 HD
BRANCH  10  12
ATOM     12  C   UNL     1       0.465   0.019   4.850  0.00  0.00    +0.037 A 
ATOM     13  C   UNL     1       0.963   1.313   4.928  0.00  0.00    +0.026 A 
ATOM     14  C   UNL     1       0.965   1.980   6.137  0.00  0.00    +0.040 A 
ATOM     15  C   UNL     1       0.472   1.358   7.272  0.00  0.00    +0.124 A 
ATOM     16  C   UNL     1      -0.025   0.068   7.197  0.00  0.00    +0.043 A 
ATOM     17  C   UNL     1      -0.034  -0.600   5.989  0.00  0.00    -0.027 A 
ATOM     18  C   UNL     1      -0.581  -2.002   5.906  0.00  0.00    +0.046 C 
ATOM     19  F   UNL     1       0.476   2.012   8.455  0.00  0.00    -0.205 F 
ENDBRANCH  10  12
ENDBRANCH   7   8
BRANCH   5  20
ATOM     20  S   UNL     1       0.080  -4.532  -0.047  0.00  0.00    +0.092 S 
ATOM     21  O   UNL     1      -0.344  -4.962   1.239  0.00  0.00    -0.148 OA
ATOM     22  O   UNL     1      -0.583  -4.929  -1.240  0.00  0.00    -0.148 OA
BRANCH  20  23
ATOM     23  N   UNL     1       1.660  -5.000  -0.205  0.00  0.00    -0.095 NA
BRANCH  23  24
ATOM     24  C   UNL     1       1.985  -6.359  -0.255  0.00  0.00    +0.109 A 
ATOM     25  C   UNL     1       0.984  -7.317  -0.178  0.00  0.00    +0.029 A 
ATOM     26  C   UNL     1       1.308  -8.659  -0.228  0.00  0.00    +0.002 A 
ATOM     27  C   UNL     1       2.628  -9.050  -0.354  0.00  0.00    +0.003 A 
ATOM     28  C   UNL     1       3.630  -8.099  -0.431  0.00  0.00    +0.040 A 
ATOM     29  C   UNL     1       3.312  -6.754  -0.388  0.00  0.00    +0.148 A 
ATOM     30  F   UNL     1       4.290  -5.825  -0.470  0.00  0.00    -0.203 F 
ENDBRANCH  23  24
ENDBRANCH  20  23
ENDBRANCH   5  20
TORSDOF 5
