REMARK  Name = ZINC24097544
REMARK  10 active torsions:
REMARK  status: ('A' for Active; 'I' for Inactive)
REMARK    1  A    between atoms: C_1  and  C_2
REMARK    2  A    between atoms: C_5  and  O_9
REMARK    3  A    between atoms: C_6  and  C_8
REMARK    4  A    between atoms: O_9  and  C_10
REMARK    5  A    between atoms: C_10  and  C_11
REMARK    6  A    between atoms: C_11  and  C_13
REMARK    7  A    between atoms: C_11  and  O_31
REMARK    8  A    between atoms: C_13  and  N_14
REMARK    9  A    between atoms: C_17  and  C_21
REMARK   10  A    between atoms: C_17  and  C_22
REMARK                            x       y       z     vdW  Elec       q    Type
REMARK                         _______ _______ _______ _____ _____    ______ ____
ROOT
ATOM      1  N   UNL     1      -0.145  -8.425  -2.274  0.00  0.00    -0.221 N 
ATOM      2  C   UNL     1       0.913  -9.258  -2.227  0.00  0.00    +0.251 C 
ATOM      3  O   UNL     1       2.084  -8.961  -2.333  0.00  0.00    -0.272 OA
ATOM      4  C   UNL     1       0.336 -10.643  -2.014  0.00  0.00    +0.135 C 
ATOM      5  N   UNL     1      -1.117 -10.408  -1.961  0.00  0.00    -0.281 N 
ATOM      6  C   UNL     1      -1.299  -9.085  -2.117  0.00  0.00    +0.310 C 
ATOM      7  O   UNL     1      -2.389  -8.548  -2.118  0.00  0.00    -0.252 OA
ATOM      8  C   UNL     1       0.834 -11.238  -0.695  0.00  0.00    +0.047 C 
ATOM      9  H   UNL     1      -1.808 -11.077  -1.835  0.00  0.00    +0.152 HD
ENDROOT
BRANCH   4  10
ATOM     10  C   UNL     1       0.685 -11.546  -3.169  0.00  0.00    -0.012 A 
ATOM     11  C   UNL     1       1.862 -11.350  -3.867  0.00  0.00    +0.010 A 
ATOM     12  C   UNL     1       2.187 -12.176  -4.927  0.00  0.00    +0.050 A 
ATOM     13  C   UNL     1       1.332 -13.203  -5.293  0.00  0.00    +0.166 A 
ATOM     14  C   UNL     1       0.146 -13.401  -4.590  0.00  0.00    +0.167 A 
ATOM     15  C   UNL     1      -0.170 -12.573  -3.525  0.00  0.00    +0.055 A 
ATOM     16  O   UNL     1      -0.513 -14.463  -5.137  0.00  0.00    -0.453 OA
ATOM     17  C   UNL     1       0.080 -14.656  -6.435  0.00  0.00    +0.466 C 
ATOM     18  O   UNL     1       1.415 -14.141  -6.281  0.00  0.00    -0.453 OA
ENDBRANCH   4  10
BRANCH   1  19
ATOM     19  C   UNL     1      -0.045  -6.977  -2.466  0.00  0.00    +0.152 C 
BRANCH  19  20
ATOM     20  C   UNL     1       0.079  -6.289  -1.105  0.00  0.00    +0.170 C 
BRANCH  20  21
ATOM     21  O   UNL     1       1.308  -6.674  -0.487  0.00  0.00    -0.387 OA
ATOM     22  H   UNL     1       2.096  -6.440  -0.997  0.00  0.00    +0.210 HD
ENDBRANCH  20  21
BRANCH  20  23
ATOM     23  C   UNL     1       0.058  -4.771  -1.298  0.00  0.00    +0.262 C 
BRANCH  23  24
ATOM     24  O   UNL     1       0.057  -4.129  -0.021  0.00  0.00    -0.489 OA
BRANCH  24  29
ATOM     25  C   UNL     1      -0.018   1.503   0.010  0.00  0.00    +0.044 C 
ATOM     26  C   UNL     1       0.002  -0.004   0.002  0.00  0.00    -0.050 A 
ATOM     27  C   UNL     1       0.006  -0.688  -1.200  0.00  0.00    +0.007 A 
ATOM     28  C   UNL     1       0.024  -2.069  -1.210  0.00  0.00    +0.046 A 
ATOM     29  C   UNL     1       0.039  -2.770  -0.013  0.00  0.00    +0.124 A 
ATOM     30  C   UNL     1       0.036  -2.082   1.191  0.00  0.00    -0.009 A 
ATOM     31  C   UNL     1       0.023  -0.701   1.196  0.00  0.00    +0.010 A 
ATOM     32  C   UNL     1       0.052  -2.841   2.493  0.00  0.00    +0.047 C 
ENDBRANCH  24  29
ENDBRANCH  23  24
ENDBRANCH  20  23
ENDBRANCH  19  20
ENDBRANCH   1  19
TORSDOF 7
