REMARK  Name = ZINC39530474
REMARK  9 active torsions:
REMARK  status: ('A' for Active; 'I' for Inactive)
REMARK    1  A    between atoms: C_1  and  S_2
REMARK    2  A    between atoms: S_2  and  C_3
REMARK    3  A    between atoms: C_6  and  N_19
REMARK    4  A    between atoms: C_7  and  S_9
REMARK    5  A    between atoms: S_9  and  O_12
REMARK    6  A    between atoms: O_12  and  C_13
REMARK    7  A    between atoms: C_23  and  S_26
REMARK    8  A    between atoms: S_26  and  O_29
REMARK    9  A    between atoms: O_29  and  C_30
REMARK                            x       y       z     vdW  Elec       q    Type
REMARK                         _______ _______ _______ _____ _____    ______ ____
ROOT
ATOM      1  C   UNL     1       0.537   0.030  -2.704  0.00  0.00    +0.010 A 
ATOM      2  C   UNL     1       1.616   0.841  -3.036  0.00  0.00    +0.016 A 
ATOM      3  C   UNL     1       2.665   0.327  -3.771  0.00  0.00    +0.026 A 
ATOM      4  C   UNL     1       2.643  -1.001  -4.179  0.00  0.00    +0.058 A 
ATOM      5  C   UNL     1       1.565  -1.811  -3.847  0.00  0.00    +0.150 A 
ATOM      6  C   UNL     1       0.518  -1.299  -3.107  0.00  0.00    +0.047 A 
ENDROOT
BRANCH   4   7
ATOM      7  N   UNL     1       3.707  -1.521  -4.925  0.00  0.00    -0.330 N 
ATOM      8  C   UNL     1       3.572  -1.759  -6.370  0.00  0.00    +0.086 C 
ATOM      9  C   UNL     1       4.035  -3.188  -6.673  0.00  0.00    -0.061 C 
ATOM     10  N   UNL     1       5.393  -3.383  -6.151  0.00  0.00    +0.398 N 
ATOM     11  C   UNL     1       5.387  -3.272  -4.686  0.00  0.00    +0.133 C 
ATOM     12  C   UNL     1       4.993  -1.841  -4.286  0.00  0.00    +0.115 C 
ATOM     13  H   UNL     1       5.726  -4.298  -6.416  0.00  0.00    -0.083 HD
ATOM     14  H   UNL     1       6.005  -2.680  -6.537  0.00  0.00    -0.083 HD
BRANCH  11  15
ATOM     15  S   UNL     1       7.042  -3.644  -4.044  0.00  0.00    +0.109 S 
ATOM     16  O   UNL     1       8.017  -2.862  -4.721  0.00  0.00    -0.138 OA
ATOM     17  O   UNL     1       7.015  -3.698  -2.624  0.00  0.00    -0.138 OA
BRANCH  15  18
ATOM     18  O   UNL     1       7.319  -5.075  -4.482  0.00  0.00    -0.347 OA
BRANCH  18  19
ATOM     19  C   UNL     1       6.658  -6.013  -3.755  0.00  0.00    +0.156 A 
ATOM     20  C   UNL     1       7.199  -6.477  -2.564  0.00  0.00    +0.048 A 
ATOM     21  C   UNL     1       6.525  -7.431  -1.826  0.00  0.00    +0.004 A 
ATOM     22  C   UNL     1       5.312  -7.923  -2.273  0.00  0.00    +0.000 A 
ATOM     23  C   UNL     1       4.771  -7.463  -3.459  0.00  0.00    +0.004 A 
ATOM     24  C   UNL     1       5.439  -6.505  -4.198  0.00  0.00    +0.048 A 
ENDBRANCH  18  19
ENDBRANCH  15  18
ENDBRANCH  11  15
ENDBRANCH   4   7
BRANCH   5  25
ATOM     25  S   UNL     1       1.537  -3.495  -4.366  0.00  0.00    +0.153 S 
ATOM     26  O   UNL     1       2.782  -4.060  -3.978  0.00  0.00    -0.131 OA
ATOM     27  O   UNL     1       0.291  -4.030  -3.940  0.00  0.00    -0.131 OA
BRANCH  25  28
ATOM     28  O   UNL     1       1.514  -3.497  -5.888  0.00  0.00    -0.342 OA
BRANCH  28  29
ATOM     29  C   UNL     1       0.305  -3.182  -6.422  0.00  0.00    +0.157 A 
ATOM     30  C   UNL     1      -0.579  -4.189  -6.781  0.00  0.00    +0.048 A 
ATOM     31  C   UNL     1      -1.808  -3.866  -7.324  0.00  0.00    +0.004 A 
ATOM     32  C   UNL     1      -2.156  -2.541  -7.511  0.00  0.00    +0.000 A 
ATOM     33  C   UNL     1      -1.277  -1.536  -7.154  0.00  0.00    +0.004 A 
ATOM     34  C   UNL     1      -0.049  -1.853  -6.605  0.00  0.00    +0.048 A 
ENDBRANCH  28  29
ENDBRANCH  25  28
ENDBRANCH   5  25
BRANCH   1  36
ATOM     35  C   UNL     1      -0.335   2.416  -1.484  0.00  0.00    +0.090 C 
ATOM     36  S   UNL     1      -0.803   0.686  -1.766  0.00  0.00    -0.129 S 
ENDBRANCH   1  36
TORSDOF 8
