REMARK  Name = ZINC38887558
REMARK  11 active torsions:
REMARK  status: ('A' for Active; 'I' for Inactive)
REMARK    1  A    between atoms: C_1  and  C_2
REMARK    2  A    between atoms: C_7  and  C_8
REMARK    3  A    between atoms: C_10  and  C_13
REMARK    4  A    between atoms: C_13  and  N_14
REMARK    5  A    between atoms: C_18  and  C_21
REMARK    6  A    between atoms: N_23  and  C_24
REMARK    7  A    between atoms: C_24  and  C_26
REMARK    8  A    between atoms: C_24  and  C_33
REMARK    9  A    between atoms: C_31  and  C_32
REMARK   10  A    between atoms: C_33  and  C_34
REMARK   11  A    between atoms: C_33  and  C_35
REMARK                            x       y       z     vdW  Elec       q    Type
REMARK                         _______ _______ _______ _____ _____    ______ ____
ROOT
ATOM      1  N   UNL     1       1.592   0.805   6.757  0.00  0.00    +0.386 N 
ATOM      2  C   UNL     1       2.115   2.176   6.799  0.00  0.00    -0.078 C 
ATOM      3  C   UNL     1       3.587   2.151   7.215  0.00  0.00    -0.018 C 
ATOM      4  C   UNL     1       3.710   1.514   8.602  0.00  0.00    +0.009 C 
ATOM      5  C   UNL     1       3.094   0.112   8.565  0.00  0.00    +0.058 C 
ATOM      6  C   UNL     1       1.640   0.212   8.099  0.00  0.00    -0.065 C 
ATOM      7  H   UNL     1       2.152   0.252   6.126  0.00  0.00    -0.081 HD
ENDROOT
BRANCH   5   8
ATOM      8  C   UNL     1       3.141  -0.495   9.943  0.00  0.00    +0.215 C 
ATOM      9  O   UNL     1       2.113  -0.820  10.498  0.00  0.00    -0.276 OA
ATOM     10  N   UNL     1       4.326  -0.676  10.559  0.00  0.00    -0.308 N 
ATOM     11  H   UNL     1       5.148  -0.416  10.115  0.00  0.00    +0.149 HD
BRANCH  10  12
ATOM     12  C   UNL     1       4.372  -1.266  11.899  0.00  0.00    +0.106 C 
BRANCH  12  13
ATOM     13  C   UNL     1       5.714  -1.917  12.116  0.00  0.00    -0.024 A 
ATOM     14  C   UNL     1       6.673  -1.285  12.886  0.00  0.00    +0.006 A 
ATOM     15  C   UNL     1       7.903  -1.882  13.084  0.00  0.00    +0.000 A 
ATOM     16  C   UNL     1       8.175  -3.112  12.514  0.00  0.00    +0.000 A 
ATOM     17  C   UNL     1       7.216  -3.744  11.745  0.00  0.00    +0.004 A 
ATOM     18  C   UNL     1       5.984  -3.149  11.550  0.00  0.00    -0.045 A 
ATOM     19  C   UNL     1       4.936  -3.841  10.716  0.00  0.00    +0.044 C 
ENDBRANCH  12  13
BRANCH  12  20
ATOM     20  C   UNL     1       4.162  -0.171  12.947  0.00  0.00    +0.008 C 
ATOM     21  C   UNL     1       2.853   0.567  12.657  0.00  0.00    +0.009 C 
ATOM     22  C   UNL     1       4.094  -0.802  14.339  0.00  0.00    +0.009 C 
ENDBRANCH  12  20
ENDBRANCH  10  12
ENDBRANCH   5   8
BRANCH   1  23
ATOM     23  C   UNL     1       0.202   0.827   6.283  0.00  0.00    +0.022 C 
BRANCH  23  26
ATOM     24  C   UNL     1       0.181   1.344   2.690  0.00  0.00    +0.202 A 
ATOM     25  N   UNL     1       0.248   0.577   3.793  0.00  0.00    -0.193 NA
ATOM     26  C   UNL     1       0.164   1.321   4.859  0.00  0.00    +0.211 A 
ATOM     27  O   UNL     1       0.039   2.598   4.477  0.00  0.00    -0.340 OA
ATOM     28  N   UNL     1       0.057   2.596   3.058  0.00  0.00    -0.056 NA
BRANCH  24  35
ATOM     29  C   UNL     1       2.215  -0.565   1.926  0.00  0.00    +0.044 C 
ATOM     30  C   UNL     1       1.218  -0.065   0.913  0.00  0.00    -0.040 A 
ATOM     31  C   UNL     1       1.266  -0.521  -0.388  0.00  0.00    +0.004 A 
ATOM     32  C   UNL     1       0.352  -0.063  -1.319  0.00  0.00    +0.000 A 
ATOM     33  C   UNL     1      -0.616   0.855  -0.952  0.00  0.00    +0.001 A 
ATOM     34  C   UNL     1      -0.673   1.318   0.347  0.00  0.00    +0.012 A 
ATOM     35  C   UNL     1       0.242   0.855   1.290  0.00  0.00    +0.025 A 
ENDBRANCH  24  35
ENDBRANCH  23  26
ENDBRANCH   1  23
TORSDOF 7
