REMARK  Name = ZINC67631848
REMARK  9 active torsions:
REMARK  status: ('A' for Active; 'I' for Inactive)
REMARK    1  A    between atoms: C_1  and  C_2
REMARK    2  A    between atoms: C_6  and  C_7
REMARK    3  A    between atoms: N_9  and  C_10
REMARK    4  A    between atoms: C_10  and  C_11
REMARK    5  A    between atoms: N_15  and  C_17
REMARK    6  A    between atoms: C_17  and  C_18
REMARK    7  A    between atoms: C_17  and  C_19
REMARK    8  A    between atoms: C_21  and  C_25
REMARK    9  A    between atoms: C_21  and  C_26
REMARK                            x       y       z     vdW  Elec       q    Type
REMARK                         _______ _______ _______ _____ _____    ______ ____
ROOT
ATOM      1  C   UNL     1       0.031  -0.394   2.491  0.00  0.00    +0.280 C 
ATOM      2  O   UNL     1       0.016   0.792   2.760  0.00  0.00    -0.267 OA
ATOM      3  N   UNL     1       0.053  -1.309   3.480  0.00  0.00    -0.309 N 
ATOM      4  H   UNL     1       0.065  -2.255   3.266  0.00  0.00    +0.149 HD
ENDROOT
BRANCH   1  10
ATOM      5  C   UNL     1      -0.018   1.503   0.010  0.00  0.00    +0.048 C 
ATOM      6  C   UNL     1       0.002  -0.004   0.002  0.00  0.00    +0.011 A 
ATOM      7  C   UNL     1       0.009  -0.840  -1.125  0.00  0.00    +0.062 A 
ATOM      8  C   UNL     1       0.027  -2.151  -0.662  0.00  0.00    +0.117 A 
ATOM      9  O   UNL     1       0.036  -2.113   0.663  0.00  0.00    -0.454 OA
ATOM     10  C   UNL     1       0.024  -0.829   1.089  0.00  0.00    +0.193 A 
ATOM     11  C   UNL     1       0.032  -3.344  -1.585  0.00  0.00    +0.082 C 
ATOM     12  C   UNL     1      -0.489  -2.920  -2.961  0.00  0.00    -0.021 C 
ATOM     13  C   UNL     1       0.284  -1.704  -3.482  0.00  0.00    +0.086 C 
ATOM     14  C   UNL     1       0.001  -0.526  -2.562  0.00  0.00    +0.167 C 
ATOM     15  O   UNL     1      -0.215   0.592  -2.982  0.00  0.00    -0.292 OA
ATOM     16  C   UNL     1      -0.322  -4.082  -3.942  0.00  0.00    +0.012 C 
ATOM     17  C   UNL     1      -1.973  -2.564  -2.851  0.00  0.00    +0.012 C 
ENDBRANCH   1  10
BRANCH   3  18
ATOM     18  C   UNL     1       0.060  -0.875   4.879  0.00  0.00    +0.106 C 
BRANCH  18  19
ATOM     19  C   UNL     1       0.086  -2.101   5.794  0.00  0.00    -0.012 C 
ATOM     20  C   UNL     1      -1.261  -2.869   5.733  0.00  0.00    -0.015 C 
ATOM     21  C   UNL     1      -1.322  -3.574   7.104  0.00  0.00    -0.078 C 
ATOM     22  N   UNL     1      -0.441  -2.825   8.020  0.00  0.00    +0.381 N 
ATOM     23  C   UNL     1       0.140  -1.681   7.284  0.00  0.00    -0.074 C 
ATOM     24  H   UNL     1       0.298  -3.428   8.348  0.00  0.00    -0.081 HD
BRANCH  22  25
ATOM     25  C   UNL     1      -1.220  -2.333   9.163  0.00  0.00    -0.075 C 
ATOM     26  C   UNL     1      -1.808  -3.520   9.929  0.00  0.00    -0.014 C 
ATOM     27  C   UNL     1      -0.310  -1.527  10.092  0.00  0.00    -0.014 C 
ENDBRANCH  22  25
ENDBRANCH  18  19
ENDBRANCH   3  18
TORSDOF 4
