REMARK  Name = ZINC14550209
REMARK  4 active torsions:
REMARK  status: ('A' for Active; 'I' for Inactive)
REMARK    1  A    between atoms: C_1  and  O_2
REMARK    2  A    between atoms: O_2  and  C_3
REMARK    3  A    between atoms: C_7  and  C_9
REMARK    4  A    between atoms: C_22  and  O_25
REMARK                            x       y       z     vdW  Elec       q    Type
REMARK                         _______ _______ _______ _____ _____    ______ ____
ROOT
ATOM      1  C   UNL     1      -1.264   3.493   0.112  0.00  0.00    +0.105 C 
ATOM      2  C   UNL     1      -0.249   4.201  -0.762  0.00  0.00    +0.029 C 
ATOM      3  C   UNL     1      -0.215   5.733  -0.729  0.00  0.00    +0.033 C 
ATOM      4  C   UNL     1       1.257   6.011  -1.044  0.00  0.00    -0.030 C 
ATOM      5  C   UNL     1       2.003   4.976  -0.671  0.00  0.00    -0.023 C 
ATOM      6  C   UNL     1       1.120   3.957  -0.054  0.00  0.00    +0.049 C 
ATOM      7  C   UNL     1       1.393   2.506  -0.145  0.00  0.00    -0.016 A 
ATOM      8  C   UNL     1       2.679   2.016  -0.253  0.00  0.00    +0.006 A 
ATOM      9  C   UNL     1       2.911   0.655  -0.303  0.00  0.00    +0.004 A 
ATOM     10  C   UNL     1       1.844  -0.224  -0.245  0.00  0.00    +0.047 A 
ATOM     11  C   UNL     1       0.553   0.256  -0.144  0.00  0.00    +0.138 A 
ATOM     12  C   UNL     1       0.305   1.634  -0.100  0.00  0.00    +0.073 A 
ATOM     13  N   UNL     1      -1.027   2.048  -0.034  0.00  0.00    -0.334 N 
ATOM     14  H   UNL     1      -1.562   1.670  -0.801  0.00  0.00    +0.147 HD
ENDROOT
BRANCH   1  19
ATOM     15  C   UNL     1      -0.133   3.502   3.718  0.00  0.00    +0.120 A 
ATOM     16  C   UNL     1      -0.737   4.658   4.192  0.00  0.00    +0.045 A 
ATOM     17  C   UNL     1      -1.507   5.431   3.345  0.00  0.00    +0.004 A 
ATOM     18  C   UNL     1      -1.677   5.053   2.026  0.00  0.00    +0.006 A 
ATOM     19  C   UNL     1      -1.076   3.902   1.551  0.00  0.00    -0.024 A 
ATOM     20  C   UNL     1      -0.309   3.123   2.395  0.00  0.00    +0.051 A 
BRANCH  15  22
ATOM     21  C   UNL     1       0.758   3.189   5.900  0.00  0.00    +0.277 C 
ATOM     22  O   UNL     1       0.625   2.740   4.549  0.00  0.00    -0.495 OA
ENDBRANCH  15  22
ENDBRANCH   1  19
BRANCH  11  23
ATOM     23  O   UNL     1      -0.487  -0.618  -0.087  0.00  0.00    -0.505 OA
ATOM     24  H   UNL     1      -0.851  -0.853  -0.952  0.00  0.00    +0.292 HD
ENDBRANCH  11  23
TORSDOF 3
