REMARK  Name = ZINC00930550
REMARK  8 active torsions:
REMARK  status: ('A' for Active; 'I' for Inactive)
REMARK    1  A    between atoms: C_1  and  C_2
REMARK    2  A    between atoms: C_2  and  C_4
REMARK    3  A    between atoms: C_2  and  S_14
REMARK    4  A    between atoms: N_6  and  C_7
REMARK    5  A    between atoms: C_10  and  N_13
REMARK    6  A    between atoms: S_14  and  C_15
REMARK    7  A    between atoms: C_18  and  C_26
REMARK    8  A    between atoms: N_19  and  C_20
REMARK                            x       y       z     vdW  Elec       q    Type
REMARK                         _______ _______ _______ _____ _____    ______ ____
ROOT
ATOM      1  C   UNL     1       1.071  -3.151  -1.157  0.00  0.00    +0.197 A 
ATOM      2  N   UNL     1       0.970  -4.334  -0.594  0.00  0.00    -0.122 NA
ATOM      3  N   UNL     1       1.586  -4.341   0.534  0.00  0.00    -0.128 NA
ATOM      4  C   UNL     1       2.124  -3.165   0.759  0.00  0.00    +0.171 A 
ATOM      5  N   UNL     1       1.806  -2.363  -0.315  0.00  0.00    -0.270 N 
ENDROOT
BRANCH   5   6
ATOM      6  C   UNL     1       2.166  -1.022  -0.507  0.00  0.00    +0.051 A 
ATOM      7  C   UNL     1       1.194  -0.030  -0.481  0.00  0.00    +0.026 A 
ATOM      8  C   UNL     1       1.551   1.290  -0.670  0.00  0.00    +0.002 A 
ATOM      9  C   UNL     1       2.876   1.626  -0.885  0.00  0.00    +0.000 A 
ATOM     10  C   UNL     1       3.846   0.641  -0.912  0.00  0.00    +0.002 A 
ATOM     11  C   UNL     1       3.494  -0.682  -0.723  0.00  0.00    +0.026 A 
ENDBRANCH   5   6
BRANCH   4  12
ATOM     12  C   UNL     1       2.919  -2.775   1.943  0.00  0.00    +0.038 A 
ATOM     13  C   UNL     1       3.120  -1.424   2.251  0.00  0.00    +0.014 A 
ATOM     14  C   UNL     1       3.871  -1.111   3.370  0.00  0.00    +0.020 A 
ATOM     15  C   UNL     1       4.394  -2.134   4.142  0.00  0.00    +0.111 A 
ATOM     16  N   UNL     1       4.188  -3.398   3.828  0.00  0.00    -0.263 NA
ATOM     17  C   UNL     1       3.476  -3.746   2.776  0.00  0.00    +0.122 A 
ENDBRANCH   4  12
BRANCH   1  18
ATOM     18  S   UNL     1       0.387  -2.670  -2.708  0.00  0.00    -0.073 S 
BRANCH  18  20
ATOM     19  C   UNL     1       0.647  -5.296  -3.413  0.00  0.00    +0.029 C 
ATOM     20  C   UNL     1      -0.416  -4.218  -3.192  0.00  0.00    +0.137 C 
BRANCH  20  21
ATOM     21  C   UNL     1      -1.190  -4.006  -4.468  0.00  0.00    +0.230 C 
ATOM     22  O   UNL     1      -0.867  -3.122  -5.232  0.00  0.00    -0.274 OA
ATOM     23  N   UNL     1      -2.240  -4.799  -4.759  0.00  0.00    -0.285 N 
ATOM     24  H   UNL     1      -2.539  -5.463  -4.117  0.00  0.00    +0.155 HD
BRANCH  23  25
ATOM     25  C   UNL     1      -2.900  -4.665  -5.988  0.00  0.00    +0.034 A 
ATOM     26  C   UNL     1      -3.047  -3.410  -6.564  0.00  0.00    +0.025 A 
ATOM     27  C   UNL     1      -3.692  -3.279  -7.777  0.00  0.00    +0.024 A 
ATOM     28  C   UNL     1      -4.203  -4.401  -8.417  0.00  0.00    +0.025 A 
ATOM     29  C   UNL     1      -4.060  -5.655  -7.838  0.00  0.00    +0.024 A 
ATOM     30  C   UNL     1      -3.411  -5.787  -6.627  0.00  0.00    +0.025 A 
BRANCH  28  31
ATOM     31  N   UNL     1      -4.861  -4.267  -9.644  0.00  0.00    -0.358 N 
ATOM     32  H   UNL     1      -5.217  -5.051 -10.091  0.00  0.00    +0.142 HD
ATOM     33  H   UNL     1      -4.960  -3.391 -10.049  0.00  0.00    +0.142 HD
ENDBRANCH  28  31
ENDBRANCH  23  25
ENDBRANCH  20  21
ENDBRANCH  18  20
ENDBRANCH   1  18
TORSDOF 7
