REMARK  Name = ZINC09165326
REMARK  9 active torsions:
REMARK  status: ('A' for Active; 'I' for Inactive)
REMARK    1  A    between atoms: C_1  and  C_2
REMARK    2  A    between atoms: C_5  and  N_33
REMARK    3  A    between atoms: C_7  and  N_8
REMARK    4  A    between atoms: C_9  and  C_11
REMARK    5  A    between atoms: N_13  and  C_14
REMARK    6  A    between atoms: C_14  and  C_15
REMARK    7  A    between atoms: C_15  and  C_17
REMARK    8  A    between atoms: C_15  and  N_68
REMARK    9  A    between atoms: N_26  and  C_27
REMARK                            x       y       z     vdW  Elec       q    Type
REMARK                         _______ _______ _______ _____ _____    ______ ____
ROOT
ATOM      1  C   UNL     1      -0.194   1.655   0.089  0.00  0.00    +0.094 C 
ENDROOT
BRANCH   1   4
ATOM      2  C   UNL     1      -1.294   3.712   0.793  0.00  0.00    +0.299 C 
ATOM      3  O   UNL     1      -0.886   4.242  -0.219  0.00  0.00    -0.265 OA
ATOM      4  N   UNL     1      -1.003   2.419   1.042  0.00  0.00    -0.309 N 
ATOM      5  H   UNL     1      -1.329   1.996   1.851  0.00  0.00    +0.149 HD
BRANCH   2   7
ATOM      6  N   UNL     1      -2.410   5.784   1.516  0.00  0.00    -0.277 N 
ATOM      7  C   UNL     1      -2.119   4.491   1.764  0.00  0.00    +0.303 C 
ATOM      8  O   UNL     1      -2.527   3.961   2.777  0.00  0.00    -0.265 OA
ATOM      9  H   UNL     1      -2.139   6.189   0.678  0.00  0.00    +0.155 HD
BRANCH   6  16
ATOM     10  C   UNL     1      -2.003   8.600   1.549  0.00  0.00    +0.045 C 
ATOM     11  C   UNL     1      -2.934   7.917   2.517  0.00  0.00    -0.029 A 
ATOM     12  C   UNL     1      -3.621   8.660   3.457  0.00  0.00    +0.007 A 
ATOM     13  C   UNL     1      -4.475   8.034   4.346  0.00  0.00    +0.033 A 
ATOM     14  C   UNL     1      -4.645   6.662   4.298  0.00  0.00    +0.128 A 
ATOM     15  C   UNL     1      -3.966   5.914   3.358  0.00  0.00    +0.056 A 
ATOM     16  C   UNL     1      -3.103   6.539   2.466  0.00  0.00    +0.039 A 
BRANCH  14  17
ATOM     17  N   UNL     1      -5.560   5.997   5.252  0.00  0.00    +0.056 N 
ATOM     18  O   UNL     1      -6.163   6.657   6.079  0.00  0.00    -0.126 OA
ATOM     19  O   UNL     1      -5.710   4.789   5.210  0.00  0.00    -0.126 OA
ENDBRANCH  14  17
ENDBRANCH   6  16
ENDBRANCH   2   7
ENDBRANCH   1   4
BRANCH   1  20
ATOM     20  C   UNL     1      -0.065   0.209   0.575  0.00  0.00    -0.020 C 
BRANCH  20  21
ATOM     21  C   UNL     1       0.682  -0.601  -0.453  0.00  0.00    -0.059 A 
ATOM     22  C   UNL     1       2.054  -0.474  -0.572  0.00  0.00    +0.004 A 
ATOM     23  C   UNL     1       2.734  -1.215  -1.514  0.00  0.00    +0.023 A 
ATOM     24  C   UNL     1       2.047  -2.094  -2.353  0.00  0.00    +0.033 A 
ATOM     25  C   UNL     1       0.675  -2.221  -2.227  0.00  0.00    -0.026 A 
ATOM     26  C   UNL     1      -0.002  -1.475  -1.274  0.00  0.00    +0.007 A 
ATOM     27  C   UNL     1      -0.124  -3.161  -3.094  0.00  0.00    +0.038 C 
ATOM     28  C   UNL     1       0.714  -3.586  -4.301  0.00  0.00    +0.024 C 
ATOM     29  C   UNL     1       2.102  -3.996  -3.792  0.00  0.00    +0.105 C 
ATOM     30  N   UNL     1       2.790  -2.803  -3.296  0.00  0.00    -0.333 N 
ATOM     31  C   UNL     1       4.119  -3.143  -2.770  0.00  0.00    +0.129 C 
ENDBRANCH  20  21
BRANCH  20  37
ATOM     32  C   UNL     1      -0.254   0.151   2.987  0.00  0.00    -0.078 C 
ATOM     33  C   UNL     1       0.540  -0.022   4.284  0.00  0.00    -0.019 C 
ATOM     34  C   UNL     1       1.524   1.142   4.433  0.00  0.00    -0.004 C 
ATOM     35  C   UNL     1       2.443   1.183   3.209  0.00  0.00    -0.019 C 
ATOM     36  C   UNL     1       1.594   1.321   1.944  0.00  0.00    -0.078 C 
ATOM     37  N   UNL     1       0.685   0.158   1.846  0.00  0.00    +0.385 N 
ATOM     38  H   UNL     1       1.244  -0.703   1.869  0.00  0.00    -0.081 HD
ENDBRANCH  20  37
ENDBRANCH   1  20
TORSDOF 7
