REMARK  Name = ZINC22975723
REMARK  8 active torsions:
REMARK  status: ('A' for Active; 'I' for Inactive)
REMARK    1  A    between atoms: C_1  and  C_2
REMARK    2  A    between atoms: C_5  and  C_9
REMARK    3  A    between atoms: N_11  and  C_12
REMARK    4  A    between atoms: C_12  and  C_13
REMARK    5  A    between atoms: C_13  and  N_14
REMARK    6  A    between atoms: C_15  and  C_17
REMARK    7  A    between atoms: C_19  and  C_27
REMARK    8  A    between atoms: C_23  and  C_26
REMARK                            x       y       z     vdW  Elec       q    Type
REMARK                         _______ _______ _______ _____ _____    ______ ____
ROOT
ATOM      1  N   UNL     1      -7.498   3.584  -1.118  0.00  0.00    -0.310 N 
ATOM      2  C   UNL     1      -8.602   2.924  -0.715  0.00  0.00    +0.245 C 
ATOM      3  O   UNL     1      -8.546   1.734  -0.478  0.00  0.00    -0.270 OA
ATOM      4  H   UNL     1      -7.549   4.662  -1.333  0.00  0.00    +0.149 HD
ENDROOT
BRANCH   2   5
ATOM      5  C   UNL     1      -9.883   3.650  -0.559  0.00  0.00    +0.053 A 
ATOM      6  C   UNL     1      -9.940   5.035  -0.672  0.00  0.00    +0.042 A 
ATOM      7  C   UNL     1     -11.173   5.680  -0.517  0.00  0.00    +0.082 A 
ATOM      8  N   UNL     1     -12.283   4.997  -0.268  0.00  0.00    -0.209 NA
ATOM      9  C   UNL     1     -12.282   3.679  -0.152  0.00  0.00    +0.260 A 
ATOM     10  C   UNL     1     -11.084   2.957  -0.299  0.00  0.00    +0.076 A 
ATOM     11  C   UNL     1     -11.422   1.546  -0.123  0.00  0.00    +0.091 A 
ATOM     12  N   UNL     1     -12.700   1.478   0.098  0.00  0.00    -0.080 NA
ATOM     13  O   UNL     1     -13.255   2.778   0.093  0.00  0.00    -0.334 OA
ATOM     14  C   UNL     1     -10.464   0.385  -0.187  0.00  0.00    +0.070 C 
BRANCH   7  15
ATOM     15  C   UNL     1     -11.239   7.149  -0.636  0.00  0.00    +0.038 A 
ATOM     16  C   UNL     1     -12.327   7.977  -0.522  0.00  0.00    +0.017 A 
ATOM     17  C   UNL     1     -12.145   9.332  -0.673  0.00  0.00    +0.008 A 
ATOM     18  C   UNL     1     -10.897   9.808  -0.928  0.00  0.00    +0.046 A 
ATOM     19  S   UNL     1      -9.924   8.312  -0.956  0.00  0.00    -0.095 S 
ENDBRANCH   7  15
ENDBRANCH   2   5
BRANCH   1  20
ATOM     20  C   UNL     1      -6.231   2.866  -1.272  0.00  0.00    +0.123 C 
BRANCH  20  21
ATOM     21  C   UNL     1      -5.146   3.839  -1.737  0.00  0.00    +0.123 C 
BRANCH  21  24
ATOM     22  C   UNL     1      -2.775   3.781  -2.294  0.00  0.00    +0.244 C 
ATOM     23  O   UNL     1      -2.831   4.972  -2.531  0.00  0.00    -0.270 OA
ATOM     24  N   UNL     1      -3.878   3.121  -1.891  0.00  0.00    -0.310 N 
ATOM     25  H   UNL     1      -3.828   2.043  -1.676  0.00  0.00    +0.149 HD
BRANCH  22  30
ATOM     26  C   UNL     1       2.203   0.954  -2.897  0.00  0.00    +0.047 C 
ATOM     27  C   UNL     1       0.900   1.695  -2.739  0.00  0.00    -0.015 A 
ATOM     28  C   UNL     1      -0.232   1.016  -2.325  0.00  0.00    +0.007 A 
ATOM     29  C   UNL     1      -1.429   1.687  -2.184  0.00  0.00    +0.013 A 
ATOM     30  C   UNL     1      -1.496   3.056  -2.449  0.00  0.00    +0.039 A 
ATOM     31  C   UNL     1      -0.351   3.736  -2.867  0.00  0.00    +0.051 A 
ATOM     32  C   UNL     1       0.841   3.052  -3.010  0.00  0.00    +0.127 A 
ATOM     33  F   UNL     1       1.951   3.708  -3.414  0.00  0.00    -0.205 F 
ENDBRANCH  22  30
ENDBRANCH  21  24
ENDBRANCH  20  21
ENDBRANCH   1  20
TORSDOF 6
