REMARK  Name = ZINC66679419
REMARK  8 active torsions:
REMARK  status: ('A' for Active; 'I' for Inactive)
REMARK    1  A    between atoms: C_1  and  C_2
REMARK    2  A    between atoms: C_2  and  C_3
REMARK    3  A    between atoms: C_2  and  C_4
REMARK    4  A    between atoms: C_4  and  C_5
REMARK    5  A    between atoms: C_5  and  C_6
REMARK    6  A    between atoms: C_11  and  N_13
REMARK    7  A    between atoms: N_16  and  C_17
REMARK    8  A    between atoms: C_21  and  C_23
REMARK                            x       y       z     vdW  Elec       q    Type
REMARK                         _______ _______ _______ _____ _____    ______ ____
ROOT
ATOM      1  N   UNL     1       4.625   0.910  -1.497  0.00  0.00    -0.296 N 
ATOM      2  C   UNL     1       5.818   1.066  -0.891  0.00  0.00    +0.304 C 
ATOM      3  O   UNL     1       6.714   0.271  -1.100  0.00  0.00    -0.253 OA
ATOM      4  N   UNL     1       6.019   2.103  -0.054  0.00  0.00    -0.269 N 
ATOM      5  H   UNL     1       3.910   1.545  -1.331  0.00  0.00    +0.151 HD
ATOM      6  H   UNL     1       5.329   2.774   0.061  0.00  0.00    +0.156 HD
ENDROOT
BRANCH   4   7
ATOM      7  C   UNL     1       7.224   2.211   0.649  0.00  0.00    +0.035 A 
ATOM      8  C   UNL     1       8.414   1.806   0.056  0.00  0.00    +0.023 A 
ATOM      9  C   UNL     1       9.606   1.911   0.748  0.00  0.00    +0.002 A 
ATOM     10  C   UNL     1       9.621   2.419   2.032  0.00  0.00    +0.010 A 
ATOM     11  C   UNL     1       8.433   2.827   2.635  0.00  0.00    +0.004 A 
ATOM     12  C   UNL     1       7.232   2.727   1.936  0.00  0.00    +0.033 A 
BRANCH  11  13
ATOM     13  C   UNL     1       8.447   3.372   4.014  0.00  0.00    +0.091 A 
ATOM     14  C   UNL     1       9.671   3.482   4.716  0.00  0.00    +0.035 A 
ATOM     15  C   UNL     1       9.646   3.987   5.982  0.00  0.00    +0.073 A 
ATOM     16  C   UNL     1       8.396   4.372   6.516  0.00  0.00    +0.265 A 
ATOM     17  O   UNL     1       8.325   4.830   7.645  0.00  0.00    -0.266 OA
ATOM     18  N   UNL     1       7.284   4.229   5.770  0.00  0.00    -0.243 N 
ATOM     19  H   UNL     1       6.429   4.495   6.143  0.00  0.00    +0.192 HD
ATOM     20  N   UNL     1       7.326   3.756   4.578  0.00  0.00    -0.171 NA
ENDBRANCH  11  13
ENDBRANCH   4   7
BRANCH   1  25
ATOM     21  C   UNL     1       2.903  -0.557  -2.476  0.00  0.00    +0.009 C 
ATOM     22  C   UNL     1       2.397   0.199  -3.730  0.00  0.00    +0.005 C 
ATOM     23  C   UNL     1       3.576   0.045  -4.721  0.00  0.00    +0.002 C 
ATOM     24  C   UNL     1       4.834   0.169  -3.836  0.00  0.00    +0.022 C 
ATOM     25  C   UNL     1       4.406  -0.217  -2.407  0.00  0.00    +0.078 C 
BRANCH  21  26
ATOM     26  C   UNL     1       2.183  -0.057  -1.222  0.00  0.00    +0.005 C 
BRANCH  26  27
ATOM     27  C   UNL     1       0.712  -0.475  -1.278  0.00  0.00    +0.003 C 
BRANCH  27  29
ATOM     28  C   UNL     1      -0.022   1.555  -0.019  0.00  0.00    +0.007 C 
ATOM     29  C   UNL     1      -0.008   0.025  -0.024  0.00  0.00    -0.017 C 
ATOM     30  C   UNL     1      -1.446  -0.498  -0.020  0.00  0.00    +0.007 C 
ENDBRANCH  27  29
ENDBRANCH  26  27
ENDBRANCH  21  26
ENDBRANCH   1  25
TORSDOF 6
