REMARK  Name = ZINC34703574
REMARK  15 active torsions:
REMARK  status: ('A' for Active; 'I' for Inactive)
REMARK    1  A    between atoms: C_1  and  C_2
REMARK    2  A    between atoms: C_2  and  C_4
REMARK    3  A    between atoms: C_2  and  C_36
REMARK    4  A    between atoms: C_4  and  C_5
REMARK    5  A    between atoms: N_7  and  C_8
REMARK    6  A    between atoms: N_7  and  C_14
REMARK    7  A    between atoms: C_8  and  C_9
REMARK    8  A    between atoms: C_14  and  C_15
REMARK    9  A    between atoms: N_17  and  C_18
REMARK   10  A    between atoms: C_20  and  C_30
REMARK   11  A    between atoms: N_22  and  C_23
REMARK   12  A    between atoms: C_36  and  C_37
REMARK   13  A    between atoms: C_37  and  C_38
REMARK   14  A    between atoms: C_37  and  C_39
REMARK   15  A    between atoms: C_37  and  C_40
REMARK                            x       y       z     vdW  Elec       q    Type
REMARK                         _______ _______ _______ _____ _____    ______ ____
ROOT
ATOM      1  C   UNL     1       1.745  -1.662   4.965  0.00  0.00    +0.236 C 
ATOM      2  O   UNL     1       1.280  -2.575   4.315  0.00  0.00    -0.274 OA
ATOM      3  N   UNL     1       1.477  -1.567   6.282  0.00  0.00    -0.269 N 
ATOM      4  H   UNL     1       1.849  -0.838   6.801  0.00  0.00    +0.156 HD
ENDROOT
BRANCH   3   5
ATOM      5  C   UNL     1       0.664  -2.518   6.899  0.00  0.00    +0.129 A 
ATOM      6  C   UNL     1       0.085  -3.590   6.296  0.00  0.00    +0.074 A 
ATOM      7  C   UNL     1      -0.647  -4.289   7.273  0.00  0.00    +0.095 A 
ATOM      8  N   UNL     1      -0.511  -3.658   8.420  0.00  0.00    -0.165 NA
ATOM      9  N   UNL     1       0.314  -2.544   8.214  0.00  0.00    -0.218 N 
BRANCH   9  10
ATOM     10  C   UNL     1       0.706  -1.617   9.190  0.00  0.00    +0.068 A 
ATOM     11  C   UNL     1       1.968  -1.041   9.133  0.00  0.00    +0.030 A 
ATOM     12  C   UNL     1       2.353  -0.128  10.095  0.00  0.00    +0.040 A 
ATOM     13  C   UNL     1       1.481   0.213  11.116  0.00  0.00    +0.124 A 
ATOM     14  C   UNL     1       0.222  -0.361  11.174  0.00  0.00    +0.040 A 
ATOM     15  C   UNL     1      -0.169  -1.270  10.210  0.00  0.00    +0.030 A 
ATOM     16  F   UNL     1       1.859   1.106  12.056  0.00  0.00    -0.205 F 
ENDBRANCH   9  10
BRANCH   7  17
ATOM     17  C   UNL     1      -1.438  -5.525   7.049  0.00  0.00    +0.002 A 
ATOM     18  C   UNL     1      -1.495  -6.098   5.780  0.00  0.00    +0.010 A 
ATOM     19  C   UNL     1      -2.231  -7.248   5.578  0.00  0.00    +0.001 A 
ATOM     20  C   UNL     1      -2.911  -7.831   6.632  0.00  0.00    +0.000 A 
ATOM     21  C   UNL     1      -2.858  -7.267   7.894  0.00  0.00    +0.001 A 
ATOM     22  C   UNL     1      -2.120  -6.120   8.109  0.00  0.00    +0.010 A 
ENDBRANCH   7  17
ENDBRANCH   3   5
BRANCH   1  23
ATOM     23  C   UNL     1       2.623  -0.635   4.298  0.00  0.00    +0.204 C 
BRANCH  23  26
ATOM     24  C   UNL     1       1.883  -0.458   1.984  0.00  0.00    +0.217 C 
ATOM     25  O   UNL     1       0.980   0.260   2.358  0.00  0.00    -0.276 OA
ATOM     26  N   UNL     1       2.761  -0.958   2.876  0.00  0.00    -0.285 N 
BRANCH  24  27
ATOM     27  C   UNL     1       2.025  -0.790   0.520  0.00  0.00    +0.099 C 
BRANCH  27  29
ATOM     28  C   UNL     1       1.086   1.417  -0.180  0.00  0.00    +0.008 C 
ATOM     29  C   UNL     1       0.910  -0.100  -0.269  0.00  0.00    -0.005 C 
BRANCH  29  30
ATOM     30  C   UNL     1       0.978  -0.536  -1.734  0.00  0.00    +0.010 C 
BRANCH  30  31
ATOM     31  C   UNL     1      -0.239   0.006  -2.485  0.00  0.00    -0.037 C 
ATOM     32  C   UNL     1      -0.159   1.533  -2.551  0.00  0.00    +0.010 C 
ATOM     33  C   UNL     1      -0.260  -0.565  -3.904  0.00  0.00    +0.010 C 
ATOM     34  C   UNL     1      -1.517  -0.406  -1.750  0.00  0.00    +0.010 C 
ENDBRANCH  30  31
ENDBRANCH  29  30
ENDBRANCH  27  29
ENDBRANCH  24  27
BRANCH  26  35
ATOM     35  C   UNL     1       3.852  -1.825   2.424  0.00  0.00    +0.182 C 
BRANCH  35  36
ATOM     36  C   UNL     1       5.057  -0.984   2.090  0.00  0.00    +0.122 A 
ATOM     37  C   UNL     1       6.039  -0.644   2.944  0.00  0.00    +0.046 A 
ATOM     38  C   UNL     1       6.960   0.144   2.216  0.00  0.00    +0.041 A 
ATOM     39  C   UNL     1       6.484   0.239   0.961  0.00  0.00    +0.195 A 
ATOM     40  O   UNL     1       5.334  -0.451   0.889  0.00  0.00    -0.466 OA
ENDBRANCH  35  36
ENDBRANCH  26  35
ENDBRANCH  23  26
ENDBRANCH   1  23
TORSDOF 11
