REMARK  Name = ZINC41513717
REMARK  12 active torsions:
REMARK  status: ('A' for Active; 'I' for Inactive)
REMARK    1  A    between atoms: C_1  and  C_2
REMARK    2  A    between atoms: C_2  and  C_3
REMARK    3  A    between atoms: C_2  and  C_4
REMARK    4  A    between atoms: C_4  and  N_5
REMARK    5  A    between atoms: N_5  and  C_6
REMARK    6  A    between atoms: N_5  and  C_30
REMARK    7  A    between atoms: C_6  and  C_7
REMARK    8  A    between atoms: C_8  and  O_29
REMARK    9  A    between atoms: C_15  and  C_16
REMARK   10  A    between atoms: C_30  and  C_31
REMARK   11  A    between atoms: C_31  and  C_32
REMARK   12  A    between atoms: C_31  and  C_33
REMARK                            x       y       z     vdW  Elec       q    Type
REMARK                         _______ _______ _______ _____ _____    ______ ____
ROOT
ATOM      1  C   UNL     1      -4.513  -2.536  -1.115  0.00  0.00    +0.020 A 
ATOM      2  C   UNL     1      -4.965  -2.498  -2.424  0.00  0.00    +0.122 A 
ATOM      3  C   UNL     1      -5.611  -3.597  -2.982  0.00  0.00    +0.046 A 
ATOM      4  C   UNL     1      -5.806  -4.728  -2.241  0.00  0.00    +0.019 A 
ATOM      5  C   UNL     1      -5.357  -4.781  -0.921  0.00  0.00    +0.068 A 
ATOM      6  C   UNL     1      -4.699  -3.680  -0.349  0.00  0.00    +0.144 A 
ATOM      7  O   UNL     1      -4.354  -3.968   0.925  0.00  0.00    -0.451 OA
ATOM      8  C   UNL     1      -4.732  -5.219   1.279  0.00  0.00    +0.176 C 
ATOM      9  C   UNL     1      -4.533  -5.806   2.487  0.00  0.00    +0.061 C 
ATOM     10  C   UNL     1      -5.408  -5.822   0.121  0.00  0.00    +0.231 C 
ATOM     11  O   UNL     1      -5.892  -6.938   0.037  0.00  0.00    -0.283 OA
ENDROOT
BRANCH   9  12
ATOM     12  C   UNL     1      -4.848  -7.227   2.673  0.00  0.00    +0.022 A 
ATOM     13  C   UNL     1      -4.506  -8.159   1.686  0.00  0.00    +0.027 A 
ATOM     14  C   UNL     1      -4.807  -9.492   1.868  0.00  0.00    +0.019 A 
ATOM     15  C   UNL     1      -5.447  -9.912   3.023  0.00  0.00    +0.024 A 
ATOM     16  C   UNL     1      -5.791  -9.003   4.006  0.00  0.00    +0.022 A 
ATOM     17  C   UNL     1      -5.489  -7.661   3.845  0.00  0.00    +0.136 A 
ATOM     18  O   UNL     1      -5.808  -6.760   4.809  0.00  0.00    -0.465 OA
ATOM     19  C   UNL     1      -6.760  -7.174   5.793  0.00  0.00    +0.395 C 
ATOM     20  O   UNL     1      -6.391  -8.475   6.268  0.00  0.00    -0.339 OA
ATOM     21  C   UNL     1      -6.492  -9.483   5.253  0.00  0.00    +0.202 C 
ATOM     22 BR   UNL     1      -4.344 -10.752   0.536  0.00  0.00    -0.050 Br
ENDBRANCH   9  12
BRANCH   2  23
ATOM     23  O   UNL     1      -4.777  -1.378  -3.168  0.00  0.00    -0.506 OA
ATOM     24  H   UNL     1      -3.945  -1.369  -3.662  0.00  0.00    +0.292 HD
ENDBRANCH   2  23
BRANCH   1  25
ATOM     25  C   UNL     1      -3.815  -1.338  -0.523  0.00  0.00    -0.036 C 
BRANCH  25  26
ATOM     26  N   UNL     1      -2.371  -1.442  -0.772  0.00  0.00    +0.383 N 
ATOM     27  H   UNL     1      -2.033  -2.329  -0.431  0.00  0.00    -0.081 HD
BRANCH  26  28
ATOM     28  C   UNL     1      -1.675  -0.352  -0.074  0.00  0.00    -0.075 C 
BRANCH  28  30
ATOM     29  C   UNL     1      -0.553   0.312   2.057  0.00  0.00    +0.005 C 
ATOM     30  C   UNL     1      -1.366  -0.781   1.361  0.00  0.00    -0.034 C 
ATOM     31  C   UNL     1      -2.676  -1.004   2.120  0.00  0.00    +0.005 C 
ENDBRANCH  28  30
ENDBRANCH  26  28
BRANCH  26  32
ATOM     32  C   UNL     1      -2.114  -1.342  -2.215  0.00  0.00    -0.075 C 
BRANCH  32  33
ATOM     33  C   UNL     1      -0.633  -1.610  -2.489  0.00  0.00    -0.034 C 
ATOM     34  C   UNL     1      -0.298  -3.055  -2.115  0.00  0.00    +0.005 C 
ATOM     35  C   UNL     1      -0.340  -1.387  -3.974  0.00  0.00    +0.005 C 
ENDBRANCH  32  33
ENDBRANCH  26  32
ENDBRANCH  25  26
ENDBRANCH   1  25
TORSDOF 8
