REMARK  Name = ZINC36659654
REMARK  9 active torsions:
REMARK  status: ('A' for Active; 'I' for Inactive)
REMARK    1  A    between atoms: C_1  and  C_2
REMARK    2  A    between atoms: C_2  and  S_3
REMARK    3  A    between atoms: S_3  and  C_4
REMARK    4  A    between atoms: C_7  and  C_10
REMARK    5  A    between atoms: C_10  and  C_11
REMARK    6  A    between atoms: C_17  and  C_19
REMARK    7  A    between atoms: C_22  and  S_25
REMARK    8  A    between atoms: S_25  and  N_28
REMARK    9  A    between atoms: C_32  and  C_35
REMARK                            x       y       z     vdW  Elec       q    Type
REMARK                         _______ _______ _______ _____ _____    ______ ____
ROOT
ATOM      1  C   UNL     1      -0.981  -7.140   1.394  0.00  0.00    +0.223 A 
ATOM      2  N   UNL     1      -1.993  -7.519   2.119  0.00  0.00    -0.111 NA
ATOM      3  N   UNL     1      -1.575  -7.892   3.278  0.00  0.00    -0.092 NA
ATOM      4  C   UNL     1      -0.273  -7.763   3.331  0.00  0.00    +0.314 A 
ATOM      5  O   UNL     1       0.131  -7.290   2.138  0.00  0.00    -0.409 OA
ATOM      6  N   UNL     1       0.539  -8.063   4.414  0.00  0.00    -0.234 N 
ATOM      7  C   UNL     1      -0.004  -8.538   5.552  0.00  0.00    +0.252 C 
ATOM      8  O   UNL     1      -1.206  -8.703   5.630  0.00  0.00    -0.270 OA
ATOM      9  H   UNL     1       1.498  -7.931   4.352  0.00  0.00    +0.160 HD
ENDROOT
BRANCH   7  10
ATOM     10  C   UNL     1       0.861  -8.858   6.707  0.00  0.00    +0.037 A 
ATOM     11  C   UNL     1       2.241  -8.664   6.623  0.00  0.00    +0.015 A 
ATOM     12  C   UNL     1       3.044  -8.964   7.705  0.00  0.00    +0.029 A 
ATOM     13  C   UNL     1       2.483  -9.458   8.870  0.00  0.00    +0.106 A 
ATOM     14  C   UNL     1       1.117  -9.652   8.959  0.00  0.00    +0.029 A 
ATOM     15  C   UNL     1       0.302  -9.350   7.887  0.00  0.00    +0.015 A 
BRANCH  13  16
ATOM     16  S   UNL     1       3.516  -9.840  10.245  0.00  0.00    +0.061 S 
ATOM     17  O   UNL     1       2.814 -10.799  11.025  0.00  0.00    -0.153 OA
ATOM     18  O   UNL     1       4.814 -10.086   9.723  0.00  0.00    -0.153 OA
BRANCH  16  19
ATOM     19  N   UNL     1       3.628  -8.470  11.169  0.00  0.00    -0.176 NA
ATOM     20  C   UNL     1       4.690  -7.486  10.922  0.00  0.00    +0.109 C 
ATOM     21  C   UNL     1       5.442  -7.232  12.232  0.00  0.00    +0.017 C 
ATOM     22  C   UNL     1       4.444  -6.820  13.316  0.00  0.00    +0.006 C 
ATOM     23  C   UNL     1       3.442  -7.954  13.546  0.00  0.00    +0.002 C 
ATOM     24  C   UNL     1       2.664  -8.213  12.247  0.00  0.00    +0.112 C 
ATOM     25  C   UNL     1       2.465  -7.554  14.654  0.00  0.00    +0.009 C 
ENDBRANCH  16  19
ENDBRANCH  13  16
ENDBRANCH   7  10
BRANCH   1  26
ATOM     26  C   UNL     1      -1.043  -6.632  -0.024  0.00  0.00    +0.132 C 
BRANCH  26  30
ATOM     27  C   UNL     1      -1.508  -2.383   0.004  0.00  0.00    +0.008 A 
ATOM     28  C   UNL     1      -0.237  -2.945  -0.006  0.00  0.00    +0.015 A 
ATOM     29  C   UNL     1      -0.090  -4.318  -0.015  0.00  0.00    +0.005 A 
ATOM     30  C   UNL     1      -1.207  -5.134  -0.014  0.00  0.00    -0.038 A 
ATOM     31  C   UNL     1      -2.474  -4.579  -0.005  0.00  0.00    +0.005 A 
ATOM     32  C   UNL     1      -2.628  -3.207   0.010  0.00  0.00    +0.015 A 
BRANCH  27  33
ATOM     33  S   UNL     1      -1.700  -0.632   0.015  0.00  0.00    -0.125 S 
BRANCH  33  35
ATOM     34  C   UNL     1      -0.019   1.526   0.010  0.00  0.00    +0.015 C 
ATOM     35  C   UNL     1       0.002  -0.004   0.002  0.00  0.00    +0.071 C 
ENDBRANCH  33  35
ENDBRANCH  27  33
ENDBRANCH  26  30
ENDBRANCH   1  26
TORSDOF 7
