REMARK  Name = ZINC66574344
REMARK  9 active torsions:
REMARK  status: ('A' for Active; 'I' for Inactive)
REMARK    1  A    between atoms: C_1  and  C_2
REMARK    2  A    between atoms: C_2  and  C_3
REMARK    3  A    between atoms: C_2  and  C_4
REMARK    4  A    between atoms: C_4  and  C_5
REMARK    5  A    between atoms: C_5  and  C_6
REMARK    6  A    between atoms: N_8  and  N_9
REMARK    7  A    between atoms: C_10  and  C_12
REMARK    8  A    between atoms: C_14  and  N_24
REMARK    9  A    between atoms: C_17  and  N_18
REMARK                            x       y       z     vdW  Elec       q    Type
REMARK                         _______ _______ _______ _____ _____    ______ ____
ROOT
ATOM      1  C   UNL     1      -5.989  -6.222  -0.303  0.00  0.00    +0.061 A 
ATOM      2  C   UNL     1      -7.064  -5.337  -0.189  0.00  0.00    +0.047 A 
ATOM      3  C   UNL     1      -8.354  -5.820  -0.180  0.00  0.00    +0.127 A 
ATOM      4  C   UNL     1      -8.592  -7.181  -0.283  0.00  0.00    +0.034 A 
ATOM      5  C   UNL     1      -7.542  -8.068  -0.396  0.00  0.00    +0.026 A 
ATOM      6  C   UNL     1      -6.234  -7.599  -0.414  0.00  0.00    +0.042 A 
ENDROOT
BRANCH   6   7
ATOM      7  N   UNL     1      -5.175  -8.489  -0.535  0.00  0.00    -0.329 N 
ATOM      8  C   UNL     1      -4.557  -9.084   0.658  0.00  0.00    +0.105 C 
ATOM      9  C   UNL     1      -4.555 -10.608   0.505  0.00  0.00    +0.019 C 
ATOM     10  C   UNL     1      -3.870 -10.983  -0.811  0.00  0.00    +0.003 C 
ATOM     11  C   UNL     1      -4.648 -10.381  -1.983  0.00  0.00    +0.019 C 
ATOM     12  C   UNL     1      -4.655  -8.859  -1.858  0.00  0.00    +0.105 C 
ENDBRANCH   6   7
BRANCH   1  14
ATOM     13  N   UNL     1      -4.375  -4.388  -0.207  0.00  0.00    -0.230 N 
ATOM     14  C   UNL     1      -4.605  -5.711  -0.314  0.00  0.00    +0.262 C 
ATOM     15  O   UNL     1      -3.673  -6.485  -0.419  0.00  0.00    -0.269 OA
ATOM     16  H   UNL     1      -5.119  -3.771  -0.124  0.00  0.00    +0.173 HD
BRANCH  13  19
ATOM     17  C   UNL     1      -2.829  -2.579  -0.111  0.00  0.00    +0.229 C 
ATOM     18  O   UNL     1      -3.760  -1.808  -0.006  0.00  0.00    -0.274 OA
ATOM     19  N   UNL     1      -3.060  -3.903  -0.217  0.00  0.00    -0.234 N 
ATOM     20  H   UNL     1      -2.316  -4.520  -0.301  0.00  0.00    +0.173 HD
BRANCH  17  21
ATOM     21  C   UNL     1      -1.416  -2.058  -0.121  0.00  0.00    +0.097 C 
BRANCH  21  22
ATOM     22  C   UNL     1      -1.433  -0.534   0.013  0.00  0.00    +0.012 C 
BRANCH  22  24
ATOM     23  C   UNL     1      -0.019   1.526   0.010  0.00  0.00    +0.007 C 
ATOM     24  C   UNL     1       0.002  -0.004   0.002  0.00  0.00    -0.017 C 
ATOM     25  C   UNL     1       0.742  -0.511   1.242  0.00  0.00    +0.007 C 
ENDBRANCH  22  24
ENDBRANCH  21  22
ENDBRANCH  17  21
ENDBRANCH  13  19
ENDBRANCH   1  14
BRANCH   3  26
ATOM     26  N   UNL     1      -9.491  -4.880  -0.058  0.00  0.00    +0.056 N 
ATOM     27  O   UNL     1      -9.286  -3.692   0.033  0.00  0.00    -0.126 OA
ATOM     28  O   UNL     1     -10.624  -5.300  -0.050  0.00  0.00    -0.126 OA
ENDBRANCH   3  26
TORSDOF 7
