REMARK  Name = ZINC59737831
REMARK  7 active torsions:
REMARK  status: ('A' for Active; 'I' for Inactive)
REMARK    1  A    between atoms: C_1  and  C_2
REMARK    2  A    between atoms: C_2  and  C_25
REMARK    3  A    between atoms: N_5  and  C_9
REMARK    4  A    between atoms: C_9  and  C_10
REMARK    5  A    between atoms: C_14  and  C_16
REMARK    6  A    between atoms: N_18  and  C_19
REMARK    7  A    between atoms: C_19  and  C_20
REMARK                            x       y       z     vdW  Elec       q    Type
REMARK                         _______ _______ _______ _____ _____    ______ ____
ROOT
ATOM      1  C   UNL     1      -2.569  -1.986   1.805  0.00  0.00    +0.153 C 
ENDROOT
BRANCH   1   6
ATOM      2  C   UNL     1      -0.019   1.526   0.010  0.00  0.00    +0.047 C 
ATOM      3  C   UNL     1       0.002  -0.004   0.002  0.00  0.00    +0.135 C 
ATOM      4  C   UNL     1      -1.403  -0.557   0.139  0.00  0.00    +0.251 C 
ATOM      5  O   UNL     1      -2.332  -0.392  -0.621  0.00  0.00    -0.272 OA
ATOM      6  N   UNL     1      -1.403  -1.272   1.282  0.00  0.00    -0.220 N 
ATOM      7  C   UNL     1      -0.206  -1.247   1.879  0.00  0.00    +0.310 C 
ATOM      8  O   UNL     1       0.040  -1.819   2.924  0.00  0.00    -0.252 OA
ATOM      9  N   UNL     1       0.695  -0.520   1.195  0.00  0.00    -0.281 N 
ATOM     10  H   UNL     1       1.621  -0.365   1.440  0.00  0.00    +0.152 HD
BRANCH   3  11
ATOM     11  C   UNL     1       0.657  -0.517  -1.255  0.00  0.00    -0.015 A 
ATOM     12  C   UNL     1      -0.108  -0.772  -2.378  0.00  0.00    +0.007 A 
ATOM     13  C   UNL     1       0.492  -1.242  -3.530  0.00  0.00    +0.020 A 
ATOM     14  C   UNL     1       1.859  -1.458  -3.560  0.00  0.00    +0.041 A 
ATOM     15  C   UNL     1       2.623  -1.203  -2.436  0.00  0.00    +0.020 A 
ATOM     16  C   UNL     1       2.023  -0.727  -1.286  0.00  0.00    +0.007 A 
ATOM     17 CL   UNL     1       2.613  -2.049  -5.008  0.00  0.00    -0.084 Cl
ENDBRANCH   3  11
ENDBRANCH   1   6
BRANCH   1  18
ATOM     18  C   UNL     1      -2.585  -3.391   1.260  0.00  0.00    -0.029 A 
ATOM     19  C   UNL     1      -3.235  -3.662   0.069  0.00  0.00    +0.005 A 
ATOM     20  C   UNL     1      -3.253  -4.949  -0.439  0.00  0.00    +0.001 A 
ATOM     21  C   UNL     1      -2.623  -5.971   0.240  0.00  0.00    +0.013 A 
ATOM     22  C   UNL     1      -1.965  -5.704   1.442  0.00  0.00    +0.037 A 
ATOM     23  C   UNL     1      -1.945  -4.403   1.946  0.00  0.00    +0.018 A 
BRANCH  22  24
ATOM     24  C   UNL     1      -1.287  -6.795   2.175  0.00  0.00    +0.244 C 
ATOM     25  O   UNL     1      -0.715  -6.560   3.221  0.00  0.00    -0.270 OA
ATOM     26  N   UNL     1      -1.304  -8.050   1.683  0.00  0.00    -0.304 N 
ATOM     27  H   UNL     1      -1.760  -8.237   0.848  0.00  0.00    +0.149 HD
BRANCH  26  28
ATOM     28  C   UNL     1      -0.632  -9.130   2.409  0.00  0.00    +0.179 C 
BRANCH  28  29
ATOM     29  C   UNL     1      -0.798 -10.423   1.653  0.00  0.00    +0.122 A 
ATOM     30  C   UNL     1       0.039 -10.897   0.713  0.00  0.00    +0.046 A 
ATOM     31  C   UNL     1      -0.497 -12.129   0.271  0.00  0.00    +0.041 A 
ATOM     32  C   UNL     1      -1.629 -12.333   0.968  0.00  0.00    +0.195 A 
ATOM     33  O   UNL     1      -1.804 -11.300   1.808  0.00  0.00    -0.466 OA
ENDBRANCH  28  29
ENDBRANCH  26  28
ENDBRANCH  22  24
ENDBRANCH   1  18
TORSDOF 6
