REMARK  Name = ZINC64176269
REMARK  10 active torsions:
REMARK  status: ('A' for Active; 'I' for Inactive)
REMARK    1  A    between atoms: C_1  and  C_2
REMARK    2  A    between atoms: C_2  and  C_4
REMARK    3  A    between atoms: C_2  and  N_13
REMARK    4  A    between atoms: C_14  and  C_16
REMARK    5  A    between atoms: C_16  and  C_18
REMARK    6  A    between atoms: C_16  and  N_28
REMARK    7  A    between atoms: C_18  and  C_19
REMARK    8  A    between atoms: C_29  and  O_31
REMARK    9  A    between atoms: O_31  and  C_32
REMARK   10  A    between atoms: C_32  and  C_33
REMARK                            x       y       z     vdW  Elec       q    Type
REMARK                         _______ _______ _______ _____ _____    ______ ____
ROOT
ATOM      1  C   UNL     1       2.916  -1.143   2.444  0.00  0.00    +0.166 C 
ENDROOT
BRANCH   1   3
ATOM      2  N   UNL     1       0.987   0.087   1.504  0.00  0.00    -0.307 N 
ATOM      3  C   UNL     1       2.268  -0.308   1.369  0.00  0.00    +0.234 C 
ATOM      4  O   UNL     1       2.900   0.007   0.383  0.00  0.00    -0.274 OA
ATOM      5  H   UNL     1       0.481  -0.166   2.292  0.00  0.00    +0.149 HD
BRANCH   2   7
ATOM      6  C   UNL     1       0.683   2.374   0.693  0.00  0.00    +0.033 C 
ATOM      7  C   UNL     1       0.357   0.898   0.459  0.00  0.00    +0.100 C 
BRANCH   7   8
ATOM      8  C   UNL     1      -1.136   0.701   0.502  0.00  0.00    -0.024 A 
ATOM      9  C   UNL     1      -1.787   0.622   1.719  0.00  0.00    +0.009 A 
ATOM     10  C   UNL     1      -3.157   0.442   1.763  0.00  0.00    +0.050 A 
ATOM     11  C   UNL     1      -3.881   0.339   0.587  0.00  0.00    +0.166 A 
ATOM     12  C   UNL     1      -3.226   0.418  -0.640  0.00  0.00    +0.167 A 
ATOM     13  C   UNL     1      -1.853   0.604  -0.676  0.00  0.00    +0.055 A 
ATOM     14  O   UNL     1      -4.149   0.289  -1.637  0.00  0.00    -0.453 OA
ATOM     15  C   UNL     1      -5.315  -0.277  -1.011  0.00  0.00    +0.466 C 
ATOM     16  O   UNL     1      -5.215   0.161   0.357  0.00  0.00    -0.453 OA
ENDBRANCH   7   8
ENDBRANCH   2   7
ENDBRANCH   1   3
BRANCH   1  17
ATOM     17  N   UNL     1       4.300  -1.439   2.065  0.00  0.00    -0.270 N 
ATOM     18  C   UNL     1       5.227  -1.660   3.017  0.00  0.00    +0.401 C 
ATOM     19  O   UNL     1       4.916  -1.613   4.191  0.00  0.00    -0.226 OA
ATOM     20  H   UNL     1       4.548  -1.477   1.128  0.00  0.00    +0.153 HD
BRANCH  18  21
ATOM     21  O   UNL     1       6.499  -1.933   2.669  0.00  0.00    -0.446 OA
BRANCH  21  22
ATOM     22  C   UNL     1       7.429  -2.156   3.730  0.00  0.00    +0.269 C 
BRANCH  22  23
ATOM     23  C   UNL     1       8.790  -2.445   3.152  0.00  0.00    -0.010 A 
ATOM     24  C   UNL     1       9.156  -3.745   2.861  0.00  0.00    +0.007 A 
ATOM     25  C   UNL     1      10.405  -4.010   2.331  0.00  0.00    +0.000 A 
ATOM     26  C   UNL     1      11.289  -2.974   2.092  0.00  0.00    +0.000 A 
ATOM     27  C   UNL     1      10.922  -1.673   2.383  0.00  0.00    +0.000 A 
ATOM     28  C   UNL     1       9.672  -1.408   2.909  0.00  0.00    +0.007 A 
ENDBRANCH  22  23
ENDBRANCH  21  22
ENDBRANCH  18  21
ENDBRANCH   1  17
BRANCH   1  29
ATOM     29  C   UNL     1       2.141  -2.451   2.611  0.00  0.00    +0.065 C 
BRANCH  29  30
ATOM     30  C   UNL     1       2.198  -3.236   1.325  0.00  0.00    -0.039 C 
ATOM     31  C   UNL     1       3.082  -4.208   1.004  0.00  0.00    -0.001 A 
ATOM     32  C   UNL     1       4.212  -4.802   1.727  0.00  0.00    +0.010 A 
ATOM     33  C   UNL     1       4.930  -5.782   1.132  0.00  0.00    +0.001 A 
ATOM     34  C   UNL     1       4.622  -6.242  -0.156  0.00  0.00    +0.002 A 
ATOM     35  C   UNL     1       3.598  -5.745  -0.883  0.00  0.00    +0.026 A 
ATOM     36  C   UNL     1       2.777  -4.712  -0.354  0.00  0.00    +0.043 A 
ATOM     37  N   UNL     1       1.744  -4.076  -0.853  0.00  0.00    -0.380 N 
ATOM     38  C   UNL     1       1.274  -3.100   0.136  0.00  0.00    +0.144 C 
ATOM     39  H   UNL     1       1.355  -4.228  -1.728  0.00  0.00    +0.160 HD
ENDBRANCH  29  30
ENDBRANCH   1  29
TORSDOF 9
