REMARK  Name = ZINC63686640
REMARK  9 active torsions:
REMARK  status: ('A' for Active; 'I' for Inactive)
REMARK    1  A    between atoms: C_1  and  C_2
REMARK    2  A    between atoms: C_2  and  N_3
REMARK    3  A    between atoms: C_4  and  C_24
REMARK    4  A    between atoms: C_8  and  S_10
REMARK    5  A    between atoms: S_10  and  C_11
REMARK    6  A    between atoms: C_11  and  C_12
REMARK    7  A    between atoms: C_24  and  O_25
REMARK    8  A    between atoms: O_25  and  C_26
REMARK    9  A    between atoms: C_30  and  C_32
REMARK                            x       y       z     vdW  Elec       q    Type
REMARK                         _______ _______ _______ _____ _____    ______ ____
ROOT
ATOM      1  N   UNL     1       0.690  -0.478  -1.207  0.00  0.00    -0.259 NA
ATOM      2  C   UNL     1       0.896  -1.940  -1.159  0.00  0.00    +0.178 C 
ATOM      3  N   UNL     1       0.203  -2.502  -2.341  0.00  0.00    -0.234 NA
ATOM      4  N   UNL     1       0.135  -1.383  -3.294  0.00  0.00    -0.229 NA
ATOM      5  C   UNL     1      -0.120  -0.210  -2.417  0.00  0.00    +0.200 C 
ATOM      6  H   UNL     1      -0.721  -2.826  -2.097  0.00  0.00    +0.142 HD
ATOM      7  H   UNL     1      -0.618  -1.514  -3.952  0.00  0.00    +0.143 HD
ENDROOT
BRANCH   1   9
ATOM      8  C   UNL     1      -0.019   1.526   0.010  0.00  0.00    +0.020 C 
ATOM      9  C   UNL     1       0.002  -0.004   0.002  0.00  0.00    +0.085 C 
ENDBRANCH   1   9
BRANCH   5  10
ATOM     10  S   UNL     1       0.430   1.318  -3.225  0.00  0.00    -0.119 S 
BRANCH  10  11
ATOM     11  C   UNL     1       2.167   0.995  -3.638  0.00  0.00    +0.125 C 
BRANCH  11  12
ATOM     12  C   UNL     1       2.753   2.202  -4.323  0.00  0.00    +0.030 A 
ATOM     13  N   UNL     1       2.412   2.449  -5.611  0.00  0.00    -0.355 N 
ATOM     14  C   UNL     1       2.913   3.536  -6.294  0.00  0.00    +0.086 A 
ATOM     15  C   UNL     1       3.800   4.413  -5.647  0.00  0.00    +0.048 A 
ATOM     16  C   UNL     1       4.314   5.516  -6.328  0.00  0.00    +0.014 A 
ATOM     17  C   UNL     1       3.953   5.739  -7.628  0.00  0.00    +0.004 A 
ATOM     18  C   UNL     1       3.078   4.878  -8.274  0.00  0.00    +0.040 A 
ATOM     19  C   UNL     1       2.557   3.781  -7.619  0.00  0.00    +0.147 A 
ATOM     20  F   UNL     1       1.706   2.949  -8.258  0.00  0.00    -0.203 F 
ATOM     21  C   UNL     1       4.164   4.136  -4.246  0.00  0.00    +0.190 A 
ATOM     22  O   UNL     1       4.929   4.865  -3.637  0.00  0.00    -0.287 OA
ATOM     23  C   UNL     1       3.594   2.998  -3.630  0.00  0.00    +0.073 A 
ATOM     24  H   UNL     1       1.801   1.847  -6.062  0.00  0.00    +0.166 HD
ENDBRANCH  11  12
ENDBRANCH  10  11
ENDBRANCH   5  10
BRANCH   2  25
ATOM     25  C   UNL     1       2.391  -2.261  -1.226  0.00  0.00    +0.265 C 
BRANCH  25  26
ATOM     26  O   UNL     1       2.934  -1.749  -2.444  0.00  0.00    -0.489 OA
BRANCH  26  27
ATOM     27  C   UNL     1       4.261  -1.951  -2.661  0.00  0.00    +0.121 A 
ATOM     28  C   UNL     1       5.022  -2.632  -1.722  0.00  0.00    +0.047 A 
ATOM     29  C   UNL     1       6.370  -2.836  -1.944  0.00  0.00    +0.024 A 
ATOM     30  C   UNL     1       6.962  -2.361  -3.102  0.00  0.00    +0.044 A 
ATOM     31  C   UNL     1       6.204  -1.680  -4.038  0.00  0.00    -0.029 A 
ATOM     32  C   UNL     1       4.854  -1.480  -3.823  0.00  0.00    +0.050 A 
ATOM     33  C   UNL     1       6.851  -1.163  -5.297  0.00  0.00    +0.045 C 
ATOM     34 CL   UNL     1       8.656  -2.618  -3.378  0.00  0.00    -0.083 Cl
ENDBRANCH  26  27
ENDBRANCH  25  26
ENDBRANCH   2  25
TORSDOF 7
