REMARK  Name = ZINC35883295
REMARK  7 active torsions:
REMARK  status: ('A' for Active; 'I' for Inactive)
REMARK    1  A    between atoms: C_1  and  C_2
REMARK    2  A    between atoms: C_2  and  C_3
REMARK    3  A    between atoms: N_7  and  C_27
REMARK    4  A    between atoms: C_11  and  N_16
REMARK    5  A    between atoms: C_17  and  C_19
REMARK    6  A    between atoms: C_19  and  C_20
REMARK    7  A    between atoms: C_27  and  C_28
REMARK                            x       y       z     vdW  Elec       q    Type
REMARK                         _______ _______ _______ _____ _____    ______ ____
ROOT
ATOM      1  C   UNL     1      -1.412  -0.511   0.013  0.00  0.00    +0.258 C 
ATOM      2  C   UNL     1      -1.390  -2.003   0.146  0.00  0.00    +0.257 C 
ATOM      3  O   UNL     1      -1.680  -2.395   1.257  0.00  0.00    -0.272 OA
ATOM      4  N   UNL     1      -1.129  -2.940  -0.671  0.00  0.00    -0.290 N 
ATOM      5  C   UNL     1      -0.985  -2.981  -2.088  0.00  0.00    +0.147 C 
ATOM      6  C   UNL     1      -1.222  -1.732  -2.879  0.00  0.00    +0.013 A 
ATOM      7  C   UNL     1      -0.979  -1.901  -4.252  0.00  0.00    +0.032 A 
ATOM      8  C   UNL     1      -1.090  -0.849  -5.137  0.00  0.00    +0.034 A 
ATOM      9  C   UNL     1      -1.441   0.403  -4.648  0.00  0.00    +0.027 A 
ATOM     10  C   UNL     1      -1.696   0.554  -3.311  0.00  0.00    +0.048 A 
ATOM     11  C   UNL     1      -1.617  -0.534  -2.408  0.00  0.00    +0.126 A 
ATOM     12  O   UNL     1      -2.062  -0.128  -1.182  0.00  0.00    -0.479 OA
ENDROOT
BRANCH   8  13
ATOM     13  N   UNL     1      -0.854  -1.040  -6.505  0.00  0.00    -0.285 N 
ATOM     14  C   UNL     1      -1.571  -0.352  -7.415  0.00  0.00    +0.222 C 
ATOM     15  O   UNL     1      -2.361   0.494  -7.052  0.00  0.00    -0.275 OA
ATOM     16  H   UNL     1      -0.173  -1.667  -6.797  0.00  0.00    +0.155 HD
BRANCH  14  17
ATOM     17  C   UNL     1      -1.391  -0.633  -8.885  0.00  0.00    +0.131 C 
BRANCH  17  18
ATOM     18  C   UNL     1      -2.302   0.264  -9.683  0.00  0.00    -0.038 A 
ATOM     19  C   UNL     1      -3.584  -0.152  -9.990  0.00  0.00    +0.007 A 
ATOM     20  C   UNL     1      -4.421   0.670 -10.722  0.00  0.00    +0.038 A 
ATOM     21  C   UNL     1      -3.975   1.910 -11.146  0.00  0.00    +0.123 A 
ATOM     22  C   UNL     1      -2.691   2.325 -10.838  0.00  0.00    +0.038 A 
ATOM     23  C   UNL     1      -1.857   1.504 -10.102  0.00  0.00    +0.007 A 
ATOM     24  F   UNL     1      -4.792   2.713 -11.862  0.00  0.00    -0.205 F 
ENDBRANCH  17  18
ENDBRANCH  14  17
ENDBRANCH   8  13
BRANCH   1  26
ATOM     25  C   UNL     1       0.008   1.545  -0.001  0.00  0.00    +0.008 C 
ATOM     26  C   UNL     1       0.025   0.015  -0.004  0.00  0.00    +0.051 C 
ENDBRANCH   1  26
BRANCH   4  27
ATOM     27  C   UNL     1      -0.939  -4.242  -0.026  0.00  0.00    +0.143 C 
BRANCH  27  28
ATOM     28  C   UNL     1      -2.261  -4.958   0.061  0.00  0.00    -0.026 A 
ATOM     29  C   UNL     1      -3.070  -4.780   1.169  0.00  0.00    +0.009 A 
ATOM     30  C   UNL     1      -4.285  -5.435   1.254  0.00  0.00    +0.050 A 
ATOM     31  C   UNL     1      -4.695  -6.271   0.228  0.00  0.00    +0.166 A 
ATOM     32  C   UNL     1      -3.880  -6.450  -0.888  0.00  0.00    +0.167 A 
ATOM     33  C   UNL     1      -2.667  -5.786  -0.969  0.00  0.00    +0.054 A 
ATOM     34  O   UNL     1      -4.500  -7.311  -1.747  0.00  0.00    -0.453 OA
ATOM     35  C   UNL     1      -5.511  -7.974  -0.964  0.00  0.00    +0.466 C 
ATOM     36  O   UNL     1      -5.825  -7.020   0.068  0.00  0.00    -0.453 OA
ENDBRANCH  27  28
ENDBRANCH   4  27
TORSDOF 6
