REMARK  Name = ZINC39672908
REMARK  10 active torsions:
REMARK  status: ('A' for Active; 'I' for Inactive)
REMARK    1  A    between atoms: C_1  and  C_2
REMARK    2  A    between atoms: C_2  and  C_3
REMARK    3  A    between atoms: C_3  and  C_4
REMARK    4  A    between atoms: C_4  and  C_5
REMARK    5  A    between atoms: C_5  and  C_6
REMARK    6  A    between atoms: C_6  and  C_7
REMARK    7  A    between atoms: C_11  and  C_20
REMARK    8  A    between atoms: N_22  and  C_23
REMARK    9  A    between atoms: C_23  and  C_24
REMARK   10  A    between atoms: C_24  and  N_30
REMARK                            x       y       z     vdW  Elec       q    Type
REMARK                         _______ _______ _______ _____ _____    ______ ____
ROOT
ATOM      1  C   UNL     1       2.621  -4.654  -3.685  0.00  0.00    +0.216 C 
ATOM      2  O   UNL     1       3.124  -3.895  -4.487  0.00  0.00    -0.276 OA
ATOM      3  N   UNL     1       2.675  -5.984  -3.891  0.00  0.00    -0.300 N 
ATOM      4  C   UNL     1       2.119  -7.059  -3.037  0.00  0.00    +0.121 C 
ATOM      5  C   UNL     1       1.551  -8.096  -4.032  0.00  0.00    +0.100 C 
ATOM      6  C   UNL     1       2.334  -7.859  -5.334  0.00  0.00    -0.004 C 
ATOM      7  C   UNL     1       3.299  -6.703  -5.028  0.00  0.00    +0.115 C 
ATOM      8  C   UNL     1       1.383  -7.460  -6.458  0.00  0.00    -0.010 C 
ATOM      9  C   UNL     1       2.177  -7.285  -7.755  0.00  0.00    -0.082 C 
ATOM     10  N   UNL     1       2.859  -8.542  -8.087  0.00  0.00    +0.379 N 
ATOM     11  C   UNL     1       3.839  -8.870  -7.045  0.00  0.00    -0.082 C 
ATOM     12  C   UNL     1       3.115  -9.112  -5.718  0.00  0.00    -0.010 C 
ATOM     13  H   UNL     1       2.179  -9.284  -8.153  0.00  0.00    -0.086 HD
ATOM     14  H   UNL     1       3.332  -8.443  -8.973  0.00  0.00    -0.086 HD
ENDROOT
BRANCH   5  15
ATOM     15  C   UNL     1       1.786  -9.495  -3.524  0.00  0.00    +0.218 C 
ATOM     16  O   UNL     1       2.760  -9.738  -2.844  0.00  0.00    -0.275 OA
ATOM     17  N   UNL     1       0.913 -10.477  -3.825  0.00  0.00    -0.313 N 
ATOM     18  H   UNL     1       0.133 -10.283  -4.369  0.00  0.00    +0.149 HD
BRANCH  17  19
ATOM     19  C   UNL     1       1.141 -11.837  -3.331  0.00  0.00    +0.126 C 
BRANCH  19  20
ATOM     20  C   UNL     1       0.081 -12.775  -3.912  0.00  0.00    +0.038 C 
ATOM     21  C   UNL     1       0.238 -14.166  -3.295  0.00  0.00    +0.024 C 
ATOM     22  C   UNL     1       1.632 -14.711  -3.614  0.00  0.00    +0.002 C 
ATOM     23  C   UNL     1       1.809 -14.803  -5.131  0.00  0.00    +0.000 C 
ATOM     24  C   UNL     1       1.653 -13.412  -5.748  0.00  0.00    +0.002 C 
ATOM     25  C   UNL     1       0.259 -12.867  -5.429  0.00  0.00    +0.024 C 
BRANCH  20  26
ATOM     26  N   UNL     1      -1.257 -12.252  -3.607  0.00  0.00    -0.291 NA
ATOM     27  C   UNL     1      -1.443 -12.096  -2.156  0.00  0.00    +0.113 C 
ATOM     28  C   UNL     1      -2.825 -11.495  -1.887  0.00  0.00    +0.175 C 
ATOM     29  O   UNL     1      -3.826 -12.329  -2.475  0.00  0.00    -0.377 OA
ATOM     30  C   UNL     1      -3.675 -12.502  -3.886  0.00  0.00    +0.175 C 
ATOM     31  C   UNL     1      -2.303 -13.114  -4.177  0.00  0.00    +0.113 C 
ENDBRANCH  20  26
ENDBRANCH  19  20
ENDBRANCH  17  19
ENDBRANCH   5  15
BRANCH   1  32
ATOM     32  C   UNL     1       1.937  -4.109  -2.458  0.00  0.00    +0.096 C 
BRANCH  32  33
ATOM     33  C   UNL     1       2.017  -2.581  -2.466  0.00  0.00    +0.009 C 
BRANCH  33  34
ATOM     34  C   UNL     1       1.322  -2.027  -1.220  0.00  0.00    +0.000 C 
BRANCH  34  35
ATOM     35  C   UNL     1       1.403  -0.499  -1.228  0.00  0.00    -0.000 C 
BRANCH  35  37
ATOM     36  C   UNL     1       0.788   1.582   0.010  0.00  0.00    +0.004 C 
ATOM     37  C   UNL     1       0.708   0.054   0.018  0.00  0.00    -0.003 C 
ENDBRANCH  35  37
ENDBRANCH  34  35
ENDBRANCH  33  34
ENDBRANCH  32  33
ENDBRANCH   1  32
TORSDOF 9
