REMARK  Name = ZINC20682201
REMARK  10 active torsions:
REMARK  status: ('A' for Active; 'I' for Inactive)
REMARK    1  A    between atoms: C_1  and  C_2
REMARK    2  A    between atoms: C_5  and  C_38
REMARK    3  A    between atoms: N_8  and  C_10
REMARK    4  A    between atoms: C_10  and  C_11
REMARK    5  A    between atoms: C_11  and  C_12
REMARK    6  A    between atoms: C_12  and  N_13
REMARK    7  A    between atoms: C_14  and  C_16
REMARK    8  A    between atoms: C_25  and  S_28
REMARK    9  A    between atoms: S_28  and  N_31
REMARK   10  A    between atoms: C_34  and  C_37
REMARK                            x       y       z     vdW  Elec       q    Type
REMARK                         _______ _______ _______ _____ _____    ______ ____
ROOT
ATOM      1  C   UNL     1       7.488  -1.932   4.146  0.00  0.00    +0.051 A 
ATOM      2  C   UNL     1       8.419  -2.261   5.089  0.00  0.00    +0.083 A 
ATOM      3  C   UNL     1       9.778  -1.738   4.971  0.00  0.00    +0.250 A 
ATOM      4  O   UNL     1      10.609  -2.032   5.812  0.00  0.00    -0.268 OA
ATOM      5  N   UNL     1      10.126  -0.939   3.947  0.00  0.00    -0.322 N 
ATOM      6  H   UNL     1      11.035  -0.606   3.892  0.00  0.00    +0.169 HD
ATOM      7  C   UNL     1       9.216  -0.583   2.975  0.00  0.00    +0.050 A 
ATOM      8  C   UNL     1       7.895  -1.061   3.033  0.00  0.00    +0.012 A 
ATOM      9  C   UNL     1       6.980  -0.700   2.039  0.00  0.00    +0.039 A 
ATOM     10  C   UNL     1       7.377   0.110   1.012  0.00  0.00    +0.106 A 
ATOM     11  C   UNL     1       8.681   0.579   0.948  0.00  0.00    +0.030 A 
ATOM     12  C   UNL     1       9.596   0.246   1.923  0.00  0.00    +0.028 A 
ENDROOT
BRANCH   1  14
ATOM     13  N   UNL     1       5.712  -3.145   5.324  0.00  0.00    -0.311 N 
ATOM     14  C   UNL     1       6.100  -2.446   4.238  0.00  0.00    +0.245 C 
ATOM     15  O   UNL     1       5.314  -2.238   3.336  0.00  0.00    -0.270 OA
ATOM     16  H   UNL     1       6.358  -3.374   6.010  0.00  0.00    +0.149 HD
BRANCH  13  17
ATOM     17  C   UNL     1       4.313  -3.557   5.467  0.00  0.00    +0.102 C 
BRANCH  17  18
ATOM     18  C   UNL     1       4.141  -4.329   6.776  0.00  0.00    +0.000 C 
BRANCH  18  19
ATOM     19  C   UNL     1       2.680  -4.760   6.926  0.00  0.00    -0.077 C 
BRANCH  19  25
ATOM     20  C   UNL     1       3.995  -8.780   9.391  0.00  0.00    +0.005 C 
ATOM     21  C   UNL     1       3.187  -7.482   9.459  0.00  0.00    -0.031 C 
ATOM     22  C   UNL     1       1.718  -7.809   9.743  0.00  0.00    +0.003 C 
ATOM     23  C   UNL     1       0.905  -6.511   9.731  0.00  0.00    -0.031 C 
ATOM     24  C   UNL     1       1.094  -5.810   8.384  0.00  0.00    -0.076 C 
ATOM     25  N   UNL     1       2.515  -5.501   8.183  0.00  0.00    +0.380 N 
ATOM     26  C   UNL     1       3.292  -6.745   8.122  0.00  0.00    -0.076 C 
ATOM     27  C   UNL     1       1.390  -5.595  10.857  0.00  0.00    +0.005 C 
ATOM     28  H   UNL     1       2.847  -4.936   8.951  0.00  0.00    -0.082 HD
ENDBRANCH  19  25
ENDBRANCH  18  19
ENDBRANCH  17  18
ENDBRANCH  13  17
ENDBRANCH   1  14
BRANCH  10  29
ATOM     29  S   UNL     1       6.222   0.564  -0.239  0.00  0.00    +0.061 S 
ATOM     30  O   UNL     1       6.982   0.893  -1.393  0.00  0.00    -0.153 OA
ATOM     31  O   UNL     1       5.218  -0.442  -0.249  0.00  0.00    -0.153 OA
BRANCH  29  32
ATOM     32  N   UNL     1       5.486   1.962   0.257  0.00  0.00    -0.177 NA
ATOM     33  C   UNL     1       4.261   1.916   1.067  0.00  0.00    +0.110 C 
ATOM     34  C   UNL     1       3.186   2.767   0.385  0.00  0.00    +0.020 C 
ATOM     35  C   UNL     1       3.731   4.178   0.149  0.00  0.00    -0.012 C 
ATOM     36  C   UNL     1       4.950   4.107  -0.774  0.00  0.00    +0.020 C 
ATOM     37  C   UNL     1       6.048   3.271  -0.099  0.00  0.00    +0.110 C 
ATOM     38  C   UNL     1       2.649   5.041  -0.501  0.00  0.00    +0.007 C 
ENDBRANCH  29  32
ENDBRANCH  10  29
TORSDOF 7
