REMARK  Name = ZINC14802424
REMARK  11 active torsions:
REMARK  status: ('A' for Active; 'I' for Inactive)
REMARK    1  A    between atoms: C_1  and  C_2
REMARK    2  A    between atoms: C_5  and  C_9
REMARK    3  A    between atoms: C_6  and  C_8
REMARK    4  A    between atoms: N_11  and  N_12
REMARK    5  A    between atoms: C_13  and  C_15
REMARK    6  A    between atoms: C_15  and  C_17
REMARK    7  A    between atoms: C_15  and  N_20
REMARK    8  A    between atoms: C_17  and  C_18
REMARK    9  A    between atoms: C_17  and  C_19
REMARK   10  A    between atoms: N_20  and  S_21
REMARK   11  A    between atoms: S_21  and  C_24
REMARK                            x       y       z     vdW  Elec       q    Type
REMARK                         _______ _______ _______ _____ _____    ______ ____
ROOT
ATOM      1  N   UNL     1       0.807   3.158   0.957  0.00  0.00    -0.233 N 
ATOM      2  C   UNL     1      -0.327   2.488   0.669  0.00  0.00    +0.248 C 
ATOM      3  O   UNL     1      -1.376   2.826   1.176  0.00  0.00    -0.273 OA
ATOM      4  H   UNL     1       1.631   2.936   0.496  0.00  0.00    +0.173 HD
ENDROOT
BRANCH   1   7
ATOM      5  C   UNL     1       1.929   4.842   2.210  0.00  0.00    +0.260 C 
ATOM      6  O   UNL     1       2.962   4.565   1.632  0.00  0.00    -0.269 OA
ATOM      7  N   UNL     1       0.796   4.173   1.922  0.00  0.00    -0.230 N 
ATOM      8  H   UNL     1      -0.029   4.394   2.384  0.00  0.00    +0.173 HD
BRANCH   5  13
ATOM      9  C   UNL     1       1.882   9.012   6.176  0.00  0.00    +0.044 C 
ATOM     10  C   UNL     1       1.895   7.920   5.137  0.00  0.00    -0.050 A 
ATOM     11  C   UNL     1       0.708   7.320   4.754  0.00  0.00    +0.004 A 
ATOM     12  C   UNL     1       0.712   6.320   3.805  0.00  0.00    +0.013 A 
ATOM     13  C   UNL     1       1.917   5.913   3.229  0.00  0.00    +0.041 A 
ATOM     14  C   UNL     1       3.111   6.519   3.623  0.00  0.00    -0.038 A 
ATOM     15  C   UNL     1       3.092   7.522   4.571  0.00  0.00    +0.007 A 
ATOM     16  C   UNL     1       4.418   6.083   3.011  0.00  0.00    +0.044 C 
ENDBRANCH   5  13
ENDBRANCH   1   7
BRANCH   2  17
ATOM     17  C   UNL     1      -0.291   1.319  -0.281  0.00  0.00    +0.166 C 
BRANCH  17  18
ATOM     18  C   UNL     1      -0.208   1.835  -1.720  0.00  0.00    +0.010 C 
ATOM     19  C   UNL     1      -1.457   2.659  -2.039  0.00  0.00    +0.009 C 
ATOM     20  C   UNL     1      -0.121   0.648  -2.682  0.00  0.00    +0.009 C 
ENDBRANCH  17  18
BRANCH  17  21
ATOM     21  N   UNL     1      -1.508   0.520  -0.118  0.00  0.00    -0.178 NA
ATOM     22  H   UNL     1      -2.371   0.896  -0.356  0.00  0.00    +0.149 HD
BRANCH  21  23
ATOM     23  S   UNL     1      -1.412  -1.024   0.472  0.00  0.00    +0.059 S 
ATOM     24  O   UNL     1      -2.746  -1.502   0.578  0.00  0.00    -0.153 OA
ATOM     25  O   UNL     1      -0.422  -1.692  -0.297  0.00  0.00    -0.153 OA
BRANCH  23  26
ATOM     26  C   UNL     1      -0.784  -0.915   2.115  0.00  0.00    +0.105 A 
ATOM     27  C   UNL     1       0.579  -0.969   2.339  0.00  0.00    +0.030 A 
ATOM     28  C   UNL     1       1.072  -0.878   3.627  0.00  0.00    +0.022 A 
ATOM     29  C   UNL     1       0.201  -0.744   4.693  0.00  0.00    +0.041 A 
ATOM     30  C   UNL     1      -1.163  -0.695   4.469  0.00  0.00    +0.022 A 
ATOM     31  C   UNL     1      -1.655  -0.781   3.180  0.00  0.00    +0.030 A 
ATOM     32 CL   UNL     1       0.820  -0.636   6.311  0.00  0.00    -0.084 Cl
ENDBRANCH  23  26
ENDBRANCH  21  23
ENDBRANCH  17  21
ENDBRANCH   2  17
TORSDOF 7
