REMARK  Name = ZINC66870846
REMARK  7 active torsions:
REMARK  status: ('A' for Active; 'I' for Inactive)
REMARK    1  A    between atoms: C_1  and  C_2
REMARK    2  A    between atoms: C_2  and  O_3
REMARK    3  A    between atoms: O_3  and  C_4
REMARK    4  A    between atoms: C_4  and  C_6
REMARK    5  A    between atoms: C_6  and  N_11
REMARK    6  A    between atoms: N_11  and  S_12
REMARK    7  A    between atoms: S_12  and  N_15
REMARK                            x       y       z     vdW  Elec       q    Type
REMARK                         _______ _______ _______ _____ _____    ______ ____
ROOT
ATOM      1  N   UNL     1       1.040  -1.082  -4.231  0.00  0.00    -0.163 NA
ATOM      2  H   UNL     1       0.842  -1.029  -5.179  0.00  0.00    +0.150 HD
ENDROOT
BRANCH   1   3
ATOM      3  C   UNL     1       0.626  -2.257  -3.460  0.00  0.00    +0.137 C 
ATOM      4  C   UNL     1      -0.029  -3.312  -4.385  0.00  0.00    +0.035 C 
ATOM      5  C   UNL     1      -1.474  -2.777  -4.546  0.00  0.00    +0.002 C 
ATOM      6  C   UNL     1      -1.825  -2.214  -3.153  0.00  0.00    +0.002 C 
ATOM      7  C   UNL     1      -0.490  -1.883  -2.463  0.00  0.00    +0.035 C 
BRANCH   3   8
ATOM      8  C   UNL     1       1.805  -2.852  -2.733  0.00  0.00    +0.329 C 
ATOM      9  O   UNL     1       1.653  -3.353  -1.645  0.00  0.00    -0.249 OA
BRANCH   8  10
ATOM     10  O   UNL     1       3.023  -2.824  -3.296  0.00  0.00    -0.464 OA
BRANCH  10  12
ATOM     11  C   UNL     1       5.396  -3.280  -3.346  0.00  0.00    +0.048 C 
ATOM     12  C   UNL     1       4.095  -3.406  -2.551  0.00  0.00    +0.229 C 
ENDBRANCH  10  12
ENDBRANCH   8  10
ENDBRANCH   3   8
ENDBRANCH   1   3
BRANCH   1  13
ATOM     13  S   UNL     1       1.846   0.157  -3.483  0.00  0.00    +0.098 S 
ATOM     14  O   UNL     1       2.701  -0.440  -2.518  0.00  0.00    -0.141 OA
ATOM     15  O   UNL     1       2.334   1.004  -4.514  0.00  0.00    -0.141 OA
BRANCH  13  16
ATOM     16  N   UNL     1       0.722   1.035  -2.642  0.00  0.00    -0.167 NA
ATOM     17  C   UNL     1      -0.252   1.805  -3.382  0.00  0.00    +0.110 C 
ATOM     18  C   UNL     1       0.307   3.223  -3.657  0.00  0.00    +0.017 C 
ATOM     19  C   UNL     1       0.346   4.007  -2.413  0.00  0.00    +0.001 C 
ATOM     20  C   UNL     1       1.270   3.438  -1.340  0.00  0.00    +0.001 C 
ATOM     21  C   UNL     1       0.529   2.390  -0.547  0.00  0.00    +0.017 C 
ATOM     22  C   UNL     1       0.752   0.994  -1.166  0.00  0.00    +0.110 C 
ENDBRANCH  13  16
ENDBRANCH   1  13
TORSDOF 6
