REMARK  Name = ZINC66976000
REMARK  11 active torsions:
REMARK  status: ('A' for Active; 'I' for Inactive)
REMARK    1  A    between atoms: C_1  and  N_2
REMARK    2  A    between atoms: N_2  and  C_3
REMARK    3  A    between atoms: N_2  and  C_4
REMARK    4  A    between atoms: C_4  and  C_6
REMARK    5  A    between atoms: C_4  and  C_23
REMARK    6  A    between atoms: C_6  and  N_7
REMARK    7  A    between atoms: N_10  and  C_11
REMARK    8  A    between atoms: C_11  and  C_12
REMARK    9  A    between atoms: C_12  and  O_22
REMARK   10  A    between atoms: C_26  and  O_29
REMARK   11  A    between atoms: O_29  and  C_30
REMARK                            x       y       z     vdW  Elec       q    Type
REMARK                         _______ _______ _______ _____ _____    ______ ____
ROOT
ATOM      1  N   UNL     1      -1.448   1.430  -1.458  0.00  0.00    -0.301 N 
ATOM      2  C   UNL     1      -2.089   2.209  -2.352  0.00  0.00    +0.300 C 
ATOM      3  O   UNL     1      -2.889   1.716  -3.124  0.00  0.00    -0.253 OA
ATOM      4  N   UNL     1      -1.844   3.533  -2.389  0.00  0.00    -0.296 N 
ATOM      5  H   UNL     1      -0.810   1.823  -0.842  0.00  0.00    +0.150 HD
ATOM      6  H   UNL     1      -1.206   3.926  -1.774  0.00  0.00    +0.150 HD
ENDROOT
BRANCH   1   7
ATOM      7  C   UNL     1      -1.714  -0.010  -1.418  0.00  0.00    +0.095 C 
BRANCH   7   8
ATOM      8  C   UNL     1      -0.782  -0.673  -0.402  0.00  0.00    -0.021 C 
BRANCH   8   9
ATOM      9  C   UNL     1      -1.085  -0.146   0.977  0.00  0.00    -0.059 A 
ATOM     10  C   UNL     1      -2.156  -0.653   1.689  0.00  0.00    +0.005 A 
ATOM     11  C   UNL     1      -2.436  -0.172   2.953  0.00  0.00    +0.046 A 
ATOM     12  C   UNL     1      -1.642   0.821   3.508  0.00  0.00    +0.120 A 
ATOM     13  C   UNL     1      -0.567   1.327   2.792  0.00  0.00    +0.046 A 
ATOM     14  C   UNL     1      -0.288   0.839   1.530  0.00  0.00    +0.005 A 
BRANCH  12  15
ATOM     15  O   UNL     1      -1.916   1.297   4.752  0.00  0.00    -0.495 OA
ATOM     16  C   UNL     1      -1.055   2.318   5.259  0.00  0.00    +0.277 C 
ENDBRANCH  12  15
ENDBRANCH   8   9
BRANCH   8  18
ATOM     17  C   UNL     1      -0.677  -2.643  -1.767  0.00  0.00    -0.096 C 
ATOM     18  N   UNL     1      -0.985  -2.128  -0.426  0.00  0.00    +0.382 N 
ATOM     19  C   UNL     1      -0.099  -2.763   0.558  0.00  0.00    -0.096 C 
ATOM     20  H   UNL     1      -1.946  -2.337  -0.198  0.00  0.00    -0.082 HD
ENDBRANCH   8  18
ENDBRANCH   7   8
ENDBRANCH   1   7
BRANCH   4  21
ATOM     21  C   UNL     1      -2.541   4.380  -3.361  0.00  0.00    +0.145 C 
BRANCH  21  22
ATOM     22  C   UNL     1      -2.005   5.810  -3.268  0.00  0.00    +0.107 C 
ATOM     23  C   UNL     1      -2.195   6.327  -1.843  0.00  0.00    +0.041 C 
ATOM     24  C   UNL     1      -1.857   7.823  -1.823  0.00  0.00    +0.008 C 
ATOM     25  C   UNL     1      -2.948   8.573  -2.584  0.00  0.00    +0.035 C 
ATOM     26  C   UNL     1      -3.172   7.952  -3.938  0.00  0.00    -0.041 A 
ATOM     27  C   UNL     1      -2.743   6.682  -4.250  0.00  0.00    -0.011 A 
ATOM     28  C   UNL     1      -2.987   6.165  -5.516  0.00  0.00    +0.007 A 
ATOM     29  C   UNL     1      -3.654   6.916  -6.463  0.00  0.00    +0.000 A 
ATOM     30  C   UNL     1      -4.082   8.192  -6.150  0.00  0.00    +0.000 A 
ATOM     31  C   UNL     1      -3.841   8.707  -4.893  0.00  0.00    +0.004 A 
BRANCH  22  32
ATOM     32  O   UNL     1      -0.613   5.813  -3.588  0.00  0.00    -0.382 OA
ATOM     33  H   UNL     1      -0.412   5.489  -4.476  0.00  0.00    +0.211 HD
ENDBRANCH  22  32
ENDBRANCH  21  22
ENDBRANCH   4  21
TORSDOF 8
