REMARK  Name = ZINC58903768
REMARK  6 active torsions:
REMARK  status: ('A' for Active; 'I' for Inactive)
REMARK    1  A    between atoms: C_3  and  N_11
REMARK    2  A    between atoms: C_5  and  O_7
REMARK    3  A    between atoms: O_7  and  C_8
REMARK    4  A    between atoms: C_12  and  C_14
REMARK    5  A    between atoms: C_16  and  S_19
REMARK    6  A    between atoms: S_19  and  N_22
REMARK                            x       y       z     vdW  Elec       q    Type
REMARK                         _______ _______ _______ _____ _____    ______ ____
ROOT
ATOM      1  N   UNL     1       3.583   2.131  -0.021  0.00  0.00    -0.281 N 
ATOM      2  C   UNL     1       3.563   3.475  -0.116  0.00  0.00    +0.249 C 
ATOM      3  O   UNL     1       2.502   4.070  -0.103  0.00  0.00    -0.270 OA
ATOM      4  H   UNL     1       4.430   1.661   0.036  0.00  0.00    +0.155 HD
ENDROOT
BRANCH   1   7
ATOM      5  C   UNL     1       1.124  -0.543  -0.597  0.00  0.00    +0.005 A 
ATOM      6  C   UNL     1       2.310   0.166  -0.613  0.00  0.00    +0.023 A 
ATOM      7  C   UNL     1       2.383   1.413  -0.005  0.00  0.00    +0.037 A 
ATOM      8  C   UNL     1       1.263   1.946   0.619  0.00  0.00    +0.069 A 
ATOM      9  C   UNL     1       0.075   1.231   0.633  0.00  0.00    +0.129 A 
ATOM     10  C   UNL     1       0.008  -0.014   0.024  0.00  0.00    +0.046 A 
BRANCH   9  11
ATOM     11  O   UNL     1      -1.023   1.750   1.243  0.00  0.00    -0.434 OA
BRANCH  11  12
ATOM     12  C   UNL     1      -2.212   0.958   1.219  0.00  0.00    +0.541 C 
ATOM     13  F   UNL     1      -2.593   0.729  -0.107  0.00  0.00    -0.166 F 
ATOM     14  F   UNL     1      -1.972  -0.265   1.854  0.00  0.00    -0.166 F 
ENDBRANCH  11  12
ENDBRANCH   9  11
ENDBRANCH   1   7
BRANCH   2  15
ATOM     15  C   UNL     1       4.825   4.223  -0.235  0.00  0.00    +0.046 A 
ATOM     16  C   UNL     1       4.843   5.663  -0.333  0.00  0.00    +0.049 A 
ATOM     17  C   UNL     1       6.063   6.227  -0.438  0.00  0.00    +0.143 A 
ATOM     18  S   UNL     1       7.160   4.826  -0.403  0.00  0.00    -0.076 S 
ATOM     19  C   UNL     1       6.044   3.582  -0.253  0.00  0.00    +0.060 A 
BRANCH  17  20
ATOM     20  S   UNL     1       6.472   7.935  -0.575  0.00  0.00    +0.062 S 
ATOM     21  O   UNL     1       7.746   7.999  -1.201  0.00  0.00    -0.153 OA
ATOM     22  O   UNL     1       5.327   8.585  -1.109  0.00  0.00    -0.153 OA
BRANCH  20  23
ATOM     23  N   UNL     1       6.671   8.516   0.963  0.00  0.00    -0.203 NA
ATOM     24  H   UNL     1       6.557   7.925   1.723  0.00  0.00    +0.144 HD
ATOM     25  H   UNL     1       6.902   9.448   1.103  0.00  0.00    +0.144 HD
ENDBRANCH  20  23
ENDBRANCH  17  20
ENDBRANCH   2  15
TORSDOF 6
