REMARK  Name = ZINC18163615
REMARK  12 active torsions:
REMARK  status: ('A' for Active; 'I' for Inactive)
REMARK    1  A    between atoms: C_1  and  C_2
REMARK    2  A    between atoms: C_5  and  N_9
REMARK    3  A    between atoms: C_7  and  C_8
REMARK    4  A    between atoms: N_10  and  C_11
REMARK    5  A    between atoms: C_13  and  C_34
REMARK    6  A    between atoms: C_14  and  C_33
REMARK    7  A    between atoms: C_16  and  N_17
REMARK    8  A    between atoms: N_17  and  C_18
REMARK    9  A    between atoms: C_20  and  O_32
REMARK   10  A    between atoms: C_22  and  O_31
REMARK   11  A    between atoms: C_24  and  O_30
REMARK   12  A    between atoms: C_26  and  C_29
REMARK                            x       y       z     vdW  Elec       q    Type
REMARK                         _______ _______ _______ _____ _____    ______ ____
ROOT
ATOM      1  C   UNL     1      -0.099  -4.089  -2.312  0.00  0.00    +0.107 A 
ATOM      2  C   UNL     1       0.097  -2.705  -2.325  0.00  0.00    +0.035 A 
ATOM      3  C   UNL     1       0.129  -2.027  -3.524  0.00  0.00    -0.045 A 
ATOM      4  C   UNL     1      -0.033  -2.709  -4.719  0.00  0.00    -0.046 A 
ATOM      5  C   UNL     1      -0.228  -4.076  -4.723  0.00  0.00    +0.028 A 
ATOM      6  C   UNL     1      -0.257  -4.778  -3.526  0.00  0.00    +0.057 A 
ATOM      7  C   UNL     1       0.003  -1.955  -6.023  0.00  0.00    +0.044 C 
ATOM      8  C   UNL     1       0.340  -0.535  -3.536  0.00  0.00    +0.044 C 
ENDROOT
BRANCH   1  10
ATOM      9  N   UNL     1      -0.584  -4.189  -0.068  0.00  0.00    -0.149 NA
ATOM     10  N   UNL     1      -0.132  -4.767  -1.129  0.00  0.00    -0.147 NA
BRANCH   9  15
ATOM     11  C   UNL     1      -4.171   0.144  -0.521  0.00  0.00    +0.044 C 
ATOM     12  C   UNL     1      -3.213  -1.013  -0.400  0.00  0.00    -0.047 A 
ATOM     13  C   UNL     1      -2.992  -1.841  -1.487  0.00  0.00    +0.006 A 
ATOM     14  C   UNL     1      -2.117  -2.901  -1.384  0.00  0.00    +0.030 A 
ATOM     15  C   UNL     1      -1.452  -3.140  -0.178  0.00  0.00    +0.086 A 
ATOM     16  C   UNL     1      -1.681  -2.300   0.915  0.00  0.00    +0.033 A 
ATOM     17  C   UNL     1      -2.555  -1.240   0.796  0.00  0.00    -0.045 A 
ATOM     18  C   UNL     1      -2.798  -0.329   1.972  0.00  0.00    +0.044 C 
ENDBRANCH   9  15
ENDBRANCH   1  10
BRANCH   6  19
ATOM     19  N   UNL     1      -0.448  -6.156  -3.528  0.00  0.00    -0.315 N 
ATOM     20  H   UNL     1      -0.472  -6.644  -2.690  0.00  0.00    +0.149 HD
BRANCH  19  21
ATOM     21  C   UNL     1      -0.612  -6.871  -4.797  0.00  0.00    +0.235 C 
ATOM     22  C   UNL     1       0.038  -8.253  -4.692  0.00  0.00    +0.192 C 
ATOM     23  C   UNL     1      -0.675  -9.064  -3.606  0.00  0.00    +0.178 C 
ATOM     24  C   UNL     1      -2.167  -9.148  -3.943  0.00  0.00    +0.174 C 
ATOM     25  C   UNL     1      -2.732  -7.731  -4.077  0.00  0.00    +0.149 C 
ATOM     26  O   UNL     1      -2.005  -7.022  -5.082  0.00  0.00    -0.351 OA
ATOM     27  C   UNL     1      -4.208  -7.807  -4.473  0.00  0.00    +0.041 C 
BRANCH  24  28
ATOM     28  O   UNL     1      -2.338  -9.850  -5.176  0.00  0.00    -0.387 OA
ATOM     29  H   UNL     1      -3.261  -9.941  -5.452  0.00  0.00    +0.210 HD
ENDBRANCH  24  28
BRANCH  23  30
ATOM     30  O   UNL     1      -0.121 -10.380  -3.550  0.00  0.00    -0.386 OA
ATOM     31  H   UNL     1       0.824 -10.400  -3.346  0.00  0.00    +0.210 HD
ENDBRANCH  23  30
BRANCH  22  32
ATOM     32  O   UNL     1       1.419  -8.106  -4.351  0.00  0.00    -0.385 OA
ATOM     33  H   UNL     1       1.931  -7.598  -4.995  0.00  0.00    +0.210 HD
ENDBRANCH  22  32
ENDBRANCH  19  21
ENDBRANCH   6  19
TORSDOF 7
