REMARK  Name = ZINC35747130
REMARK  13 active torsions:
REMARK  status: ('A' for Active; 'I' for Inactive)
REMARK    1  A    between atoms: C_1  and  C_2
REMARK    2  A    between atoms: C_8  and  C_17
REMARK    3  A    between atoms: C_12  and  C_13
REMARK    4  A    between atoms: C_13  and  O_15
REMARK    5  A    between atoms: O_15  and  C_16
REMARK    6  A    between atoms: C_17  and  N_18
REMARK    7  A    between atoms: N_18  and  C_19
REMARK    8  A    between atoms: N_18  and  C_32
REMARK    9  A    between atoms: C_19  and  C_20
REMARK   10  A    between atoms: C_20  and  C_22
REMARK   11  A    between atoms: C_20  and  O_31
REMARK   12  A    between atoms: C_22  and  O_23
REMARK   13  A    between atoms: O_23  and  C_24
REMARK                            x       y       z     vdW  Elec       q    Type
REMARK                         _______ _______ _______ _____ _____    ______ ____
ROOT
ATOM      1  N   UNL     1       0.151  -4.940  -4.039  0.00  0.00    +0.388 N 
ATOM      2  H   UNL     1       0.931  -4.979  -3.400  0.00  0.00    -0.081 HD
ENDROOT
BRANCH   1   3
ATOM      3  C   UNL     1      -1.058  -5.438  -3.368  0.00  0.00    -0.068 C 
ATOM      4  C   UNL     1      -0.935  -5.835  -1.896  0.00  0.00    -0.017 C 
ATOM      5  C   UNL     1      -1.087  -6.915  -2.969  0.00  0.00    -0.017 C 
ENDBRANCH   1   3
BRANCH   1   6
ATOM      6  C   UNL     1      -0.063  -3.551  -4.466  0.00  0.00    -0.003 C 
BRANCH   6  14
ATOM      7  C   UNL     1      -0.924   1.028   0.283  0.00  0.00    +0.046 C 
ATOM      8  C   UNL     1      -0.682  -0.458   0.222  0.00  0.00    -0.015 A 
ATOM      9  C   UNL     1      -0.548  -1.095  -1.012  0.00  0.00    +0.076 A 
ATOM     10  C   UNL     1      -0.607  -0.518  -2.375  0.00  0.00    +0.260 A 
ATOM     11  O   UNL     1      -0.795   0.674  -2.541  0.00  0.00    -0.267 OA
ATOM     12  N   UNL     1      -0.446  -1.345  -3.426  0.00  0.00    -0.312 N 
ATOM     13  H   UNL     1      -0.481  -0.983  -4.325  0.00  0.00    +0.170 HD
ATOM     14  C   UNL     1      -0.235  -2.674  -3.253  0.00  0.00    +0.094 A 
ATOM     15  N   UNL     1      -0.178  -3.214  -2.066  0.00  0.00    -0.229 NA
ATOM     16  C   UNL     1      -0.324  -2.490  -0.964  0.00  0.00    +0.116 A 
ATOM     17  S   UNL     1      -0.311  -2.841   0.776  0.00  0.00    -0.062 S 
ATOM     18  C   UNL     1      -0.588  -1.183   1.375  0.00  0.00    +0.102 A 
BRANCH  18  19
ATOM     19  C   UNL     1      -0.692  -0.717   2.759  0.00  0.00    +0.346 C 
ATOM     20  O   UNL     1      -0.887   0.461   2.991  0.00  0.00    -0.244 OA
BRANCH  19  21
ATOM     21  O   UNL     1      -0.571  -1.594   3.777  0.00  0.00    -0.464 OA
ATOM     22  C   UNL     1      -0.682  -1.069   5.102  0.00  0.00    +0.280 C 
ENDBRANCH  19  21
ENDBRANCH  18  19
ENDBRANCH   6  14
ENDBRANCH   1   6
BRANCH   1  23
ATOM     23  C   UNL     1       0.438  -5.775  -5.213  0.00  0.00    -0.043 C 
BRANCH  23  24
ATOM     24  C   UNL     1       1.760  -5.332  -5.843  0.00  0.00    +0.135 C 
BRANCH  24  25
ATOM     25  O   UNL     1       2.813  -5.472  -4.888  0.00  0.00    -0.390 OA
ATOM     26  H   UNL     1       2.938  -6.377  -4.569  0.00  0.00    +0.210 HD
ENDBRANCH  24  25
BRANCH  24  27
ATOM     27  C   UNL     1       2.060  -6.203  -7.064  0.00  0.00    +0.258 C 
BRANCH  27  28
ATOM     28  O   UNL     1       3.233  -5.716  -7.720  0.00  0.00    -0.489 OA
BRANCH  28  29
ATOM     29  C   UNL     1       3.640  -6.383  -8.832  0.00  0.00    +0.121 A 
ATOM     30  C   UNL     1       2.922  -7.480  -9.286  0.00  0.00    +0.047 A 
ATOM     31  C   UNL     1       3.337  -8.157 -10.416  0.00  0.00    +0.023 A 
ATOM     32  C   UNL     1       4.469  -7.742 -11.096  0.00  0.00    +0.041 A 
ATOM     33  C   UNL     1       5.186  -6.648 -10.645  0.00  0.00    +0.023 A 
ATOM     34  C   UNL     1       4.771  -5.965  -9.518  0.00  0.00    +0.047 A 
ATOM     35 CL   UNL     1       4.989  -8.594 -12.516  0.00  0.00    -0.084 Cl
ENDBRANCH  28  29
ENDBRANCH  27  28
ENDBRANCH  24  27
ENDBRANCH  23  24
ENDBRANCH   1  23
TORSDOF 11
