REMARK  Name = ZINC41643595
REMARK  7 active torsions:
REMARK  status: ('A' for Active; 'I' for Inactive)
REMARK    1  A    between atoms: C_1  and  C_2
REMARK    2  A    between atoms: C_2  and  O_3
REMARK    3  A    between atoms: O_3  and  C_4
REMARK    4  A    between atoms: C_8  and  C_15
REMARK    5  A    between atoms: N_17  and  C_18
REMARK    6  A    between atoms: C_19  and  C_29
REMARK    7  A    between atoms: C_24  and  C_28
REMARK                            x       y       z     vdW  Elec       q    Type
REMARK                         _______ _______ _______ _____ _____    ______ ____
ROOT
ATOM      1  C   UNL     1       0.542  -6.949  -0.839  0.00  0.00    +0.250 C 
ATOM      2  O   UNL     1       0.566  -8.144  -1.056  0.00  0.00    -0.270 OA
ATOM      3  N   UNL     1       0.003  -6.483   0.305  0.00  0.00    -0.275 N 
ATOM      4  H   UNL     1      -0.085  -5.527   0.445  0.00  0.00    +0.156 HD
ENDROOT
BRANCH   1   9
ATOM      5  C   UNL     1       3.148  -7.370  -5.284  0.00  0.00    +0.124 A 
ATOM      6  C   UNL     1       2.632  -8.290  -4.373  0.00  0.00    +0.046 A 
ATOM      7  C   UNL     1       1.973  -7.862  -3.258  0.00  0.00    +0.016 A 
ATOM      8  C   UNL     1       1.813  -6.492  -3.027  0.00  0.00    +0.030 A 
ATOM      9  C   UNL     1       1.107  -6.004  -1.832  0.00  0.00    +0.054 A 
ATOM     10  C   UNL     1       0.986  -4.652  -1.665  0.00  0.00    +0.105 A 
ATOM     11  C   UNL     1       1.535  -3.776  -2.632  0.00  0.00    +0.338 A 
ATOM     12  O   UNL     1       1.422  -2.574  -2.475  0.00  0.00    -0.245 OA
ATOM     13  O   UNL     1       2.177  -4.236  -3.716  0.00  0.00    -0.422 OA
ATOM     14  C   UNL     1       2.331  -5.558  -3.942  0.00  0.00    +0.143 A 
ATOM     15  C   UNL     1       3.004  -6.009  -5.068  0.00  0.00    +0.092 A 
BRANCH   5  16
ATOM     16  O   UNL     1       3.802  -7.810  -6.390  0.00  0.00    -0.492 OA
BRANCH  16  18
ATOM     17  C   UNL     1       4.679  -9.527  -7.846  0.00  0.00    +0.048 C 
ATOM     18  C   UNL     1       3.917  -9.225  -6.555  0.00  0.00    +0.225 C 
ENDBRANCH  16  18
ENDBRANCH   5  16
ENDBRANCH   1   9
BRANCH   3  19
ATOM     19  C   UNL     1      -0.424  -7.368   1.280  0.00  0.00    +0.085 A 
ATOM     20  C   UNL     1      -1.002  -7.072   2.505  0.00  0.00    +0.068 A 
ATOM     21  C   UNL     1      -1.365  -8.192   3.356  0.00  0.00    -0.023 A 
ATOM     22  C   UNL     1      -1.083  -9.403   2.825  0.00  0.00    -0.004 A 
ATOM     23  S   UNL     1      -0.367  -9.046   1.248  0.00  0.00    -0.077 S 
ATOM     24  C   UNL     1      -1.337 -10.739   3.451  0.00  0.00    +0.046 C 
ATOM     25  C   UNL     1      -2.309 -10.546   4.623  0.00  0.00    -0.009 C 
ATOM     26  C   UNL     1      -1.821  -9.378   5.485  0.00  0.00    +0.008 C 
ATOM     27  C   UNL     1      -2.006  -8.061   4.729  0.00  0.00    +0.037 C 
ATOM     28  C   UNL     1      -2.356 -11.823   5.466  0.00  0.00    +0.008 C 
BRANCH  20  29
ATOM     29  C   UNL     1      -1.238  -5.687   2.925  0.00  0.00    +0.244 C 
ATOM     30  O   UNL     1      -2.291  -5.140   2.655  0.00  0.00    -0.270 OA
ATOM     31  N   UNL     1      -0.288  -5.020   3.609  0.00  0.00    -0.325 N 
ATOM     32  H   UNL     1       0.552  -5.456   3.824  0.00  0.00    +0.145 HD
ATOM     33  H   UNL     1      -0.443  -4.104   3.886  0.00  0.00    +0.145 HD
ENDBRANCH  20  29
ENDBRANCH   3  19
TORSDOF 5
