REMARK  Name = ZINC36704880
REMARK  4 active torsions:
REMARK  status: ('A' for Active; 'I' for Inactive)
REMARK    1  A    between atoms: C_1  and  C_2
REMARK    2  A    between atoms: C_4  and  C_14
REMARK    3  A    between atoms: C_25  and  S_26
REMARK    4  A    between atoms: S_26  and  C_27
REMARK                            x       y       z     vdW  Elec       q    Type
REMARK                         _______ _______ _______ _____ _____    ______ ____
ROOT
ATOM      1  C   UNL     1      -1.972  -0.134  -1.209  0.00  0.00    +0.263 C 
ATOM      2  O   UNL     1      -2.411  -0.939  -2.002  0.00  0.00    -0.271 OA
ATOM      3  N   UNL     1      -2.048   1.185  -1.476  0.00  0.00    -0.261 N 
ATOM      4  C   UNL     1      -2.721   1.627  -2.604  0.00  0.00    +0.166 A 
ATOM      5  N   UNL     1      -2.897   2.855  -3.030  0.00  0.00    -0.223 NA
ATOM      6  C   UNL     1      -3.581   3.141  -4.160  0.00  0.00    +0.094 A 
ATOM      7  C   UNL     1      -4.100   2.030  -4.859  0.00  0.00    +0.042 A 
ATOM      8  S   UNL     1      -3.565   0.666  -3.854  0.00  0.00    -0.052 S 
ATOM      9  C   UNL     1      -4.819   2.155  -6.024  0.00  0.00    +0.017 A 
ATOM     10  C   UNL     1      -5.056   3.411  -6.552  0.00  0.00    +0.002 A 
ATOM     11  C   UNL     1      -4.563   4.529  -5.896  0.00  0.00    +0.017 A 
ATOM     12  C   UNL     1      -3.841   4.416  -4.728  0.00  0.00    +0.034 A 
ATOM     13  H   UNL     1      -1.632   1.826  -0.878  0.00  0.00    +0.157 HD
ENDROOT
BRANCH   1  16
ATOM     14  C   UNL     1      -3.043  -2.435   0.275  0.00  0.00    +0.056 C 
ATOM     15  C   UNL     1      -2.411  -1.232   0.979  0.00  0.00    +0.220 C 
ATOM     16  C   UNL     1      -1.340  -0.608   0.074  0.00  0.00    +0.299 C 
ATOM     17  O   UNL     1      -0.760   0.503   0.767  0.00  0.00    -0.472 OA
ATOM     18  C   UNL     1      -0.414   0.299   2.068  0.00  0.00    +0.163 A 
ATOM     19  C   UNL     1       0.463   1.180   2.685  0.00  0.00    +0.049 A 
ATOM     20  C   UNL     1       0.822   0.988   4.005  0.00  0.00    +0.004 A 
ATOM     21  C   UNL     1       0.308  -0.081   4.715  0.00  0.00    +0.004 A 
ATOM     22  C   UNL     1      -0.565  -0.963   4.106  0.00  0.00    +0.049 A 
ATOM     23  C   UNL     1      -0.927  -0.777   2.780  0.00  0.00    +0.163 A 
ATOM     24  O   UNL     1      -1.782  -1.659   2.192  0.00  0.00    -0.481 OA
ENDBRANCH   1  16
BRANCH  12  25
ATOM     25  S   UNL     1      -3.236   5.867  -3.932  0.00  0.00    -0.126 S 
ATOM     26  C   UNL     1      -3.802   7.221  -4.998  0.00  0.00    +0.090 C 
ENDBRANCH  12  25
TORSDOF 2
