REMARK  Name = ZINC44593222
REMARK  3 active torsions:
REMARK  status: ('A' for Active; 'I' for Inactive)
REMARK    1  A    between atoms: C_6  and  C_19
REMARK    2  A    between atoms: N_13  and  C_14
REMARK    3  A    between atoms: C_14  and  C_15
REMARK                            x       y       z     vdW  Elec       q    Type
REMARK                         _______ _______ _______ _____ _____    ______ ____
ROOT
ATOM      1  C   UNL     1      -0.005   1.388   0.001  0.00  0.00    +0.014 A 
ATOM      2  C   UNL     1       1.159   2.077  -0.006  0.00  0.00    +0.046 A 
ATOM      3  S   UNL     1       2.365   0.759  -0.019  0.00  0.00    -0.101 S 
ATOM      4  C   UNL     1       1.231  -0.604  -0.017  0.00  0.00    -0.003 A 
ATOM      5  C   UNL     1       0.009  -0.006  -0.003  0.00  0.00    -0.006 A 
ATOM      6  C   UNL     1      -1.260  -0.856   0.013  0.00  0.00    +0.222 C 
ATOM      7  N   UNL     1      -0.879  -2.238  -0.306  0.00  0.00    -0.268 N 
ATOM      8  C   UNL     1       0.275  -2.838   0.381  0.00  0.00    +0.115 C 
ATOM      9  C   UNL     1       1.538  -2.066  -0.032  0.00  0.00    +0.062 C 
ATOM     10  C   UNL     1      -1.577  -2.947  -1.215  0.00  0.00    +0.303 C 
ATOM     11  O   UNL     1      -1.198  -4.055  -1.544  0.00  0.00    -0.253 OA
ATOM     12  N   UNL     1      -2.694  -2.428  -1.761  0.00  0.00    -0.299 N 
ATOM     13  H   UNL     1      -2.957  -1.517  -1.554  0.00  0.00    +0.150 HD
ENDROOT
BRANCH   6  14
ATOM     14  C   UNL     1      -1.892  -0.802   1.380  0.00  0.00    +0.381 C 
ATOM     15  O   UNL     1      -2.417   0.227   1.770  0.00  0.00    -0.244 OA
ATOM     16  O   UNL     1      -1.880  -1.789   2.097  0.00  0.00    -0.244 OA
ENDBRANCH   6  14
BRANCH  12  17
ATOM     17  C   UNL     1      -3.512  -3.238  -2.666  0.00  0.00    +0.109 C 
BRANCH  17  18
ATOM     18  C   UNL     1      -4.713  -2.417  -3.141  0.00  0.00    +0.006 C 
ATOM     19  C   UNL     1      -5.929  -2.505  -2.203  0.00  0.00    +0.005 C 
ATOM     20  C   UNL     1      -6.801  -2.563  -3.468  0.00  0.00    +0.001 C 
ATOM     21  C   UNL     1      -5.573  -3.136  -4.194  0.00  0.00    +0.005 C 
ENDBRANCH  17  18
ENDBRANCH  12  17
TORSDOF 3
