REMARK  Name = ZINC05321907
REMARK  7 active torsions:
REMARK  status: ('A' for Active; 'I' for Inactive)
REMARK    1  A    between atoms: C_4  and  N_25
REMARK    2  A    between atoms: C_5  and  C_7
REMARK    3  A    between atoms: C_7  and  O_9
REMARK    4  A    between atoms: O_9  and  C_10
REMARK    5  A    between atoms: C_10  and  C_11
REMARK    6  A    between atoms: N_13  and  C_14
REMARK    7  A    between atoms: C_15  and  C_22
REMARK                            x       y       z     vdW  Elec       q    Type
REMARK                         _______ _______ _______ _____ _____    ______ ____
ROOT
ATOM      1  C   UNL     1       5.095   5.290   0.230  0.00  0.00    +0.255 C 
ATOM      2  O   UNL     1       4.023   5.848   0.321  0.00  0.00    -0.272 OA
ATOM      3  N   UNL     1       6.234   6.011   0.246  0.00  0.00    -0.277 N 
ATOM      4  H   UNL     1       7.092   5.564   0.174  0.00  0.00    +0.155 HD
ENDROOT
BRANCH   3   5
ATOM      5  C   UNL     1       6.179   7.391   0.367  0.00  0.00    +0.084 A 
ATOM      6  C   UNL     1       7.227   8.293   0.409  0.00  0.00    +0.068 A 
ATOM      7  C   UNL     1       6.895   9.712   0.539  0.00  0.00    -0.023 A 
ATOM      8  C   UNL     1       5.581   9.986   0.615  0.00  0.00    -0.004 A 
ATOM      9  S   UNL     1       4.782   8.403   0.511  0.00  0.00    -0.077 S 
ATOM     10  C   UNL     1       5.319  11.462   0.749  0.00  0.00    +0.043 C 
ATOM     11  C   UNL     1       6.641  12.133   0.314  0.00  0.00    +0.010 C 
ATOM     12  C   UNL     1       7.670  11.027   0.623  0.00  0.00    +0.037 C 
BRANCH   6  13
ATOM     13  C   UNL     1       8.620   7.844   0.322  0.00  0.00    +0.244 C 
ATOM     14  O   UNL     1       9.162   7.749  -0.763  0.00  0.00    -0.270 OA
ATOM     15  N   UNL     1       9.301   7.537   1.444  0.00  0.00    -0.325 N 
ATOM     16  H   UNL     1       8.869   7.613   2.309  0.00  0.00    +0.145 HD
ATOM     17  H   UNL     1      10.222   7.240   1.387  0.00  0.00    +0.145 HD
ENDBRANCH   6  13
ENDBRANCH   3   5
BRANCH   1  18
ATOM     18  C   UNL     1       5.155   3.789   0.098  0.00  0.00    +0.328 C 
BRANCH  18  19
ATOM     19  O   UNL     1       3.808   3.249   0.105  0.00  0.00    -0.451 OA
BRANCH  19  20
ATOM     20  C   UNL     1       3.685   1.911  -0.005  0.00  0.00    +0.362 C 
ATOM     21  O   UNL     1       4.676   1.216  -0.104  0.00  0.00    -0.243 OA
BRANCH  20  26
ATOM     22  C   UNL     1       0.062   1.497  -0.008  0.00  0.00    +0.131 A 
ATOM     23  C   UNL     1      -0.067   0.115  -0.004  0.00  0.00    +0.132 A 
ATOM     24  N   UNL     1       1.005  -0.655  -0.001  0.00  0.00    -0.237 NA
ATOM     25  C   UNL     1       2.216  -0.108  -0.001  0.00  0.00    +0.149 A 
ATOM     26  C   UNL     1       2.346   1.291  -0.005  0.00  0.00    +0.187 A 
ATOM     27  N   UNL     1       1.255   2.054  -0.008  0.00  0.00    -0.244 NA
BRANCH  25  28
ATOM     28  N   UNL     1       3.341  -0.910   0.003  0.00  0.00    -0.341 N 
ATOM     29  H   UNL     1       3.251  -1.872   0.085  0.00  0.00    +0.144 HD
ATOM     30  H   UNL     1       4.222  -0.511  -0.076  0.00  0.00    +0.144 HD
ENDBRANCH  25  28
ENDBRANCH  20  26
ENDBRANCH  19  20
ENDBRANCH  18  19
ENDBRANCH   1  18
TORSDOF 7
