REMARK  Name = ZINC48348946
REMARK  7 active torsions:
REMARK  status: ('A' for Active; 'I' for Inactive)
REMARK    1  A    between atoms: C_4  and  S_23
REMARK    2  A    between atoms: C_5  and  C_7
REMARK    3  A    between atoms: N_9  and  C_10
REMARK    4  A    between atoms: C_10  and  C_11
REMARK    5  A    between atoms: C_11  and  C_16
REMARK    6  A    between atoms: S_23  and  C_24
REMARK    7  A    between atoms: C_24  and  C_25
REMARK                            x       y       z     vdW  Elec       q    Type
REMARK                         _______ _______ _______ _____ _____    ______ ____
ROOT
ATOM      1  C   UNL     1       1.230  -2.138   0.017  0.00  0.00    +0.245 C 
ATOM      2  O   UNL     1       2.298  -2.718  -0.008  0.00  0.00    -0.270 OA
ATOM      3  N   UNL     1       0.080  -2.842   0.016  0.00  0.00    -0.310 N 
ATOM      4  H   UNL     1      -0.772  -2.379   0.035  0.00  0.00    +0.149 HD
ENDROOT
BRANCH   1   9
ATOM      5  C   UNL     1      -0.063   1.383   0.105  0.00  0.00    +0.001 A 
ATOM      6  C   UNL     1       1.118   2.110   0.107  0.00  0.00    +0.001 A 
ATOM      7  C   UNL     1       2.336   1.463   0.079  0.00  0.00    +0.015 A 
ATOM      8  C   UNL     1       2.386   0.073   0.050  0.00  0.00    +0.020 A 
ATOM      9  C   UNL     1       1.191  -0.665   0.048  0.00  0.00    +0.050 A 
ATOM     10  C   UNL     1      -0.034   0.007   0.076  0.00  0.00    +0.014 A 
BRANCH   8  11
ATOM     11  S   UNL     1       3.940  -0.756   0.014  0.00  0.00    -0.115 S 
BRANCH  11  12
ATOM     12  C   UNL     1       5.156   0.589   0.028  0.00  0.00    +0.169 C 
BRANCH  12  13
ATOM     13  C   UNL     1       6.547   0.009  -0.001  0.00  0.00    +0.221 C 
ATOM     14  O   UNL     1       6.702  -1.193  -0.028  0.00  0.00    -0.275 OA
ATOM     15  N   UNL     1       7.618   0.827   0.003  0.00  0.00    -0.329 N 
ATOM     16  H   UNL     1       7.494   1.789   0.025  0.00  0.00    +0.145 HD
ATOM     17  H   UNL     1       8.514   0.454  -0.015  0.00  0.00    +0.145 HD
ENDBRANCH  12  13
ENDBRANCH  11  12
ENDBRANCH   8  11
ENDBRANCH   1   9
BRANCH   3  18
ATOM     18  C   UNL     1       0.118  -4.306  -0.016  0.00  0.00    +0.116 C 
BRANCH  18  19
ATOM     19  C   UNL     1      -1.304  -4.856   0.114  0.00  0.00    +0.011 C 
ATOM     20  C   UNL     1      -1.953  -4.338   1.410  0.00  0.00    +0.013 C 
ATOM     21  C   UNL     1      -2.288  -5.580   2.261  0.00  0.00    +0.001 C 
ATOM     22  C   UNL     1      -1.312  -6.668   1.748  0.00  0.00    +0.001 C 
ATOM     23  C   UNL     1      -1.267  -6.394   0.224  0.00  0.00    +0.013 C 
BRANCH  19  24
ATOM     24  C   UNL     1      -2.127  -4.442  -1.078  0.00  0.00    -0.040 A 
ATOM     25  C   UNL     1      -1.530  -3.780  -2.134  0.00  0.00    +0.007 A 
ATOM     26  C   UNL     1      -2.284  -3.401  -3.228  0.00  0.00    +0.038 A 
ATOM     27  C   UNL     1      -3.639  -3.685  -3.266  0.00  0.00    +0.123 A 
ATOM     28  C   UNL     1      -4.237  -4.348  -2.208  0.00  0.00    +0.038 A 
ATOM     29  C   UNL     1      -3.479  -4.731  -1.117  0.00  0.00    +0.007 A 
ATOM     30  F   UNL     1      -4.378  -3.314  -4.335  0.00  0.00    -0.205 F 
ENDBRANCH  19  24
ENDBRANCH  18  19
ENDBRANCH   3  18
TORSDOF 7
