REMARK  Name = ZINC36818965
REMARK  7 active torsions:
REMARK  status: ('A' for Active; 'I' for Inactive)
REMARK    1  A    between atoms: C_1  and  C_2
REMARK    2  A    between atoms: C_2  and  O_3
REMARK    3  A    between atoms: O_3  and  C_4
REMARK    4  A    between atoms: C_7  and  C_9
REMARK    5  A    between atoms: C_9  and  S_10
REMARK    6  A    between atoms: S_10  and  C_11
REMARK    7  A    between atoms: C_21  and  C_25
REMARK                            x       y       z     vdW  Elec       q    Type
REMARK                         _______ _______ _______ _____ _____    ______ ____
ROOT
ATOM      1  C   UNL     1      -5.847  -6.658  -0.157  0.00  0.00    +0.191 A 
ATOM      2  N   UNL     1      -6.821  -5.755  -0.142  0.00  0.00    -0.207 NA
ATOM      3  C   UNL     1      -8.087  -6.089   0.041  0.00  0.00    +0.129 A 
ATOM      4  C   UNL     1      -8.425  -7.459   0.229  0.00  0.00    +0.051 A 
ATOM      5  C   UNL     1      -9.745  -8.054   0.449  0.00  0.00    -0.025 A 
ATOM      6  C   UNL     1      -9.795  -9.392   0.600  0.00  0.00    -0.004 A 
ATOM      7  S   UNL     1      -8.113  -9.937   0.461  0.00  0.00    -0.073 S 
ATOM      8  C   UNL     1      -7.343  -8.361   0.201  0.00  0.00    +0.115 A 
ATOM      9  N   UNL     1      -6.104  -7.949   0.007  0.00  0.00    -0.214 NA
ATOM     10  C   UNL     1     -11.012 -10.235   0.835  0.00  0.00    +0.046 C 
ATOM     11  C   UNL     1     -12.166  -9.312   1.253  0.00  0.00    -0.009 C 
ATOM     12  C   UNL     1     -12.223  -8.129   0.283  0.00  0.00    +0.008 C 
ATOM     13  C   UNL     1     -11.018  -7.215   0.508  0.00  0.00    +0.037 C 
ATOM     14  C   UNL     1     -13.485 -10.086   1.202  0.00  0.00    +0.008 C 
ATOM     15  N   UNL     1      -9.072  -5.118   0.050  0.00  0.00    -0.343 N 
ATOM     16  H   UNL     1      -8.886  -4.235  -0.306  0.00  0.00    +0.144 HD
ATOM     17  H   UNL     1      -9.949  -5.321   0.412  0.00  0.00    +0.144 HD
ENDROOT
BRANCH   1  18
ATOM     18  S   UNL     1      -4.184  -6.133  -0.407  0.00  0.00    -0.077 S 
BRANCH  18  19
ATOM     19  C   UNL     1      -4.314  -4.332  -0.579  0.00  0.00    +0.173 C 
BRANCH  19  23
ATOM     20  C   UNL     1      -1.567  -1.895  -1.155  0.00  0.00    +0.407 C 
ATOM     21  O   UNL     1      -0.596  -2.624  -1.193  0.00  0.00    -0.226 OA
ATOM     22  N   UNL     1      -2.793  -2.418  -0.957  0.00  0.00    -0.221 N 
ATOM     23  C   UNL     1      -2.943  -3.748  -0.801  0.00  0.00    +0.232 C 
ATOM     24  O   UNL     1      -1.973  -4.475  -0.839  0.00  0.00    -0.274 OA
ATOM     25  H   UNL     1      -3.569  -1.836  -0.926  0.00  0.00    +0.161 HD
BRANCH  20  26
ATOM     26  O   UNL     1      -1.418  -0.567  -1.310  0.00  0.00    -0.450 OA
BRANCH  26  28
ATOM     27  C   UNL     1      -0.120   1.439  -1.671  0.00  0.00    +0.048 C 
ATOM     28  C   UNL     1      -0.089  -0.083  -1.517  0.00  0.00    +0.230 C 
ENDBRANCH  26  28
ENDBRANCH  20  26
ENDBRANCH  19  23
ENDBRANCH  18  19
ENDBRANCH   1  18
TORSDOF 5
