REMARK  Name = ZINC00575002
REMARK  3 active torsions:
REMARK  status: ('A' for Active; 'I' for Inactive)
REMARK    1  A    between atoms: C_1  and  C_2
REMARK    2  A    between atoms: C_2  and  N_3
REMARK    3  A    between atoms: C_5  and  C_12
REMARK                            x       y       z     vdW  Elec       q    Type
REMARK                         _______ _______ _______ _____ _____    ______ ____
ROOT
ATOM      1  C   UNL     1      -2.467   2.147   0.024  0.00  0.00    +0.023 C 
ATOM      2  C   UNL     1      -1.488   2.489   0.934  0.00  0.00    +0.047 C 
ATOM      3  C   UNL     1      -0.915   1.641   2.003  0.00  0.00    +0.008 A 
ATOM      4  C   UNL     1      -1.152   0.333   2.412  0.00  0.00    +0.010 A 
ATOM      5  C   UNL     1      -0.435  -0.195   3.466  0.00  0.00    +0.001 A 
ATOM      6  C   UNL     1       0.515   0.576   4.115  0.00  0.00    +0.002 A 
ATOM      7  C   UNL     1       0.758   1.875   3.717  0.00  0.00    +0.024 A 
ATOM      8  C   UNL     1       0.045   2.424   2.656  0.00  0.00    +0.042 A 
ATOM      9  N   UNL     1       0.090   3.680   2.063  0.00  0.00    -0.281 N 
ATOM     10  C   UNL     1      -0.789   3.775   1.051  0.00  0.00    +0.249 C 
ATOM     11  O   UNL     1      -0.970   4.755   0.351  0.00  0.00    -0.270 OA
ATOM     12  H   UNL     1       0.680   4.396   2.345  0.00  0.00    +0.155 HD
ENDROOT
BRANCH   1  15
ATOM     13  N   UNL     1      -2.889  -1.426  -0.198  0.00  0.00    -0.346 N 
ATOM     14  C   UNL     1      -2.107  -0.325  -0.097  0.00  0.00    +0.094 A 
ATOM     15  C   UNL     1      -2.902   0.803  -0.076  0.00  0.00    +0.001 A 
ATOM     16  C   UNL     1      -4.295   0.328  -0.184  0.00  0.00    +0.007 A 
ATOM     17  C   UNL     1      -4.222  -1.071  -0.257  0.00  0.00    +0.050 A 
ATOM     18  C   UNL     1      -5.395  -1.810  -0.367  0.00  0.00    +0.026 A 
ATOM     19  C   UNL     1      -6.613  -1.166  -0.404  0.00  0.00    +0.002 A 
ATOM     20  C   UNL     1      -6.683   0.217  -0.331  0.00  0.00    +0.001 A 
ATOM     21  C   UNL     1      -5.532   0.966  -0.222  0.00  0.00    +0.010 A 
BRANCH  13  23
ATOM     22  C   UNL     1      -2.249  -3.245  -1.702  0.00  0.00    +0.027 C 
ATOM     23  C   UNL     1      -2.389  -2.803  -0.245  0.00  0.00    +0.118 C 
ENDBRANCH  13  23
ENDBRANCH   1  15
TORSDOF 2
