REMARK  Name = ZINC64057477
REMARK  7 active torsions:
REMARK  status: ('A' for Active; 'I' for Inactive)
REMARK    1  A    between atoms: C_1  and  N_2
REMARK    2  A    between atoms: C_6  and  S_12
REMARK    3  A    between atoms: S_12  and  N_15
REMARK    4  A    between atoms: N_15  and  C_16
REMARK    5  A    between atoms: C_16  and  C_17
REMARK    6  A    between atoms: C_17  and  C_19
REMARK    7  A    between atoms: C_17  and  C_26
REMARK                            x       y       z     vdW  Elec       q    Type
REMARK                         _______ _______ _______ _____ _____    ______ ____
ROOT
ATOM      1  C   UNL     1      -3.866  -5.811  -3.713  0.00  0.00    +0.064 C 
ENDROOT
BRANCH   1   2
ATOM      2  C   UNL     1      -2.778  -6.439  -4.546  0.00  0.00    -0.033 C 
ATOM      3  C   UNL     1      -2.686  -7.736  -4.919  0.00  0.00    -0.000 A 
ATOM      4  C   UNL     1      -3.536  -8.905  -4.668  0.00  0.00    +0.010 A 
ATOM      5  C   UNL     1      -3.174 -10.102  -5.184  0.00  0.00    +0.001 A 
ATOM      6  C   UNL     1      -2.010 -10.253  -5.950  0.00  0.00    +0.002 A 
ATOM      7  C   UNL     1      -1.179  -9.225  -6.223  0.00  0.00    +0.026 A 
ATOM      8  C   UNL     1      -1.462  -7.921  -5.731  0.00  0.00    +0.043 A 
ATOM      9  N   UNL     1      -0.823  -6.783  -5.856  0.00  0.00    -0.380 N 
ATOM     10  C   UNL     1      -1.573  -5.745  -5.141  0.00  0.00    +0.145 C 
ATOM     11  H   UNL     1       0.005  -6.649  -6.342  0.00  0.00    +0.160 HD
ENDBRANCH   1   2
BRANCH   1  12
ATOM     12  C   UNL     1      -4.548  -4.729  -4.510  0.00  0.00    -0.021 A 
ATOM     13  C   UNL     1      -3.819  -3.653  -4.981  0.00  0.00    +0.006 A 
ATOM     14  C   UNL     1      -4.445  -2.661  -5.712  0.00  0.00    +0.000 A 
ATOM     15  C   UNL     1      -5.800  -2.744  -5.972  0.00  0.00    +0.001 A 
ATOM     16  C   UNL     1      -6.530  -3.818  -5.502  0.00  0.00    +0.020 A 
ATOM     17  C   UNL     1      -5.903  -4.815  -4.775  0.00  0.00    +0.045 A 
ATOM     18 CL   UNL     1      -6.818  -6.169  -4.189  0.00  0.00    -0.083 Cl
ENDBRANCH   1  12
BRANCH   1  19
ATOM     19  C   UNL     1      -3.254  -5.204  -2.449  0.00  0.00    +0.118 C 
BRANCH  19  20
ATOM     20  N   UNL     1      -4.322  -4.700  -1.582  0.00  0.00    -0.189 NA
ATOM     21  H   UNL     1      -5.218  -4.582  -1.935  0.00  0.00    +0.148 HD
BRANCH  20  22
ATOM     22  S   UNL     1      -4.000  -4.331  -0.000  0.00  0.00    +0.059 S 
ATOM     23  O   UNL     1      -3.300  -5.443   0.541  0.00  0.00    -0.153 OA
ATOM     24  O   UNL     1      -5.214  -3.849   0.559  0.00  0.00    -0.153 OA
BRANCH  22  30
ATOM     25  C   UNL     1      -0.018   1.461   0.010  0.00  0.00    +0.156 C 
ATOM     26  N   UNL     1       0.002  -0.004   0.002  0.00  0.00    -0.277 N 
ATOM     27  C   UNL     1      -1.111  -0.844   0.003  0.00  0.00    +0.090 A 
ATOM     28  C   UNL     1      -2.478  -0.613   0.010  0.00  0.00    +0.031 A 
ATOM     29  C   UNL     1      -3.355  -1.680   0.009  0.00  0.00    +0.031 A 
ATOM     30  C   UNL     1      -2.873  -2.977   0.000  0.00  0.00    +0.109 A 
ATOM     31  C   UNL     1      -1.513  -3.215  -0.008  0.00  0.00    +0.077 A 
ATOM     32  C   UNL     1      -0.625  -2.151  -0.007  0.00  0.00    +0.159 A 
ATOM     33  O   UNL     1       0.729  -2.076  -0.013  0.00  0.00    -0.407 OA
ATOM     34  C   UNL     1       1.100  -0.786  -0.013  0.00  0.00    +0.421 A 
ATOM     35  O   UNL     1       2.248  -0.385  -0.022  0.00  0.00    -0.223 OA
ENDBRANCH  22  30
ENDBRANCH  20  22
ENDBRANCH  19  20
ENDBRANCH   1  19
TORSDOF 6
