REMARK  Name = ZINC26338746
REMARK  12 active torsions:
REMARK  status: ('A' for Active; 'I' for Inactive)
REMARK    1  A    between atoms: C_1  and  C_2
REMARK    2  A    between atoms: C_2  and  C_4
REMARK    3  A    between atoms: C_2  and  N_31
REMARK    4  A    between atoms: C_7  and  S_16
REMARK    5  A    between atoms: N_8  and  C_9
REMARK    6  A    between atoms: S_16  and  C_17
REMARK    7  A    between atoms: C_17  and  C_18
REMARK    8  A    between atoms: C_18  and  C_19
REMARK    9  A    between atoms: N_21  and  C_22
REMARK   10  A    between atoms: C_27  and  N_28
REMARK   11  A    between atoms: N_31  and  C_32
REMARK   12  A    between atoms: N_31  and  C_33
REMARK                            x       y       z     vdW  Elec       q    Type
REMARK                         _______ _______ _______ _____ _____    ______ ____
ROOT
ATOM      1  C   UNL     1      -1.393   3.459   2.559  0.00  0.00    +0.125 A 
ATOM      2  N   UNL     1      -2.519   2.988   3.013  0.00  0.00    -0.135 NA
ATOM      3  N   UNL     1      -2.849   3.594   4.097  0.00  0.00    -0.122 NA
ATOM      4  C   UNL     1      -1.947   4.501   4.393  0.00  0.00    +0.196 A 
ATOM      5  N   UNL     1      -0.987   4.444   3.420  0.00  0.00    -0.275 N 
ENDROOT
BRANCH   5   6
ATOM      6  C   UNL     1       0.171   5.231   3.324  0.00  0.00    +0.050 A 
ATOM      7  C   UNL     1       1.423   4.642   3.440  0.00  0.00    +0.028 A 
ATOM      8  C   UNL     1       2.561   5.417   3.339  0.00  0.00    +0.022 A 
ATOM      9  C   UNL     1       2.455   6.781   3.135  0.00  0.00    +0.041 A 
ATOM     10  C   UNL     1       1.208   7.372   3.025  0.00  0.00    +0.022 A 
ATOM     11  C   UNL     1       0.067   6.599   3.120  0.00  0.00    +0.028 A 
ATOM     12 CL   UNL     1       3.888   7.754   3.016  0.00  0.00    -0.084 Cl
ENDBRANCH   5   6
BRANCH   1  14
ATOM     13  C   UNL     1      -1.400   3.549   0.081  0.00  0.00    -0.005 C 
ATOM     14  C   UNL     1      -0.672   3.010   1.314  0.00  0.00    -0.003 C 
BRANCH  14  15
ATOM     15  N   UNL     1      -0.649   1.542   1.265  0.00  0.00    +0.382 N 
ATOM     16  C   UNL     1       0.047   1.066   0.062  0.00  0.00    -0.096 C 
ATOM     17  C   UNL     1      -0.040   0.985   2.480  0.00  0.00    -0.096 C 
ATOM     18  H   UNL     1      -1.689   1.188   1.216  0.00  0.00    -0.082 HD
ENDBRANCH  14  15
ENDBRANCH   1  14
BRANCH   4  19
ATOM     19  S   UNL     1      -1.968   5.586   5.782  0.00  0.00    -0.085 S 
BRANCH  19  20
ATOM     20  C   UNL     1      -3.511   5.060   6.568  0.00  0.00    +0.086 C 
BRANCH  20  21
ATOM     21  C   UNL     1      -3.747   5.887   7.833  0.00  0.00    +0.107 C 
BRANCH  21  22
ATOM     22  C   UNL     1      -5.032   5.449   8.488  0.00  0.00    +0.218 C 
ATOM     23  O   UNL     1      -5.694   4.563   7.991  0.00  0.00    -0.275 OA
ATOM     24  N   UNL     1      -5.445   6.042   9.625  0.00  0.00    -0.284 N 
ATOM     25  H   UNL     1      -4.810   6.795  10.115  0.00  0.00    +0.155 HD
BRANCH  24  26
ATOM     26  C   UNL     1      -6.683   5.701  10.182  0.00  0.00    +0.064 A 
ATOM     27  C   UNL     1      -7.146   4.394  10.101  0.00  0.00    +0.025 A 
ATOM     28  C   UNL     1      -8.365   4.060  10.656  0.00  0.00    +0.002 A 
ATOM     29  C   UNL     1      -9.129   5.027  11.284  0.00  0.00    +0.002 A 
ATOM     30  C   UNL     1      -8.673   6.330  11.362  0.00  0.00    +0.034 A 
ATOM     31  C   UNL     1      -7.452   6.670  10.813  0.00  0.00    +0.147 A 
BRANCH  31  32
ATOM     32  N   UNL     1      -6.965   8.065  10.896  0.00  0.00    +0.058 N 
ATOM     33  O   UNL     1      -7.592   8.892  11.534  0.00  0.00    -0.126 OA
ATOM     34  O   UNL     1      -5.938   8.386  10.326  0.00  0.00    -0.126 OA
ENDBRANCH  31  32
ENDBRANCH  24  26
ENDBRANCH  21  22
ENDBRANCH  20  21
ENDBRANCH  19  20
ENDBRANCH   4  19
TORSDOF 9
