REMARK  Name = ZINC39466537
REMARK  8 active torsions:
REMARK  status: ('A' for Active; 'I' for Inactive)
REMARK    1  A    between atoms: C_1  and  C_2
REMARK    2  A    between atoms: C_2  and  C_3
REMARK    3  A    between atoms: C_2  and  S_4
REMARK    4  A    between atoms: S_4  and  C_7
REMARK    5  A    between atoms: C_19  and  C_20
REMARK    6  A    between atoms: C_25  and  O_26
REMARK    7  A    between atoms: P_29  and  C_32
REMARK    8  A    between atoms: C_32  and  C_33
REMARK                            x       y       z     vdW  Elec       q    Type
REMARK                         _______ _______ _______ _____ _____    ______ ____
ROOT
ATOM      1  C   UNL     1      -1.536  -2.381   0.152  0.00  0.00    +0.092 C 
ATOM      2  C   UNL     1      -1.985  -3.012   1.236  0.00  0.00    +0.003 C 
ATOM      3  C   UNL     1      -1.842  -4.506   1.319  0.00  0.00    +0.006 C 
ATOM      4  C   UNL     1      -2.846  -5.114   2.290  0.00  0.00    -0.046 C 
ATOM      5  N   UNL     1      -2.639  -6.571   2.374  0.00  0.00    +0.397 N 
ATOM      6  C   UNL     1      -2.817  -7.212   1.072  0.00  0.00    -0.020 C 
ATOM      7  C   UNL     1      -1.865  -6.614   0.026  0.00  0.00    -0.003 C 
ATOM      8  C   UNL     1      -2.101  -5.110  -0.068  0.00  0.00    +0.016 C 
ATOM      9  C   UNL     1      -1.167  -4.470  -1.058  0.00  0.00    -0.013 C 
ATOM     10  C   UNL     1      -0.905  -3.156  -0.938  0.00  0.00    +0.006 C 
ATOM     11  C   UNL     1      -2.505  -8.713   1.138  0.00  0.00    +0.156 C 
ATOM     12  O   UNL     1      -3.418  -9.350   2.050  0.00  0.00    -0.319 OA
ATOM     13  P   UNL     1      -3.599  -8.690   3.526  0.00  0.00    +0.262 P 
ATOM     14  O   UNL     1      -2.487  -9.102   4.412  0.00  0.00    -0.274 OA
ATOM     15  N   UNL     1      -3.571  -7.042   3.274  0.00  0.00    -0.291 NA
ATOM     16  H   UNL     1      -4.167  -6.438   3.744  0.00  0.00    +0.111 HD
ATOM     17  H   UNL     1      -1.710  -6.760   2.721  0.00  0.00    -0.055 HD
ENDROOT
BRANCH  10  18
ATOM     18  C   UNL     1       0.016  -2.492  -1.891  0.00  0.00    +0.025 A 
ATOM     19  C   UNL     1      -0.488  -1.655  -2.885  0.00  0.00    +0.012 A 
ATOM     20  C   UNL     1       0.373  -1.038  -3.769  0.00  0.00    +0.001 A 
ATOM     21  C   UNL     1       1.738  -1.248  -3.673  0.00  0.00    +0.004 A 
ATOM     22  C   UNL     1       2.249  -2.076  -2.692  0.00  0.00    +0.046 A 
ATOM     23  C   UNL     1       1.396  -2.697  -1.794  0.00  0.00    +0.125 A 
BRANCH  23  24
ATOM     24  O   UNL     1       1.898  -3.506  -0.826  0.00  0.00    -0.506 OA
ATOM     25  H   UNL     1       1.979  -4.433  -1.091  0.00  0.00    +0.292 HD
ENDBRANCH  23  24
ENDBRANCH  10  18
BRANCH   1  26
ATOM     26  S   UNL     1      -1.700  -0.632   0.015  0.00  0.00    -0.001 S 
ATOM     27  O   UNL     1      -2.359  -0.234   1.209  0.00  0.00    -0.169 OA
ATOM     28  O   UNL     1      -2.308  -0.423  -1.252  0.00  0.00    -0.169 OA
BRANCH  26  30
ATOM     29  C   UNL     1      -0.019   1.526   0.010  0.00  0.00    +0.032 C 
ATOM     30  C   UNL     1       0.002  -0.004   0.002  0.00  0.00    +0.130 C 
ATOM     31  C   UNL     1       0.742  -0.511   1.242  0.00  0.00    +0.032 C 
ENDBRANCH  26  30
ENDBRANCH   1  26
BRANCH  13  32
ATOM     32  C   UNL     1      -5.198  -9.184   4.248  0.00  0.00    +0.147 C 
BRANCH  32  33
ATOM     33  C   UNL     1      -5.252 -10.685   4.370  0.00  0.00    -0.037 A 
ATOM     34  C   UNL     1      -5.744 -11.446   3.327  0.00  0.00    +0.004 A 
ATOM     35  C   UNL     1      -5.793 -12.823   3.439  0.00  0.00    +0.000 A 
ATOM     36  C   UNL     1      -5.349 -13.438   4.595  0.00  0.00    +0.000 A 
ATOM     37  C   UNL     1      -4.856 -12.677   5.638  0.00  0.00    +0.000 A 
ATOM     38  C   UNL     1      -4.803 -11.300   5.524  0.00  0.00    +0.004 A 
ENDBRANCH  32  33
ENDBRANCH  13  32
TORSDOF 6
