REMARK  Name = ZINC12876646
REMARK  9 active torsions:
REMARK  status: ('A' for Active; 'I' for Inactive)
REMARK    1  A    between atoms: C_1  and  C_2
REMARK    2  A    between atoms: C_3  and  C_12
REMARK    3  A    between atoms: C_12  and  C_14
REMARK    4  A    between atoms: C_14  and  C_16
REMARK    5  A    between atoms: C_14  and  O_17
REMARK    6  A    between atoms: O_17  and  C_18
REMARK    7  A    between atoms: C_18  and  C_20
REMARK    8  A    between atoms: C_20  and  C_21
REMARK    9  A    between atoms: C_21  and  N_22
REMARK                            x       y       z     vdW  Elec       q    Type
REMARK                         _______ _______ _______ _____ _____    ______ ____
ROOT
ATOM      1  C   UNL     1      -5.034   0.199  -0.106  0.00  0.00    +0.244 C 
ATOM      2  C   UNL     1      -5.474   0.332  -1.565  0.00  0.00    +0.061 C 
ENDROOT
BRANCH   1   3
ATOM      3  C   UNL     1      -3.529   0.191  -0.033  0.00  0.00    +0.205 C 
ATOM      4  O   UNL     1      -2.934  -0.856   0.122  0.00  0.00    -0.288 OA
BRANCH   3   7
ATOM      5  C   UNL     1      -2.951   2.142   2.306  0.00  0.00    +0.064 C 
ATOM      6  C   UNL     1      -2.530   2.300   0.867  0.00  0.00    +0.025 A 
ATOM      7  C   UNL     1      -2.808   1.406  -0.145  0.00  0.00    +0.049 A 
ATOM      8  C   UNL     1      -2.210   1.972  -1.370  0.00  0.00    +0.011 A 
ATOM      9  C   UNL     1      -2.139   1.552  -2.695  0.00  0.00    +0.011 A 
ATOM     10  C   UNL     1      -1.480   2.329  -3.623  0.00  0.00    +0.001 A 
ATOM     11  C   UNL     1      -0.885   3.522  -3.240  0.00  0.00    +0.002 A 
ATOM     12  C   UNL     1      -0.943   3.947  -1.930  0.00  0.00    +0.026 A 
ATOM     13  C   UNL     1      -1.604   3.176  -0.979  0.00  0.00    +0.047 A 
ATOM     14  N   UNL     1      -1.824   3.335   0.375  0.00  0.00    -0.358 N 
ATOM     15  H   UNL     1      -1.512   4.090   0.899  0.00  0.00    +0.166 HD
ENDBRANCH   3   7
ENDBRANCH   1   3
BRANCH   1  16
ATOM     16  O   UNL     1      -5.552  -1.042   0.444  0.00  0.00    -0.454 OA
BRANCH  16  17
ATOM     17  C   UNL     1      -6.761  -0.993   1.026  0.00  0.00    +0.309 C 
ATOM     18  O   UNL     1      -7.367   0.052   1.073  0.00  0.00    -0.251 OA
BRANCH  17  19
ATOM     19  C   UNL     1      -7.362  -2.241   1.619  0.00  0.00    +0.142 C 
BRANCH  19  20
ATOM     20  C   UNL     1      -8.734  -1.913   2.213  0.00  0.00    +0.137 C 
BRANCH  20  21
ATOM     21  N   UNL     1      -9.319  -3.126   2.790  0.00  0.00    -0.298 N 
ATOM     22  C   UNL     1     -10.098  -3.922   2.014  0.00  0.00    +0.203 A 
ATOM     23  N   UNL     1     -10.634  -5.014   2.490  0.00  0.00    -0.230 NA
ATOM     24  C   UNL     1     -10.441  -5.377   3.754  0.00  0.00    +0.115 A 
ATOM     25  C   UNL     1      -9.653  -4.614   4.635  0.00  0.00    +0.072 A 
ATOM     26  C   UNL     1      -9.077  -3.426   4.079  0.00  0.00    +0.262 A 
ATOM     27  O   UNL     1      -8.378  -2.698   4.763  0.00  0.00    -0.267 OA
ATOM     28  C   UNL     1      -9.543  -5.149   5.979  0.00  0.00    +0.023 A 
ATOM     29  C   UNL     1     -10.176  -6.293   6.283  0.00  0.00    +0.048 A 
ATOM     30  S   UNL     1     -10.979  -6.739   4.755  0.00  0.00    -0.077 S 
ENDBRANCH  20  21
ENDBRANCH  19  20
ENDBRANCH  17  19
ENDBRANCH  16  17
ENDBRANCH   1  16
TORSDOF 7
