REMARK  Name = ZINC20642777
REMARK  15 active torsions:
REMARK  status: ('A' for Active; 'I' for Inactive)
REMARK    1  A    between atoms: C_1  and  C_2
REMARK    2  A    between atoms: C_2  and  C_3
REMARK    3  A    between atoms: C_3  and  C_4
REMARK    4  A    between atoms: C_4  and  N_5
REMARK    5  A    between atoms: C_6  and  C_8
REMARK    6  A    between atoms: C_8  and  C_9
REMARK    7  A    between atoms: C_9  and  C_10
REMARK    8  A    between atoms: C_24  and  S_25
REMARK    9  A    between atoms: S_25  and  C_26
REMARK   10  A    between atoms: C_26  and  C_28
REMARK   11  A    between atoms: C_26  and  C_30
REMARK   12  A    between atoms: C_28  and  C_29
REMARK   13  A    between atoms: N_32  and  C_33
REMARK   14  A    between atoms: C_36  and  C_39
REMARK   15  A    between atoms: C_39  and  C_40
REMARK                            x       y       z     vdW  Elec       q    Type
REMARK                         _______ _______ _______ _____ _____    ______ ____
ROOT
ATOM      1  C   UNL     1       1.193  -4.662  -0.527  0.00  0.00    +0.194 C 
ATOM      2  C   UNL     1       2.655  -4.280  -0.447  0.00  0.00    +0.251 C 
ATOM      3  O   UNL     1       3.611  -5.025  -0.477  0.00  0.00    -0.272 OA
ATOM      4  N   UNL     1       2.671  -2.933  -0.333  0.00  0.00    -0.200 N 
ATOM      5  C   UNL     1       1.379  -2.435  -0.335  0.00  0.00    +0.139 C 
ATOM      6  N   UNL     1       0.485  -3.377  -0.443  0.00  0.00    -0.255 NA
ATOM      7  C   UNL     1       1.218  -0.969  -0.217  0.00  0.00    +0.041 A 
ATOM      8  C   UNL     1      -0.039  -0.374  -0.210  0.00  0.00    +0.013 A 
ATOM      9  C   UNL     1      -0.142   0.997  -0.099  0.00  0.00    +0.001 A 
ATOM     10  C   UNL     1       0.997   1.783   0.004  0.00  0.00    +0.002 A 
ATOM     11  C   UNL     1       2.250   1.212  -0.001  0.00  0.00    +0.028 A 
ATOM     12  C   UNL     1       2.379  -0.175  -0.113  0.00  0.00    +0.077 A 
ATOM     13  N   UNL     1       3.597  -0.771  -0.123  0.00  0.00    -0.225 NA
ATOM     14  C   UNL     1       3.738  -2.065  -0.226  0.00  0.00    +0.170 C 
ENDROOT
BRANCH   1  15
ATOM     15  C   UNL     1       0.891  -5.354  -1.857  0.00  0.00    +0.045 C 
BRANCH  15  16
ATOM     16  C   UNL     1      -0.586  -5.752  -1.902  0.00  0.00    +0.098 C 
BRANCH  16  18
ATOM     17  N   UNL     1      -2.129  -6.875  -3.476  0.00  0.00    -0.315 N 
ATOM     18  C   UNL     1      -0.882  -6.434  -3.213  0.00  0.00    +0.213 C 
ATOM     19  O   UNL     1       0.000  -6.587  -4.030  0.00  0.00    -0.276 OA
ATOM     20  H   UNL     1      -2.929  -6.736  -2.734  0.00  0.00    +0.149 HD
BRANCH  17  21
ATOM     21  C   UNL     1      -2.417  -7.537  -4.750  0.00  0.00    +0.104 C 
BRANCH  21  22
ATOM     22  C   UNL     1      -3.894  -7.935  -4.795  0.00  0.00    +0.018 C 
BRANCH  22  24
ATOM     23  C   UNL     1      -5.672  -9.026  -6.170  0.00  0.00    +0.004 C 
ATOM     24  C   UNL     1      -4.196  -8.628  -6.126  0.00  0.00    -0.002 C 
ENDBRANCH  22  24
ENDBRANCH  21  22
ENDBRANCH  17  21
ENDBRANCH  16  18
ENDBRANCH  15  16
ENDBRANCH   1  15
BRANCH  14  25
ATOM     25  S   UNL     1       5.368  -2.734  -0.227  0.00  0.00    -0.077 S 
BRANCH  25  26
ATOM     26  C   UNL     1       6.336  -1.205  -0.221  0.00  0.00    +0.140 C 
BRANCH  26  27
ATOM     27  C   UNL     1       6.190  -0.523   1.115  0.00  0.00    +0.231 C 
ATOM     28  O   UNL     1       5.910  -1.173   2.100  0.00  0.00    -0.274 OA
ATOM     29  N   UNL     1       6.370   0.809   1.214  0.00  0.00    -0.285 N 
ATOM     30  H   UNL     1       6.538   1.411   0.309  0.00  0.00    +0.155 HD
BRANCH  29  31
ATOM     31  C   UNL     1       6.342   1.426   2.470  0.00  0.00    +0.033 A 
ATOM     32  C   UNL     1       5.826   2.709   2.603  0.00  0.00    +0.023 A 
ATOM     33  C   UNL     1       5.796   3.313   3.845  0.00  0.00    +0.005 A 
ATOM     34  C   UNL     1       6.288   2.648   4.952  0.00  0.00    -0.048 A 
ATOM     35  C   UNL     1       6.807   1.373   4.822  0.00  0.00    +0.005 A 
ATOM     36  C   UNL     1       6.836   0.760   3.584  0.00  0.00    +0.023 A 
BRANCH  34  37
ATOM     37  C   UNL     1       6.260   3.313   6.304  0.00  0.00    +0.032 C 
ATOM     38  C   UNL     1       7.558   4.096   6.514  0.00  0.00    +0.009 C 
ENDBRANCH  34  37
ENDBRANCH  29  31
ENDBRANCH  26  27
BRANCH  26  39
ATOM     39  C   UNL     1       7.810  -1.534  -0.468  0.00  0.00    +0.020 C 
ATOM     40  C   UNL     1       7.978  -2.096  -1.881  0.00  0.00    +0.005 C 
ENDBRANCH  26  39
ENDBRANCH  25  26
ENDBRANCH  14  25
TORSDOF 12
