REMARK  Name = ZINC22146637
REMARK  5 active torsions:
REMARK  status: ('A' for Active; 'I' for Inactive)
REMARK    1  A    between atoms: C_1  and  C_2
REMARK    2  A    between atoms: C_4  and  N_11
REMARK    3  A    between atoms: C_7  and  N_8
REMARK    4  A    between atoms: C_12  and  C_14
REMARK    5  A    between atoms: C_27  and  C_30
REMARK                            x       y       z     vdW  Elec       q    Type
REMARK                         _______ _______ _______ _____ _____    ______ ____
ROOT
ATOM      1  C   UNL     1      -1.572  -0.473  -0.451  0.00  0.00    +0.037 A 
ATOM      2  C   UNL     1      -0.373   0.230  -0.605  0.00  0.00    +0.015 A 
ATOM      3  C   UNL     1      -0.390   1.605  -0.615  0.00  0.00    +0.024 A 
ATOM      4  C   UNL     1      -1.593   2.293  -0.472  0.00  0.00    +0.031 A 
ATOM      5  C   UNL     1      -2.790   1.603  -0.320  0.00  0.00    -0.019 A 
ATOM      6  C   UNL     1      -2.774   0.220  -0.309  0.00  0.00    +0.019 A 
ATOM      7  C   UNL     1      -4.104   2.304  -0.173  0.00  0.00    +0.049 C 
ATOM      8  C   UNL     1      -4.603   2.245   1.251  0.00  0.00    -0.023 C 
ATOM      9  C   UNL     1      -5.209   3.363   1.567  0.00  0.00    -0.030 C 
ATOM     10  C   UNL     1      -5.200   4.321   0.398  0.00  0.00    +0.033 C 
ATOM     11  C   UNL     1      -4.021   3.811  -0.481  0.00  0.00    +0.029 C 
ATOM     12  C   UNL     1      -2.731   4.393   0.103  0.00  0.00    +0.105 C 
ATOM     13  N   UNL     1      -1.585   3.686  -0.478  0.00  0.00    -0.336 N 
ATOM     14  H   UNL     1      -0.747   4.255  -0.905  0.00  0.00    +0.147 HD
ENDROOT
BRANCH  12  15
ATOM     15  C   UNL     1      -2.728   4.213   1.600  0.00  0.00    -0.027 A 
ATOM     16  C   UNL     1      -3.273   5.189   2.413  0.00  0.00    +0.008 A 
ATOM     17  C   UNL     1      -3.276   5.023   3.785  0.00  0.00    +0.038 A 
ATOM     18  C   UNL     1      -2.723   3.884   4.346  0.00  0.00    +0.123 A 
ATOM     19  C   UNL     1      -2.173   2.910   3.530  0.00  0.00    +0.038 A 
ATOM     20  C   UNL     1      -2.176   3.076   2.158  0.00  0.00    +0.008 A 
ATOM     21  F   UNL     1      -2.720   3.724   5.687  0.00  0.00    -0.205 F 
ENDBRANCH  12  15
BRANCH   1  23
ATOM     22  N   UNL     1      -0.403  -2.618  -0.574  0.00  0.00    -0.281 N 
ATOM     23  C   UNL     1      -1.565  -1.948  -0.437  0.00  0.00    +0.248 C 
ATOM     24  O   UNL     1      -2.607  -2.560  -0.302  0.00  0.00    -0.270 OA
ATOM     25  H   UNL     1       0.548  -2.067  -0.611  0.00  0.00    +0.155 HD
BRANCH  22  29
ATOM     26  C   UNL     1       1.518  -6.737  -2.448  0.00  0.00    +0.046 C 
ATOM     27  C   UNL     1       0.513  -6.036  -1.571  0.00  0.00    -0.019 A 
ATOM     28  C   UNL     1       0.519  -4.658  -1.479  0.00  0.00    +0.029 A 
ATOM     29  C   UNL     1      -0.407  -4.013  -0.670  0.00  0.00    +0.034 A 
ATOM     30  C   UNL     1      -1.335  -4.757   0.048  0.00  0.00    +0.025 A 
ATOM     31  C   UNL     1      -1.339  -6.135  -0.052  0.00  0.00    +0.035 A 
ATOM     32  C   UNL     1      -0.415  -6.774  -0.859  0.00  0.00    +0.129 A 
BRANCH  32  33
ATOM     33  N   UNL     1      -0.419  -8.251  -0.960  0.00  0.00    +0.057 N 
ATOM     34  O   UNL     1      -1.305  -8.895  -0.428  0.00  0.00    -0.126 OA
ATOM     35  O   UNL     1       0.464  -8.821  -1.575  0.00  0.00    -0.126 OA
ENDBRANCH  32  33
ENDBRANCH  22  29
ENDBRANCH   1  23
TORSDOF 4
