REMARK  Name = ZINC39987444
REMARK  12 active torsions:
REMARK  status: ('A' for Active; 'I' for Inactive)
REMARK    1  A    between atoms: C_1  and  C_2
REMARK    2  A    between atoms: C_5  and  O_8
REMARK    3  A    between atoms: O_8  and  C_9
REMARK    4  A    between atoms: C_9  and  C_10
REMARK    5  A    between atoms: C_10  and  C_11
REMARK    6  A    between atoms: C_11  and  N_12
REMARK    7  A    between atoms: N_20  and  N_21
REMARK    8  A    between atoms: C_22  and  C_24
REMARK    9  A    between atoms: C_24  and  C_26
REMARK   10  A    between atoms: C_24  and  O_27
REMARK   11  A    between atoms: O_27  and  C_28
REMARK   12  A    between atoms: C_31  and  O_34
REMARK                            x       y       z     vdW  Elec       q    Type
REMARK                         _______ _______ _______ _____ _____    ______ ____
ROOT
ATOM      1  N   UNL     1      -0.233  -9.040   2.944  0.00  0.00    -0.265 N 
ATOM      2  C   UNL     1      -1.313  -9.876   2.682  0.00  0.00    +0.046 A 
ATOM      3  C   UNL     1      -2.685  -9.662   2.755  0.00  0.00    +0.024 A 
ATOM      4  C   UNL     1      -3.562 -10.678   2.436  0.00  0.00    +0.002 A 
ATOM      5  C   UNL     1      -3.091 -11.919   2.041  0.00  0.00    +0.001 A 
ATOM      6  C   UNL     1      -1.732 -12.150   1.964  0.00  0.00    +0.012 A 
ATOM      7  C   UNL     1      -0.840 -11.132   2.283  0.00  0.00    +0.028 A 
ATOM      8  C   UNL     1       0.639 -11.049   2.305  0.00  0.00    +0.153 C 
ATOM      9  N   UNL     1       1.496 -11.994   2.003  0.00  0.00    -0.174 NA
ATOM     10  C   UNL     1       0.937  -9.668   2.736  0.00  0.00    +0.271 C 
ATOM     11  O   UNL     1       2.045  -9.186   2.880  0.00  0.00    -0.268 OA
ENDROOT
BRANCH   9  12
ATOM     12  N   UNL     1       2.872 -11.742   2.079  0.00  0.00    -0.203 N 
ATOM     13  C   UNL     1       3.753 -12.713   1.768  0.00  0.00    +0.273 C 
ATOM     14  O   UNL     1       3.355 -13.805   1.423  0.00  0.00    -0.270 OA
ATOM     15  H   UNL     1       3.191 -10.868   2.356  0.00  0.00    +0.177 HD
BRANCH  13  16
ATOM     16  C   UNL     1       5.234 -12.442   1.851  0.00  0.00    +0.257 C 
ATOM     17  C   UNL     1       5.616 -11.383   0.814  0.00  0.00    +0.062 C 
BRANCH  16  18
ATOM     18  O   UNL     1       5.954 -13.648   1.589  0.00  0.00    -0.480 OA
BRANCH  18  19
ATOM     19  C   UNL     1       7.208 -13.743   2.107  0.00  0.00    +0.122 A 
ATOM     20  C   UNL     1       7.921 -14.926   1.984  0.00  0.00    +0.049 A 
ATOM     21  C   UNL     1       9.194 -15.022   2.511  0.00  0.00    +0.049 A 
ATOM     22  C   UNL     1       9.760 -13.936   3.162  0.00  0.00    +0.117 A 
ATOM     23  C   UNL     1       9.047 -12.753   3.284  0.00  0.00    +0.049 A 
ATOM     24  C   UNL     1       7.775 -12.655   2.753  0.00  0.00    +0.049 A 
BRANCH  22  25
ATOM     25  O   UNL     1      11.013 -14.031   3.681  0.00  0.00    -0.507 OA
ATOM     26  H   UNL     1      11.714 -13.776   3.065  0.00  0.00    +0.292 HD
ENDBRANCH  22  25
ENDBRANCH  18  19
ENDBRANCH  16  18
ENDBRANCH  13  16
ENDBRANCH   9  12
BRANCH   1  27
ATOM     27  C   UNL     1      -0.354  -7.648   3.386  0.00  0.00    +0.117 C 
BRANCH  27  28
ATOM     28  C   UNL     1      -0.407  -6.728   2.164  0.00  0.00    +0.060 C 
BRANCH  28  29
ATOM     29  C   UNL     1      -0.534  -5.275   2.625  0.00  0.00    +0.230 C 
BRANCH  29  30
ATOM     30  O   UNL     1      -0.584  -4.416   1.484  0.00  0.00    -0.492 OA
BRANCH  30  35
ATOM     31  C   UNL     1      -1.055   1.111   2.462  0.00  0.00    +0.044 C 
ATOM     32  C   UNL     1      -0.928  -0.368   2.200  0.00  0.00    -0.050 A 
ATOM     33  C   UNL     1      -0.866  -0.836   0.901  0.00  0.00    +0.007 A 
ATOM     34  C   UNL     1      -0.750  -2.191   0.658  0.00  0.00    +0.046 A 
ATOM     35  C   UNL     1      -0.697  -3.083   1.720  0.00  0.00    +0.121 A 
ATOM     36  C   UNL     1      -0.759  -2.611   3.023  0.00  0.00    +0.046 A 
ATOM     37  C   UNL     1      -0.870  -1.254   3.260  0.00  0.00    +0.007 A 
ENDBRANCH  30  35
ENDBRANCH  29  30
ENDBRANCH  28  29
ENDBRANCH  27  28
ENDBRANCH   1  27
TORSDOF 10
