REMARK  Name = ZINC31491307
REMARK  7 active torsions:
REMARK  status: ('A' for Active; 'I' for Inactive)
REMARK    1  A    between atoms: C_1  and  C_2
REMARK    2  A    between atoms: C_5  and  C_7
REMARK    3  A    between atoms: N_9  and  C_10
REMARK    4  A    between atoms: C_10  and  C_11
REMARK    5  A    between atoms: C_11  and  C_12
REMARK    6  A    between atoms: N_14  and  N_15
REMARK    7  A    between atoms: N_15  and  C_16
REMARK                            x       y       z     vdW  Elec       q    Type
REMARK                         _______ _______ _______ _____ _____    ______ ____
ROOT
ATOM      1  C   UNL     1       4.480  -2.124   5.205  0.00  0.00    +0.231 C 
ATOM      2  O   UNL     1       5.022  -2.374   4.150  0.00  0.00    -0.274 OA
ATOM      3  N   UNL     1       5.047  -2.518   6.363  0.00  0.00    -0.236 N 
ATOM      4  H   UNL     1       4.555  -2.291   7.321  0.00  0.00    +0.173 HD
ENDROOT
BRANCH   3   5
ATOM      5  N   UNL     1       6.261  -3.216   6.347  0.00  0.00    -0.259 N 
ATOM      6  H   UNL     1       6.709  -3.519   5.389  0.00  0.00    +0.170 HD
BRANCH   5   7
ATOM      7  C   UNL     1       6.902  -3.528   7.546  0.00  0.00    +0.124 A 
ATOM      8  C   UNL     1       6.862  -2.648   8.629  0.00  0.00    +0.203 A 
ATOM      9  C   UNL     1       7.506  -2.996   9.802  0.00  0.00    +0.253 A 
ATOM     10  N   UNL     1       8.163  -4.139   9.901  0.00  0.00    -0.186 NA
ATOM     11  C   UNL     1       8.229  -4.996   8.896  0.00  0.00    +0.253 A 
ATOM     12  C   UNL     1       7.606  -4.723   7.691  0.00  0.00    +0.203 A 
ATOM     13  F   UNL     1       7.678  -5.604   6.669  0.00  0.00    -0.199 F 
ATOM     14  F   UNL     1       8.912  -6.151   9.048  0.00  0.00    -0.181 F 
ATOM     15  F   UNL     1       7.469  -2.155  10.858  0.00  0.00    -0.181 F 
ATOM     16  F   UNL     1       6.198  -1.476   8.533  0.00  0.00    -0.199 F 
ENDBRANCH   5   7
ENDBRANCH   3   5
BRANCH   1  17
ATOM     17  C   UNL     1       3.174  -1.372   5.223  0.00  0.00    +0.116 C 
BRANCH  17  18
ATOM     18  C   UNL     1       2.754  -1.046   3.788  0.00  0.00    +0.113 C 
BRANCH  18  21
ATOM     19  C   UNL     1       0.918   0.078   2.647  0.00  0.00    +0.216 C 
ATOM     20  O   UNL     1       1.460  -0.172   1.591  0.00  0.00    -0.276 OA
ATOM     21  N   UNL     1       1.484  -0.316   3.805  0.00  0.00    -0.315 N 
ATOM     22  H   UNL     1       0.993  -0.089   4.763  0.00  0.00    +0.149 HD
BRANCH  19  26
ATOM     23  C   UNL     1      -0.200   0.874   0.056  0.00  0.00    +0.008 C 
ATOM     24  C   UNL     1      -0.980   1.249   1.317  0.00  0.00    -0.002 C 
ATOM     25  C   UNL     1      -0.363   2.300   2.243  0.00  0.00    +0.017 C 
ATOM     26  C   UNL     1      -0.388   0.829   2.665  0.00  0.00    +0.078 C 
ENDBRANCH  19  26
ENDBRANCH  18  21
ENDBRANCH  17  18
ENDBRANCH   1  17
TORSDOF 6
