REMARK  Name = ZINC39636223
REMARK  11 active torsions:
REMARK  status: ('A' for Active; 'I' for Inactive)
REMARK    1  A    between atoms: C_1  and  O_2
REMARK    2  A    between atoms: O_2  and  C_3
REMARK    3  A    between atoms: C_8  and  C_9
REMARK    4  A    between atoms: C_9  and  C_10
REMARK    5  A    between atoms: C_10  and  N_11
REMARK    6  A    between atoms: C_12  and  C_14
REMARK    7  A    between atoms: C_25  and  C_27
REMARK    8  A    between atoms: C_29  and  O_35
REMARK    9  A    between atoms: C_31  and  O_33
REMARK   10  A    between atoms: O_33  and  C_34
REMARK   11  A    between atoms: O_35  and  C_36
REMARK                            x       y       z     vdW  Elec       q    Type
REMARK                         _______ _______ _______ _____ _____    ______ ____
ROOT
ATOM      1  C   UNL     1      -3.821  -5.258   1.195  0.00  0.00    +0.100 C 
ATOM      2  C   UNL     1      -3.291  -6.679   1.492  0.00  0.00    +0.121 C 
ATOM      3  N   UNL     1      -4.492  -7.451   1.892  0.00  0.00    -0.296 N 
ATOM      4  C   UNL     1      -5.558  -6.971   0.981  0.00  0.00    +0.115 C 
ATOM      5  C   UNL     1      -5.309  -5.455   0.859  0.00  0.00    -0.004 C 
ATOM      6  C   UNL     1      -6.180  -4.695   1.856  0.00  0.00    -0.010 C 
ATOM      7  C   UNL     1      -7.653  -4.859   1.468  0.00  0.00    -0.082 C 
ATOM      8  N   UNL     1      -7.863  -4.342   0.110  0.00  0.00    +0.379 N 
ATOM      9  C   UNL     1      -7.093  -5.137  -0.854  0.00  0.00    -0.082 C 
ATOM     10  C   UNL     1      -5.597  -4.986  -0.564  0.00  0.00    -0.010 C 
ATOM     11  C   UNL     1      -4.591  -8.379   2.864  0.00  0.00    +0.247 C 
ATOM     12  O   UNL     1      -3.656  -8.575   3.615  0.00  0.00    -0.270 OA
ATOM     13  H   UNL     1      -8.844  -4.395  -0.120  0.00  0.00    -0.086 HD
ATOM     14  H   UNL     1      -7.562  -3.380   0.068  0.00  0.00    -0.086 HD
ENDROOT
BRANCH  11  15
ATOM     15  C   UNL     1      -5.838  -9.160   3.016  0.00  0.00    +0.044 A 
ATOM     16  C   UNL     1      -6.727  -9.273   1.947  0.00  0.00    +0.059 A 
ATOM     17  C   UNL     1      -7.893 -10.005   2.093  0.00  0.00    +0.124 A 
ATOM     18  C   UNL     1      -8.178 -10.626   3.301  0.00  0.00    +0.091 A 
ATOM     19  C   UNL     1      -7.296 -10.517   4.366  0.00  0.00    +0.124 A 
ATOM     20  C   UNL     1      -6.125  -9.791   4.226  0.00  0.00    +0.059 A 
BRANCH  19  21
ATOM     21  O   UNL     1      -7.579 -11.127   5.547  0.00  0.00    -0.495 OA
ATOM     22  C   UNL     1      -8.802 -11.864   5.620  0.00  0.00    +0.277 C 
ENDBRANCH  19  21
BRANCH  17  23
ATOM     23  O   UNL     1      -8.761 -10.116   1.052  0.00  0.00    -0.495 OA
ATOM     24  C   UNL     1      -9.944 -10.886   1.273  0.00  0.00    +0.277 C 
ENDBRANCH  17  23
ENDBRANCH  11  15
BRANCH   1  26
ATOM     25  N   UNL     1      -2.919  -3.328  -0.060  0.00  0.00    -0.315 N 
ATOM     26  C   UNL     1      -3.092  -4.662   0.019  0.00  0.00    +0.218 C 
ATOM     27  O   UNL     1      -2.662  -5.382  -0.857  0.00  0.00    -0.275 OA
ATOM     28  H   UNL     1      -3.263  -2.751   0.640  0.00  0.00    +0.149 HD
BRANCH  25  29
ATOM     29  C   UNL     1      -2.210  -2.747  -1.203  0.00  0.00    +0.109 C 
BRANCH  29  30
ATOM     30  C   UNL     1      -2.151  -1.226  -1.049  0.00  0.00    +0.057 C 
BRANCH  30  36
ATOM     31  C   UNL     1      -2.108  -0.350  -3.398  0.00  0.00    +0.123 A 
ATOM     32  C   UNL     1      -1.435   0.204  -4.477  0.00  0.00    +0.046 A 
ATOM     33  C   UNL     1      -0.084   0.472  -4.383  0.00  0.00    +0.004 A 
ATOM     34  C   UNL     1       0.599   0.188  -3.215  0.00  0.00    +0.000 A 
ATOM     35  C   UNL     1      -0.069  -0.365  -2.138  0.00  0.00    +0.007 A 
ATOM     36  C   UNL     1      -1.423  -0.629  -2.225  0.00  0.00    -0.004 A 
BRANCH  31  38
ATOM     37  C   UNL     1      -4.080  -0.301  -4.726  0.00  0.00    +0.277 C 
ATOM     38  O   UNL     1      -3.438  -0.614  -3.488  0.00  0.00    -0.495 OA
ENDBRANCH  31  38
ENDBRANCH  30  36
ENDBRANCH  29  30
ENDBRANCH  25  29
ENDBRANCH   1  26
TORSDOF 8
