REMARK  Name = ZINC65946400
REMARK  7 active torsions:
REMARK  status: ('A' for Active; 'I' for Inactive)
REMARK    1  A    between atoms: C_1  and  S_2
REMARK    2  A    between atoms: S_2  and  C_5
REMARK    3  A    between atoms: C_8  and  N_14
REMARK    4  A    between atoms: C_9  and  N_11
REMARK    5  A    between atoms: N_14  and  C_15
REMARK    6  A    between atoms: N_18  and  C_21
REMARK    7  A    between atoms: C_21  and  C_22
REMARK                            x       y       z     vdW  Elec       q    Type
REMARK                         _______ _______ _______ _____ _____    ______ ____
ROOT
ATOM      1  N   UNL     1       2.679  -0.473  -5.491  0.00  0.00    -0.339 N 
ATOM      2  H   UNL     1       3.649  -0.513  -5.482  0.00  0.00    +0.146 HD
ENDROOT
BRANCH   1   3
ATOM      3  C   UNL     1       1.952  -0.619  -6.754  0.00  0.00    +0.067 C 
ATOM      4  C   UNL     1       1.537  -2.081  -6.941  0.00  0.00    +0.003 C 
ATOM      5  C   UNL     1       0.848  -2.241  -8.297  0.00  0.00    -0.077 C 
ATOM      6  N   UNL     1       1.773  -1.852  -9.369  0.00  0.00    +0.380 N 
ATOM      7  C   UNL     1       2.119  -0.432  -9.238  0.00  0.00    -0.077 C 
ATOM      8  C   UNL     1       2.857  -0.202  -7.917  0.00  0.00    +0.003 C 
ATOM      9  H   UNL     1       2.612  -2.409  -9.305  0.00  0.00    -0.082 HD
BRANCH   6  10
ATOM     10  C   UNL     1       1.135  -2.081 -10.672  0.00  0.00    -0.075 C 
BRANCH  10  11
ATOM     11  C   UNL     1       2.144  -1.807 -11.789  0.00  0.00    -0.028 C 
ATOM     12  C   UNL     1       1.440  -1.895 -13.145  0.00  0.00    +0.002 C 
ATOM     13  C   UNL     1       2.448  -1.621 -14.262  0.00  0.00    +0.000 C 
ATOM     14  C   UNL     1       3.570  -2.660 -14.202  0.00  0.00    +0.000 C 
ATOM     15  C   UNL     1       4.274  -2.573 -12.847  0.00  0.00    +0.000 C 
ATOM     16  C   UNL     1       3.265  -2.846 -11.729  0.00  0.00    +0.002 C 
ENDBRANCH  10  11
ENDBRANCH   6  10
ENDBRANCH   1   3
BRANCH   1  20
ATOM     17  C   UNL     1       0.587   0.110  -1.938  0.00  0.00    +0.090 A 
ATOM     18  C   UNL     1      -0.088   0.115  -3.145  0.00  0.00    +0.029 A 
ATOM     19  C   UNL     1       0.603  -0.078  -4.325  0.00  0.00    +0.027 A 
ATOM     20  C   UNL     1       1.978  -0.277  -4.299  0.00  0.00    +0.058 A 
ATOM     21  C   UNL     1       2.652  -0.282  -3.085  0.00  0.00    +0.149 A 
ATOM     22  C   UNL     1       1.956  -0.084  -1.909  0.00  0.00    +0.061 A 
BRANCH  17  24
ATOM     23  C   UNL     1      -0.286   2.152  -0.176  0.00  0.00    +0.200 C 
ATOM     24  S   UNL     1      -0.298   0.356  -0.435  0.00  0.00    -0.006 S 
ATOM     25  O   UNL     1       0.488  -0.287   0.559  0.00  0.00    -0.170 OA
ATOM     26  O   UNL     1      -1.619  -0.088  -0.715  0.00  0.00    -0.170 OA
ENDBRANCH  17  24
BRANCH  21  27
ATOM     27  N   UNL     1       4.117  -0.495  -3.052  0.00  0.00    +0.058 N 
ATOM     28  O   UNL     1       4.630  -1.285  -3.809  0.00  0.00    -0.126 OA
ATOM     29  O   UNL     1       4.800   0.122  -2.268  0.00  0.00    -0.126 OA
ENDBRANCH  21  27
ENDBRANCH   1  20
TORSDOF 6
