REMARK  Name = ZINC05443404
REMARK  5 active torsions:
REMARK  status: ('A' for Active; 'I' for Inactive)
REMARK    1  A    between atoms: C_1  and  C_2
REMARK    2  A    between atoms: C_5  and  N_8
REMARK    3  A    between atoms: C_27  and  C_29
REMARK    4  A    between atoms: C_29  and  C_31
REMARK    5  A    between atoms: C_29  and  C_32
REMARK                            x       y       z     vdW  Elec       q    Type
REMARK                         _______ _______ _______ _____ _____    ______ ____
ROOT
ATOM      1  N   UNL     1       1.156  -0.783  -2.351  0.00  0.00    -0.210 N 
ATOM      2  C   UNL     1       1.970  -0.175  -1.481  0.00  0.00    +0.228 C 
ATOM      3  O   UNL     1       2.884  -0.707  -0.887  0.00  0.00    -0.275 OA
ATOM      4  C   UNL     1       1.575   1.278  -1.354  0.00  0.00    +0.073 C 
ATOM      5  C   UNL     1       0.356   1.404  -2.312  0.00  0.00    +0.088 C 
ATOM      6  C   UNL     1       0.216   0.009  -2.879  0.00  0.00    +0.229 C 
ATOM      7  O   UNL     1      -0.619  -0.338  -3.687  0.00  0.00    -0.275 OA
ATOM      8  C   UNL     1      -0.830   1.704  -1.388  0.00  0.00    +0.050 C 
ATOM      9  C   UNL     1      -1.141   3.174  -1.347  0.00  0.00    -0.028 A 
ATOM     10  C   UNL     1      -0.415   4.286  -0.986  0.00  0.00    +0.004 A 
ATOM     11  C   UNL     1      -0.991   5.542  -1.056  0.00  0.00    +0.000 A 
ATOM     12  C   UNL     1      -2.296   5.677  -1.492  0.00  0.00    +0.002 A 
ATOM     13  C   UNL     1      -3.027   4.565  -1.857  0.00  0.00    +0.023 A 
ATOM     14  C   UNL     1      -2.455   3.297  -1.786  0.00  0.00    +0.036 A 
ATOM     15  N   UNL     1      -2.982   2.040  -2.093  0.00  0.00    -0.286 N 
ATOM     16  C   UNL     1      -2.091   1.052  -1.884  0.00  0.00    +0.211 C 
ATOM     17  O   UNL     1      -2.271  -0.135  -2.062  0.00  0.00    -0.277 OA
ATOM     18  C   UNL     1       0.998   1.529   0.055  0.00  0.00    -0.055 C 
ATOM     19  H   UNL     1      -3.884   1.896  -2.418  0.00  0.00    +0.155 HD
ATOM     20  N   UNL     1      -0.425   1.213  -0.083  0.00  0.00    +0.394 N 
ATOM     21  H   UNL     1      -0.571   0.198  -0.025  0.00  0.00    -0.083 HD
ATOM     22  H   UNL     1      -0.966   1.679   0.656  0.00  0.00    -0.083 HD
ENDROOT
BRANCH   1  27
ATOM     23  C   UNL     1       1.647  -6.277  -3.690  0.00  0.00    +0.044 C 
ATOM     24  C   UNL     1       1.517  -4.818  -3.334  0.00  0.00    -0.050 A 
ATOM     25  C   UNL     1       0.411  -4.375  -2.632  0.00  0.00    +0.005 A 
ATOM     26  C   UNL     1       0.288  -3.039  -2.305  0.00  0.00    +0.024 A 
ATOM     27  C   UNL     1       1.277  -2.140  -2.682  0.00  0.00    +0.044 A 
ATOM     28  C   UNL     1       2.383  -2.587  -3.391  0.00  0.00    +0.024 A 
ATOM     29  C   UNL     1       2.503  -3.925  -3.711  0.00  0.00    +0.005 A 
ENDBRANCH   1  27
BRANCH  18  30
ATOM     30  C   UNL     1       1.677   0.615   1.078  0.00  0.00    -0.031 C 
ATOM     31  C   UNL     1       3.132   1.050   1.264  0.00  0.00    +0.005 C 
ATOM     32  C   UNL     1       0.940   0.711   2.416  0.00  0.00    +0.005 C 
ENDBRANCH  18  30
TORSDOF 2
