REMARK  Name = ZINC39736578
REMARK  11 active torsions:
REMARK  status: ('A' for Active; 'I' for Inactive)
REMARK    1  A    between atoms: C_1  and  C_2
REMARK    2  A    between atoms: C_2  and  C_4
REMARK    3  A    between atoms: C_2  and  N_32
REMARK    4  A    between atoms: C_7  and  S_17
REMARK    5  A    between atoms: N_8  and  C_9
REMARK    6  A    between atoms: C_12  and  O_15
REMARK    7  A    between atoms: O_15  and  C_16
REMARK    8  A    between atoms: S_17  and  C_18
REMARK    9  A    between atoms: C_18  and  C_20
REMARK   10  A    between atoms: C_18  and  C_21
REMARK   11  A    between atoms: C_21  and  C_23
REMARK                            x       y       z     vdW  Elec       q    Type
REMARK                         _______ _______ _______ _____ _____    ______ ____
ROOT
ATOM      1  C   UNL     1       0.731  -0.503   1.223  0.00  0.00    +0.125 A 
ATOM      2  N   UNL     1       2.020  -0.483   1.415  0.00  0.00    -0.135 NA
ATOM      3  N   UNL     1       2.304  -0.986   2.563  0.00  0.00    -0.122 NA
ATOM      4  C   UNL     1       1.202  -1.359   3.173  0.00  0.00    +0.197 A 
ATOM      5  N   UNL     1       0.161  -1.057   2.338  0.00  0.00    -0.275 N 
ENDROOT
BRANCH   5   6
ATOM      6  C   UNL     1      -1.206  -1.273   2.575  0.00  0.00    +0.050 A 
ATOM      7  C   UNL     1      -2.070  -0.192   2.682  0.00  0.00    +0.030 A 
ATOM      8  C   UNL     1      -3.415  -0.405   2.914  0.00  0.00    +0.047 A 
ATOM      9  C   UNL     1      -3.901  -1.698   3.041  0.00  0.00    +0.120 A 
ATOM     10  C   UNL     1      -3.037  -2.778   2.934  0.00  0.00    +0.047 A 
ATOM     11  C   UNL     1      -1.694  -2.566   2.696  0.00  0.00    +0.030 A 
BRANCH   9  12
ATOM     12  O   UNL     1      -5.225  -1.907   3.270  0.00  0.00    -0.495 OA
ATOM     13  C   UNL     1      -5.657  -3.264   3.389  0.00  0.00    +0.277 C 
ENDBRANCH   9  12
ENDBRANCH   5   6
BRANCH   1  15
ATOM     14  C   UNL     1      -0.019   1.526   0.010  0.00  0.00    -0.005 C 
ATOM     15  C   UNL     1       0.002  -0.004   0.002  0.00  0.00    -0.002 C 
BRANCH  15  16
ATOM     16  N   UNL     1       0.690  -0.478  -1.207  0.00  0.00    +0.386 N 
ATOM     17  C   UNL     1      -0.016   0.017  -2.395  0.00  0.00    -0.078 C 
ATOM     18  C   UNL     1       0.741  -0.406  -3.655  0.00  0.00    -0.019 C 
ATOM     19  C   UNL     1       0.823  -1.934  -3.707  0.00  0.00    -0.004 C 
ATOM     20  C   UNL     1       1.494  -2.444  -2.428  0.00  0.00    -0.019 C 
ATOM     21  C   UNL     1       0.709  -1.946  -1.213  0.00  0.00    -0.078 C 
ATOM     22  H   UNL     1       1.637  -0.130  -1.212  0.00  0.00    -0.081 HD
ENDBRANCH  15  16
ENDBRANCH   1  15
BRANCH   4  23
ATOM     23  S   UNL     1       1.086  -2.101   4.767  0.00  0.00    -0.075 S 
BRANCH  23  24
ATOM     24  C   UNL     1       2.808  -2.211   5.326  0.00  0.00    +0.122 C 
ATOM     25  C   UNL     1       3.378  -0.803   5.505  0.00  0.00    +0.028 C 
BRANCH  24  26
ATOM     26  C   UNL     1       2.864  -2.947   6.640  0.00  0.00    +0.174 C 
ATOM     27  O   UNL     1       1.893  -2.961   7.369  0.00  0.00    -0.291 OA
BRANCH  26  28
ATOM     28  C   UNL     1       4.043  -3.619   7.023  0.00  0.00    +0.024 C 
ATOM     29  C   UNL     1       4.256  -4.340   8.184  0.00  0.00    +0.006 A 
ATOM     30  C   UNL     1       3.436  -4.631   9.300  0.00  0.00    +0.010 A 
ATOM     31  C   UNL     1       3.914  -5.378  10.321  0.00  0.00    +0.001 A 
ATOM     32  C   UNL     1       5.220  -5.894  10.330  0.00  0.00    +0.002 A 
ATOM     33  C   UNL     1       6.082  -5.675   9.314  0.00  0.00    +0.026 A 
ATOM     34  C   UNL     1       5.641  -4.870   8.162  0.00  0.00    +0.043 A 
ATOM     35  N   UNL     1       6.251  -4.509   7.069  0.00  0.00    -0.380 N 
ATOM     36  C   UNL     1       5.339  -3.708   6.247  0.00  0.00    +0.152 C 
ATOM     37  H   UNL     1       7.164  -4.738   6.834  0.00  0.00    +0.160 HD
ENDBRANCH  26  28
ENDBRANCH  24  26
ENDBRANCH  23  24
ENDBRANCH   4  23
TORSDOF 8
