REMARK  Name = ZINC20616155
REMARK  9 active torsions:
REMARK  status: ('A' for Active; 'I' for Inactive)
REMARK    1  A    between atoms: C_1  and  C_2
REMARK    2  A    between atoms: C_2  and  O_3
REMARK    3  A    between atoms: O_3  and  C_4
REMARK    4  A    between atoms: C_7  and  C_27
REMARK    5  A    between atoms: C_9  and  C_10
REMARK    6  A    between atoms: C_10  and  N_11
REMARK    7  A    between atoms: N_28  and  N_29
REMARK    8  A    between atoms: C_30  and  C_32
REMARK    9  A    between atoms: C_32  and  C_33
REMARK                            x       y       z     vdW  Elec       q    Type
REMARK                         _______ _______ _______ _____ _____    ______ ____
ROOT
ATOM      1  C   UNL     1       0.777  -1.810  -1.336  0.00  0.00    +0.122 A 
ATOM      2  C   UNL     1       0.241  -2.666  -0.383  0.00  0.00    +0.046 A 
ATOM      3  C   UNL     1       0.346  -4.031  -0.543  0.00  0.00    +0.013 A 
ATOM      4  C   UNL     1       0.992  -4.552  -1.667  0.00  0.00    -0.005 A 
ATOM      5  C   UNL     1       1.529  -3.687  -2.624  0.00  0.00    +0.014 A 
ATOM      6  C   UNL     1       1.415  -2.323  -2.457  0.00  0.00    -0.022 A 
ENDROOT
BRANCH   4   7
ATOM      7  C   UNL     1       1.107  -6.011  -1.843  0.00  0.00    +0.138 C 
ATOM      8  N   UNL     1       0.608  -6.814  -0.954  0.00  0.00    -0.188 NA
BRANCH   8   9
ATOM      9  N   UNL     1       0.718  -8.200  -1.121  0.00  0.00    -0.207 N 
ATOM     10  C   UNL     1       0.199  -9.034  -0.197  0.00  0.00    +0.237 C 
ATOM     11  O   UNL     1      -0.362  -8.583   0.779  0.00  0.00    -0.274 OA
ATOM     12  H   UNL     1       1.166  -8.561  -1.902  0.00  0.00    +0.177 HD
BRANCH  10  13
ATOM     13  C   UNL     1       0.317 -10.525  -0.377  0.00  0.00    +0.132 C 
BRANCH  13  14
ATOM     14  C   UNL     1      -0.339 -11.225   0.785  0.00  0.00    -0.039 A 
ATOM     15  C   UNL     1       0.398 -11.530   1.914  0.00  0.00    +0.004 A 
ATOM     16  C   UNL     1      -0.203 -12.172   2.980  0.00  0.00    +0.000 A 
ATOM     17  C   UNL     1      -1.543 -12.508   2.918  0.00  0.00    +0.000 A 
ATOM     18  C   UNL     1      -2.281 -12.202   1.790  0.00  0.00    +0.000 A 
ATOM     19  C   UNL     1      -1.680 -11.556   0.725  0.00  0.00    +0.004 A 
ENDBRANCH  13  14
ENDBRANCH  10  13
ENDBRANCH   8   9
ENDBRANCH   4   7
BRANCH   1  20
ATOM     20  O   UNL     1       0.671  -0.465  -1.174  0.00  0.00    -0.492 OA
BRANCH  20  22
ATOM     21  C   UNL     1      -0.019   1.526   0.010  0.00  0.00    +0.048 C 
ATOM     22  C   UNL     1       0.002  -0.004   0.002  0.00  0.00    +0.225 C 
ENDBRANCH  20  22
ENDBRANCH   1  20
BRANCH   6  23
ATOM     23  C   UNL     1       1.990  -1.389  -3.490  0.00  0.00    -0.039 C 
BRANCH  23  24
ATOM     24  N   UNL     1       3.289  -0.884  -3.026  0.00  0.00    +0.383 N 
ATOM     25  C   UNL     1       3.905  -0.078  -4.084  0.00  0.00    -0.073 C 
ATOM     26  C   UNL     1       5.255   0.468  -3.644  0.00  0.00    -0.007 C 
ATOM     27  C   UNL     1       5.117   1.277  -2.351  0.00  0.00    +0.011 C 
ATOM     28  C   UNL     1       4.476   0.360  -1.302  0.00  0.00    +0.020 C 
ATOM     29  C   UNL     1       3.092  -0.062  -1.823  0.00  0.00    -0.069 C 
ATOM     30  C   UNL     1       5.319  -0.886  -1.155  0.00  0.00    +0.023 A 
ATOM     31  C   UNL     1       5.308  -1.513   0.052  0.00  0.00    +0.022 A 
ATOM     32  C   UNL     1       6.015  -2.706   0.239  0.00  0.00    +0.007 A 
ATOM     33  C   UNL     1       6.693  -3.243  -0.816  0.00  0.00    +0.070 A 
ATOM     34  C   UNL     1       6.681  -2.573  -2.047  0.00  0.00    +0.251 A 
ATOM     35  O   UNL     1       7.233  -3.075  -3.014  0.00  0.00    -0.268 OA
ATOM     36  N   UNL     1       6.062  -1.373  -2.175  0.00  0.00    -0.312 N 
ATOM     37  C   UNL     1       6.268  -0.643  -3.423  0.00  0.00    +0.126 C 
ATOM     38  H   UNL     1       3.891  -1.663  -2.805  0.00  0.00    -0.081 HD
ENDBRANCH  23  24
ENDBRANCH   6  23
TORSDOF 8
