REMARK  Name = ZINC41112802
REMARK  5 active torsions:
REMARK  status: ('A' for Active; 'I' for Inactive)
REMARK    1  A    between atoms: C_1  and  C_2
REMARK    2  A    between atoms: C_2  and  C_4
REMARK    3  A    between atoms: C_2  and  C_19
REMARK    4  A    between atoms: C_4  and  C_5
REMARK    5  A    between atoms: C_13  and  N_16
REMARK                            x       y       z     vdW  Elec       q    Type
REMARK                         _______ _______ _______ _____ _____    ______ ____
ROOT
ATOM      1  C   UNL     1      -2.100  -0.151   1.309  0.00  0.00    +0.220 C 
ATOM      2  O   UNL     1      -1.488   0.483   2.142  0.00  0.00    -0.275 OA
ATOM      3  N   UNL     1      -3.377  -0.513   1.542  0.00  0.00    -0.271 N 
ATOM      4  C   UNL     1      -4.214  -1.283   0.618  0.00  0.00    +0.118 C 
ATOM      5  C   UNL     1      -5.567  -1.437   1.333  0.00  0.00    +0.056 C 
ATOM      6  C   UNL     1      -5.386  -0.718   2.651  0.00  0.00    -0.024 A 
ATOM      7  C   UNL     1      -4.095  -0.215   2.705  0.00  0.00    +0.042 A 
ATOM      8  C   UNL     1      -3.689   0.489   3.840  0.00  0.00    +0.056 A 
ATOM      9  C   UNL     1      -4.561   0.675   4.891  0.00  0.00    +0.128 A 
ATOM     10  C   UNL     1      -5.845   0.166   4.829  0.00  0.00    +0.033 A 
ATOM     11  C   UNL     1      -6.258  -0.525   3.704  0.00  0.00    +0.008 A 
ENDROOT
BRANCH   9  12
ATOM     12  N   UNL     1      -4.122   1.423   6.090  0.00  0.00    +0.056 N 
ATOM     13  O   UNL     1      -2.999   1.869   6.147  0.00  0.00    -0.126 OA
ATOM     14  O   UNL     1      -4.885   1.588   7.014  0.00  0.00    -0.126 OA
ENDBRANCH   9  12
BRANCH   1  15
ATOM     15  C   UNL     1      -1.433  -0.534   0.013  0.00  0.00    +0.104 C 
BRANCH  15  17
ATOM     16  C   UNL     1      -0.019   1.526   0.010  0.00  0.00    +0.013 C 
ATOM     17  C   UNL     1       0.002  -0.004   0.002  0.00  0.00    +0.025 C 
BRANCH  17  18
ATOM     18  C   UNL     1       0.707  -0.490  -1.238  0.00  0.00    -0.044 A 
ATOM     19  C   UNL     1       0.222  -0.151  -2.487  0.00  0.00    +0.007 A 
ATOM     20  C   UNL     1       0.868  -0.596  -3.624  0.00  0.00    +0.038 A 
ATOM     21  C   UNL     1       2.002  -1.381  -3.513  0.00  0.00    +0.123 A 
ATOM     22  C   UNL     1       2.488  -1.720  -2.262  0.00  0.00    +0.038 A 
ATOM     23  C   UNL     1       1.843  -1.270  -1.125  0.00  0.00    +0.007 A 
ATOM     24  F   UNL     1       2.635  -1.817  -4.625  0.00  0.00    -0.205 F 
ENDBRANCH  17  18
ENDBRANCH  15  17
ENDBRANCH   1  15
TORSDOF 4
