REMARK  Name = ZINC36552699
REMARK  12 active torsions:
REMARK  status: ('A' for Active; 'I' for Inactive)
REMARK    1  A    between atoms: C_1  and  C_2
REMARK    2  A    between atoms: C_2  and  C_3
REMARK    3  A    between atoms: C_2  and  C_4
REMARK    4  A    between atoms: C_2  and  N_5
REMARK    5  A    between atoms: C_6  and  C_8
REMARK    6  A    between atoms: C_8  and  C_10
REMARK    7  A    between atoms: C_8  and  N_17
REMARK    8  A    between atoms: C_15  and  O_16
REMARK    9  A    between atoms: N_17  and  C_18
REMARK   10  A    between atoms: C_25  and  C_27
REMARK   11  A    between atoms: C_27  and  N_28
REMARK   12  A    between atoms: C_29  and  C_31
REMARK                            x       y       z     vdW  Elec       q    Type
REMARK                         _______ _______ _______ _____ _____    ______ ____
ROOT
ATOM      1  N   UNL     1       3.977  -0.364  -2.791  0.00  0.00    -0.254 N 
ATOM      2  C   UNL     1       5.020  -1.199  -2.969  0.00  0.00    +0.238 C 
ATOM      3  O   UNL     1       4.897  -2.382  -2.733  0.00  0.00    -0.274 OA
ENDROOT
BRANCH   1   4
ATOM      4  C   UNL     1       4.091   0.984  -3.151  0.00  0.00    +0.039 A 
ATOM      5  C   UNL     1       4.885   1.840  -2.399  0.00  0.00    +0.023 A 
ATOM      6  C   UNL     1       4.995   3.170  -2.757  0.00  0.00    +0.003 A 
ATOM      7  C   UNL     1       4.315   3.649  -3.862  0.00  0.00    +0.020 A 
ATOM      8  C   UNL     1       3.523   2.799  -4.613  0.00  0.00    +0.043 A 
ATOM      9  C   UNL     1       3.414   1.466  -4.264  0.00  0.00    +0.043 A 
ATOM     10 CL   UNL     1       2.672   3.405  -5.999  0.00  0.00    -0.083 Cl
ENDBRANCH   1   4
BRANCH   1  11
ATOM     11  C   UNL     1       2.725  -0.867  -2.222  0.00  0.00    +0.201 C 
BRANCH  11  12
ATOM     12  C   UNL     1       1.582  -0.529  -3.144  0.00  0.00    +0.024 A 
ATOM     13  C   UNL     1       0.736   0.520  -2.841  0.00  0.00    +0.009 A 
ATOM     14  C   UNL     1      -0.313   0.830  -3.686  0.00  0.00    +0.001 A 
ATOM     15  C   UNL     1      -0.518   0.092  -4.838  0.00  0.00    +0.004 A 
ATOM     16  C   UNL     1       0.326  -0.958  -5.145  0.00  0.00    +0.046 A 
ATOM     17  C   UNL     1       1.382  -1.268  -4.301  0.00  0.00    +0.122 A 
BRANCH  17  18
ATOM     18  O   UNL     1       2.217  -2.296  -4.604  0.00  0.00    -0.506 OA
ATOM     19  H   UNL     1       1.897  -3.161  -4.314  0.00  0.00    +0.292 HD
ENDBRANCH  17  18
ENDBRANCH  11  12
BRANCH  11  21
ATOM     20  N   UNL     1       1.553  -0.725  -0.048  0.00  0.00    -0.309 N 
ATOM     21  C   UNL     1       2.491  -0.227  -0.877  0.00  0.00    +0.239 C 
ATOM     22  O   UNL     1       3.148   0.736  -0.542  0.00  0.00    -0.273 OA
ATOM     23  H   UNL     1       0.984  -1.453  -0.341  0.00  0.00    +0.149 HD
BRANCH  20  25
ATOM     24  C   UNL     1       1.043   1.321   1.192  0.00  0.00    +0.031 C 
ATOM     25  C   UNL     1       1.393  -0.165   1.296  0.00  0.00    +0.026 C 
ATOM     26  C   UNL     1       2.699  -0.329   2.076  0.00  0.00    +0.031 C 
ATOM     27  C   UNL     1       0.268  -0.903   2.025  0.00  0.00    +0.031 C 
ENDBRANCH  20  25
ENDBRANCH  11  21
ENDBRANCH   1  11
BRANCH   2  28
ATOM     28  C   UNL     1       6.340  -0.662  -3.459  0.00  0.00    +0.201 C 
BRANCH  28  29
ATOM     29  N   UNL     1       7.269  -1.774  -3.676  0.00  0.00    -0.303 N 
ATOM     30  C   UNL     1       8.519  -1.531  -4.118  0.00  0.00    +0.244 C 
ATOM     31  O   UNL     1       8.876  -0.389  -4.335  0.00  0.00    -0.270 OA
ATOM     32  H   UNL     1       6.985  -2.684  -3.502  0.00  0.00    +0.150 HD
BRANCH  30  33
ATOM     33  C   UNL     1       9.457  -2.653  -4.337  0.00  0.00    +0.037 A 
ATOM     34  C   UNL     1       9.049  -3.965  -4.094  0.00  0.00    +0.013 A 
ATOM     35  C   UNL     1       9.928  -5.007  -4.301  0.00  0.00    +0.001 A 
ATOM     36  C   UNL     1      11.213  -4.754  -4.749  0.00  0.00    +0.000 A 
ATOM     37  C   UNL     1      11.624  -3.456  -4.992  0.00  0.00    +0.001 A 
ATOM     38  C   UNL     1      10.752  -2.405  -4.794  0.00  0.00    +0.013 A 
ENDBRANCH  30  33
ENDBRANCH  28  29
ENDBRANCH   2  28
TORSDOF 9
