REMARK  Name = ZINC64006984
REMARK  10 active torsions:
REMARK  status: ('A' for Active; 'I' for Inactive)
REMARK    1  A    between atoms: C_1  and  C_2
REMARK    2  A    between atoms: C_4  and  C_9
REMARK    3  A    between atoms: N_6  and  C_8
REMARK    4  A    between atoms: C_9  and  N_10
REMARK    5  A    between atoms: N_10  and  C_11
REMARK    6  A    between atoms: N_10  and  C_12
REMARK    7  A    between atoms: C_12  and  C_14
REMARK    8  A    between atoms: C_12  and  C_22
REMARK    9  A    between atoms: C_14  and  C_15
REMARK   10  A    between atoms: C_28  and  C_30
REMARK                            x       y       z     vdW  Elec       q    Type
REMARK                         _______ _______ _______ _____ _____    ______ ____
ROOT
ATOM      1  C   UNL     1      -4.633   0.891  -1.520  0.00  0.00    -0.061 C 
ENDROOT
BRANCH   1   2
ATOM      2  C   UNL     1      -4.924   2.392  -1.460  0.00  0.00    -0.021 C 
ATOM      3  C   UNL     1      -4.876   2.863  -0.004  0.00  0.00    +0.021 C 
ATOM      4  C   UNL     1      -5.134   4.372   0.049  0.00  0.00    +0.108 C 
ATOM      5  N   UNL     1      -6.400   4.660  -0.637  0.00  0.00    -0.300 N 
ATOM      6  C   UNL     1      -6.586   4.173  -2.011  0.00  0.00    +0.108 C 
ATOM      7  C   UNL     1      -6.312   2.666  -2.041  0.00  0.00    +0.021 C 
ATOM      8  C   UNL     1      -7.374   5.358  -0.018  0.00  0.00    +0.242 C 
ATOM      9  O   UNL     1      -7.208   5.754   1.116  0.00  0.00    -0.273 OA
BRANCH   8  10
ATOM     10  C   UNL     1      -8.667   5.645  -0.736  0.00  0.00    +0.190 C 
ATOM     11  C   UNL     1      -8.407   6.497  -1.959  0.00  0.00    +0.016 C 
ATOM     12  C   UNL     1      -9.098   7.644  -1.770  0.00  0.00    -0.004 A 
ATOM     13  C   UNL     1      -9.254   8.856  -2.583  0.00  0.00    +0.010 A 
ATOM     14  C   UNL     1     -10.029   9.862  -2.120  0.00  0.00    +0.001 A 
ATOM     15  C   UNL     1     -10.687   9.777  -0.885  0.00  0.00    +0.002 A 
ATOM     16  C   UNL     1     -10.592   8.696  -0.082  0.00  0.00    +0.026 A 
ATOM     17  C   UNL     1      -9.803   7.578  -0.470  0.00  0.00    +0.043 A 
ATOM     18  N   UNL     1      -9.558   6.434   0.123  0.00  0.00    -0.370 N 
ATOM     19  H   UNL     1      -9.906   6.155   0.985  0.00  0.00    +0.161 HD
ENDBRANCH   8  10
ENDBRANCH   1   2
BRANCH   1  20
ATOM     20  N   UNL     1      -3.239   0.646  -1.125  0.00  0.00    +0.383 N 
ATOM     21  C   UNL     1      -2.339   1.379  -2.026  0.00  0.00    -0.095 C 
ATOM     22  H   UNL     1      -3.098   0.963  -0.178  0.00  0.00    -0.081 HD
BRANCH  20  23
ATOM     23  C   UNL     1      -2.952  -0.792  -1.210  0.00  0.00    -0.045 C 
BRANCH  23  26
ATOM     24  C   UNL     1      -0.059  -0.600  -2.671  0.00  0.00    +0.030 C 
ATOM     25  C   UNL     1      -0.389  -1.572  -1.536  0.00  0.00    +0.095 C 
ATOM     26  C   UNL     1      -1.552  -1.054  -0.717  0.00  0.00    -0.053 C 
ATOM     27  C   UNL     1      -1.105  -0.876   0.509  0.00  0.00    +0.086 C 
ATOM     28  N   UNL     1       0.229  -1.214   0.621  0.00  0.00    -0.277 N 
ATOM     29  N   UNL     1       0.731  -1.645  -0.577  0.00  0.00    -0.234 NA
ATOM     30  C   UNL     1       1.007  -1.122   1.860  0.00  0.00    +0.149 C 
ATOM     31  H   UNL     1       1.502  -1.067  -0.876  0.00  0.00    +0.145 HD
ENDBRANCH  23  26
ENDBRANCH  20  23
ENDBRANCH   1  20
BRANCH   1  32
ATOM     32  C   UNL     1      -5.571   0.151  -0.565  0.00  0.00    +0.023 C 
BRANCH  32  33
ATOM     33  C   UNL     1      -6.947   0.071  -1.174  0.00  0.00    -0.014 A 
ATOM     34  C   UNL     1      -7.996   0.769  -0.606  0.00  0.00    +0.006 A 
ATOM     35  C   UNL     1      -9.259   0.696  -1.165  0.00  0.00    +0.000 A 
ATOM     36  C   UNL     1      -9.473  -0.075  -2.292  0.00  0.00    +0.003 A 
ATOM     37  C   UNL     1      -8.426  -0.774  -2.861  0.00  0.00    +0.038 A 
ATOM     38  C   UNL     1      -7.160  -0.697  -2.306  0.00  0.00    +0.126 A 
ATOM     39  F   UNL     1      -6.134  -1.376  -2.864  0.00  0.00    -0.205 F 
ENDBRANCH  32  33
ENDBRANCH   1  32
TORSDOF 7
