REMARK  Name = ZINC57617876
REMARK  6 active torsions:
REMARK  status: ('A' for Active; 'I' for Inactive)
REMARK    1  A    between atoms: C_3  and  N_25
REMARK    2  A    between atoms: C_6  and  C_7
REMARK    3  A    between atoms: C_8  and  C_9
REMARK    4  A    between atoms: N_11  and  C_12
REMARK    5  A    between atoms: C_12  and  C_13
REMARK    6  A    between atoms: C_13  and  C_18
REMARK                            x       y       z     vdW  Elec       q    Type
REMARK                         _______ _______ _______ _____ _____    ______ ____
ROOT
ATOM      1  C   UNL     1      -2.465  -2.865  -0.028  0.00  0.00    +0.237 C 
ATOM      2  O   UNL     1      -3.523  -2.264  -0.003  0.00  0.00    -0.271 OA
ATOM      3  N   UNL     1      -2.455  -4.212  -0.026  0.00  0.00    -0.311 N 
ATOM      4  H   UNL     1      -1.611  -4.691  -0.045  0.00  0.00    +0.149 HD
ENDROOT
BRANCH   1   6
ATOM      5  C   UNL     1      -1.215  -0.773  -0.060  0.00  0.00    +0.013 C 
ATOM      6  C   UNL     1      -1.205  -2.124  -0.059  0.00  0.00    +0.068 C 
BRANCH   5  12
ATOM      7  C   UNL     1       0.043   1.371  -0.093  0.00  0.00    +0.010 A 
ATOM      8  C   UNL     1       1.226   2.062  -0.122  0.00  0.00    +0.025 A 
ATOM      9  C   UNL     1       2.436   1.373  -0.149  0.00  0.00    +0.051 A 
ATOM     10  C   UNL     1       2.449  -0.019  -0.147  0.00  0.00    +0.025 A 
ATOM     11  C   UNL     1       1.270  -0.718  -0.119  0.00  0.00    +0.010 A 
ATOM     12  C   UNL     1       0.051  -0.029  -0.091  0.00  0.00    -0.025 A 
BRANCH   9  13
ATOM     13  N   UNL     1       3.635   2.078  -0.179  0.00  0.00    -0.207 N 
ATOM     14  C   UNL     1       3.848   3.448  -0.677  0.00  0.00    +0.133 C 
ATOM     15  C   UNL     1       5.013   4.127   0.066  0.00  0.00    +0.045 C 
ATOM     16  C   UNL     1       6.147   3.059   0.102  0.00  0.00    +0.190 C 
ATOM     17  S   UNL     1       5.133   1.545   0.352  0.00  0.00    +0.046 S 
ATOM     18  O   UNL     1       4.970   1.271   1.737  0.00  0.00    -0.155 OA
ATOM     19  O   UNL     1       5.519   0.526  -0.560  0.00  0.00    -0.155 OA
ENDBRANCH   9  13
ENDBRANCH   5  12
ENDBRANCH   1   6
BRANCH   3  20
ATOM     20  C   UNL     1      -3.717  -4.955   0.005  0.00  0.00    +0.116 C 
BRANCH  20  21
ATOM     21  C   UNL     1      -3.432  -6.452  -0.124  0.00  0.00    +0.011 C 
ATOM     22  C   UNL     1      -2.649  -6.729  -1.419  0.00  0.00    +0.013 C 
ATOM     23  C   UNL     1      -3.525  -7.671  -2.271  0.00  0.00    +0.001 C 
ATOM     24  C   UNL     1      -4.964  -7.418  -1.758  0.00  0.00    +0.001 C 
ATOM     25  C   UNL     1      -4.757  -7.235  -0.234  0.00  0.00    +0.013 C 
BRANCH  21  26
ATOM     26  C   UNL     1      -2.646  -6.932   1.068  0.00  0.00    -0.040 A 
ATOM     27  C   UNL     1      -2.400  -6.075   2.125  0.00  0.00    +0.007 A 
ATOM     28  C   UNL     1      -1.680  -6.514   3.219  0.00  0.00    +0.038 A 
ATOM     29  C   UNL     1      -1.204  -7.814   3.257  0.00  0.00    +0.123 A 
ATOM     30  C   UNL     1      -1.450  -8.672   2.199  0.00  0.00    +0.038 A 
ATOM     31  C   UNL     1      -2.175  -8.232   1.108  0.00  0.00    +0.007 A 
ATOM     32  F   UNL     1      -0.499  -8.245   4.326  0.00  0.00    -0.205 F 
ENDBRANCH  21  26
ENDBRANCH  20  21
ENDBRANCH   3  20
TORSDOF 6
