REMARK  Name = ZINC00930970
REMARK  10 active torsions:
REMARK  status: ('A' for Active; 'I' for Inactive)
REMARK    1  A    between atoms: C_1  and  O_2
REMARK    2  A    between atoms: O_2  and  C_3
REMARK    3  A    between atoms: C_6  and  N_11
REMARK    4  A    between atoms: C_8  and  O_9
REMARK    5  A    between atoms: O_9  and  C_10
REMARK    6  A    between atoms: N_11  and  C_12
REMARK    7  A    between atoms: C_12  and  C_14
REMARK    8  A    between atoms: C_12  and  C_19
REMARK    9  A    between atoms: N_21  and  C_22
REMARK   10  A    between atoms: C_28  and  C_30
REMARK                            x       y       z     vdW  Elec       q    Type
REMARK                         _______ _______ _______ _____ _____    ______ ____
ROOT
ATOM      1  N   UNL     1       1.289  -6.139  -8.681  0.00  0.00    -0.252 N 
ATOM      2  C   UNL     1       0.363  -5.917  -7.727  0.00  0.00    +0.265 C 
ATOM      3  O   UNL     1      -0.759  -5.579  -8.039  0.00  0.00    -0.271 OA
ENDROOT
BRANCH   2   4
ATOM      4  C   UNL     1       0.722  -6.089  -6.274  0.00  0.00    +0.296 C 
ATOM      5  C   UNL     1      -0.246  -7.083  -5.616  0.00  0.00    +0.283 C 
ATOM      6  O   UNL     1       0.114  -7.212  -4.236  0.00  0.00    -0.484 OA
ATOM      7  C   UNL     1       0.353  -6.057  -3.556  0.00  0.00    +0.162 A 
ATOM      8  C   UNL     1       0.347  -6.070  -2.169  0.00  0.00    +0.049 A 
ATOM      9  C   UNL     1       0.592  -4.907  -1.465  0.00  0.00    +0.004 A 
ATOM     10  C   UNL     1       0.843  -3.727  -2.140  0.00  0.00    +0.004 A 
ATOM     11  C   UNL     1       0.850  -3.707  -3.522  0.00  0.00    +0.049 A 
ATOM     12  C   UNL     1       0.603  -4.871  -4.235  0.00  0.00    +0.163 A 
ATOM     13  O   UNL     1       0.606  -4.833  -5.596  0.00  0.00    -0.472 OA
ENDBRANCH   2   4
BRANCH   1  17
ATOM     14  C   UNL     1       4.998  -7.750  -7.649  0.00  0.00    +0.162 A 
ATOM     15  C   UNL     1       3.846  -8.505  -7.494  0.00  0.00    +0.051 A 
ATOM     16  C   UNL     1       2.618  -7.971  -7.836  0.00  0.00    +0.027 A 
ATOM     17  C   UNL     1       2.535  -6.678  -8.335  0.00  0.00    +0.041 A 
ATOM     18  C   UNL     1       3.687  -5.920  -8.491  0.00  0.00    +0.073 A 
ATOM     19  C   UNL     1       4.918  -6.452  -8.144  0.00  0.00    +0.163 A 
BRANCH  14  21
ATOM     20  C   UNL     1       6.214  -9.614  -6.810  0.00  0.00    +0.277 C 
ATOM     21  O   UNL     1       6.206  -8.276  -7.311  0.00  0.00    -0.491 OA
ENDBRANCH  14  21
BRANCH  19  22
ATOM     22  O   UNL     1       6.047  -5.709  -8.291  0.00  0.00    -0.491 OA
ATOM     23  C   UNL     1       5.886  -4.369  -8.762  0.00  0.00    +0.277 C 
ENDBRANCH  19  22
ENDBRANCH   1  17
BRANCH   1  24
ATOM     24  C   UNL     1       0.993  -5.817 -10.079  0.00  0.00    +0.204 C 
BRANCH  24  25
ATOM     25  C   UNL     1       1.787  -6.725 -10.983  0.00  0.00    +0.019 A 
ATOM     26  C   UNL     1       1.362  -7.465 -12.035  0.00  0.00    +0.013 A 
ATOM     27  C   UNL     1       2.278  -8.233 -12.729  0.00  0.00    +0.008 A 
ATOM     28  C   UNL     1       3.575  -8.223 -12.335  0.00  0.00    +0.045 A 
ATOM     29  S   UNL     1       3.532  -7.098 -10.950  0.00  0.00    -0.099 S 
ENDBRANCH  24  25
BRANCH  24  30
ATOM     30  C   UNL     1       1.367  -4.383 -10.354  0.00  0.00    +0.239 C 
ATOM     31  O   UNL     1       1.835  -3.698  -9.469  0.00  0.00    -0.273 OA
ATOM     32  N   UNL     1       1.182  -3.862 -11.583  0.00  0.00    -0.311 N 
ATOM     33  H   UNL     1       0.808  -4.410 -12.290  0.00  0.00    +0.149 HD
BRANCH  32  34
ATOM     34  C   UNL     1       1.545  -2.468 -11.850  0.00  0.00    +0.073 C 
ATOM     35  C   UNL     1       0.387  -1.553 -11.447  0.00  0.00    +0.022 C 
ATOM     36  C   UNL     1       0.766  -0.097 -11.726  0.00  0.00    +0.002 C 
ATOM     37  C   UNL     1       1.059   0.077 -13.218  0.00  0.00    +0.000 C 
ATOM     38  C   UNL     1       2.218  -0.839 -13.620  0.00  0.00    +0.002 C 
ATOM     39  C   UNL     1       1.838  -2.294 -13.341  0.00  0.00    +0.022 C 
ENDBRANCH  32  34
ENDBRANCH  24  30
ENDBRANCH   1  24
TORSDOF 8
