REMARK  Name = ZINC24702294
REMARK  7 active torsions:
REMARK  status: ('A' for Active; 'I' for Inactive)
REMARK    1  A    between atoms: C_1  and  C_2
REMARK    2  A    between atoms: C_2  and  C_3
REMARK    3  A    between atoms: C_3  and  C_24
REMARK    4  A    between atoms: N_6  and  C_10
REMARK    5  A    between atoms: C_10  and  C_11
REMARK    6  A    between atoms: C_11  and  C_12
REMARK    7  A    between atoms: C_12  and  N_13
REMARK                            x       y       z     vdW  Elec       q    Type
REMARK                         _______ _______ _______ _____ _____    ______ ____
ROOT
ATOM      1  C   UNL     1      -1.423   2.820  -2.958  0.00  0.00    +0.138 C 
ATOM      2  C   UNL     1      -0.456   2.741  -1.793  0.00  0.00    +0.251 C 
ATOM      3  O   UNL     1       0.381   3.560  -1.479  0.00  0.00    -0.272 OA
ATOM      4  N   UNL     1      -0.721   1.571  -1.179  0.00  0.00    -0.224 N 
ATOM      5  C   UNL     1      -1.708   0.905  -1.790  0.00  0.00    +0.310 C 
ATOM      6  O   UNL     1      -2.121  -0.177  -1.422  0.00  0.00    -0.252 OA
ATOM      7  N   UNL     1      -2.193   1.569  -2.855  0.00  0.00    -0.281 N 
ATOM      8  H   UNL     1      -2.988   1.350  -3.583  0.00  0.00    +0.152 HD
ENDROOT
BRANCH   1   9
ATOM      9  C   UNL     1      -2.328   4.017  -2.815  0.00  0.00    -0.015 A 
ATOM     10  C   UNL     1      -1.960   5.231  -3.365  0.00  0.00    +0.009 A 
ATOM     11  C   UNL     1      -2.792   6.327  -3.239  0.00  0.00    +0.039 A 
ATOM     12  C   UNL     1      -3.989   6.212  -2.552  0.00  0.00    +0.123 A 
ATOM     13  C   UNL     1      -4.354   4.997  -1.997  0.00  0.00    +0.039 A 
ATOM     14  C   UNL     1      -3.523   3.901  -2.129  0.00  0.00    +0.009 A 
ATOM     15  F   UNL     1      -4.800   7.285  -2.423  0.00  0.00    -0.205 F 
ENDBRANCH   1   9
BRANCH   1  17
ATOM     16  C   UNL     1       0.109   1.573  -4.487  0.00  0.00    +0.007 C 
ATOM     17  C   UNL     1      -0.664   2.878  -4.285  0.00  0.00    +0.037 C 
ENDBRANCH   1  17
BRANCH   4  18
ATOM     18  C   UNL     1      -0.013   1.086   0.008  0.00  0.00    +0.119 C 
BRANCH  18  19
ATOM     19  C   UNL     1      -0.729   1.579   1.267  0.00  0.00    +0.039 C 
BRANCH  19  20
ATOM     20  C   UNL     1       0.011   1.072   2.506  0.00  0.00    +0.118 C 
BRANCH  20  21
ATOM     21  N   UNL     1      -0.675   1.545   3.712  0.00  0.00    -0.234 N 
ATOM     22  C   UNL     1      -0.399   2.702   4.340  0.00  0.00    +0.254 C 
ATOM     23  O   UNL     1       0.445   3.508   4.003  0.00  0.00    -0.270 OA
ATOM     24  C   UNL     1      -1.296   2.829   5.508  0.00  0.00    +0.049 A 
ATOM     25  C   UNL     1      -1.468   3.784   6.497  0.00  0.00    +0.014 A 
ATOM     26  C   UNL     1      -2.425   3.590   7.481  0.00  0.00    +0.001 A 
ATOM     27  C   UNL     1      -3.208   2.451   7.482  0.00  0.00    +0.001 A 
ATOM     28  C   UNL     1      -3.048   1.487   6.498  0.00  0.00    +0.014 A 
ATOM     29  C   UNL     1      -2.095   1.667   5.509  0.00  0.00    +0.049 A 
ATOM     30  C   UNL     1      -1.659   0.876   4.339  0.00  0.00    +0.254 C 
ATOM     31  O   UNL     1      -2.113  -0.198   4.001  0.00  0.00    -0.270 OA
ENDBRANCH  20  21
ENDBRANCH  19  20
ENDBRANCH  18  19
ENDBRANCH   4  18
TORSDOF 6
