REMARK  Name = ZINC21733887
REMARK  9 active torsions:
REMARK  status: ('A' for Active; 'I' for Inactive)
REMARK    1  A    between atoms: C_1  and  C_2
REMARK    2  A    between atoms: C_4  and  C_11
REMARK    3  A    between atoms: C_5  and  C_10
REMARK    4  A    between atoms: C_6  and  C_9
REMARK    5  A    between atoms: C_7  and  C_8
REMARK    6  A    between atoms: C_11  and  C_13
REMARK    7  A    between atoms: C_13  and  N_14
REMARK    8  A    between atoms: C_17  and  C_21
REMARK    9  A    between atoms: C_17  and  C_22
REMARK                            x       y       z     vdW  Elec       q    Type
REMARK                         _______ _______ _______ _____ _____    ______ ____
ROOT
ATOM      1  N   UNL     1      -3.079   4.531   6.551  0.00  0.00    -0.216 N 
ATOM      2  C   UNL     1      -3.844   3.916   7.475  0.00  0.00    +0.251 C 
ATOM      3  O   UNL     1      -3.872   2.732   7.732  0.00  0.00    -0.272 OA
ATOM      4  C   UNL     1      -4.662   5.014   8.126  0.00  0.00    +0.135 C 
ATOM      5  N   UNL     1      -4.222   6.234   7.428  0.00  0.00    -0.281 N 
ATOM      6  C   UNL     1      -3.295   5.851   6.531  0.00  0.00    +0.310 C 
ATOM      7  O   UNL     1      -2.720   6.619   5.785  0.00  0.00    -0.252 OA
ATOM      8  C   UNL     1      -4.347   5.106   9.621  0.00  0.00    +0.047 C 
ATOM      9  H   UNL     1      -4.659   7.208   7.694  0.00  0.00    +0.152 HD
ENDROOT
BRANCH   4  10
ATOM     10  C   UNL     1      -6.134   4.779   7.907  0.00  0.00    -0.015 A 
ATOM     11  C   UNL     1      -6.616   3.490   7.774  0.00  0.00    +0.009 A 
ATOM     12  C   UNL     1      -7.966   3.272   7.578  0.00  0.00    +0.039 A 
ATOM     13  C   UNL     1      -8.836   4.347   7.503  0.00  0.00    +0.123 A 
ATOM     14  C   UNL     1      -8.352   5.638   7.631  0.00  0.00    +0.039 A 
ATOM     15  C   UNL     1      -7.002   5.853   7.832  0.00  0.00    +0.009 A 
ATOM     16  F   UNL     1     -10.156   4.136   7.307  0.00  0.00    -0.205 F 
ENDBRANCH   4  10
BRANCH   1  17
ATOM     17  C   UNL     1      -2.126   3.840   5.680  0.00  0.00    +0.197 C 
BRANCH  17  18
ATOM     18  C   UNL     1      -2.820   3.415   4.412  0.00  0.00    +0.181 C 
ATOM     19  O   UNL     1      -3.995   3.665   4.251  0.00  0.00    -0.290 OA
BRANCH  18  23
ATOM     20  C   UNL     1       1.493   1.645   2.642  0.00  0.00    +0.044 C 
ATOM     21  C   UNL     1       0.004   1.841   2.510  0.00  0.00    -0.047 A 
ATOM     22  C   UNL     1      -0.690   2.516   3.493  0.00  0.00    +0.015 A 
ATOM     23  C   UNL     1      -2.071   2.697   3.368  0.00  0.00    +0.022 A 
ATOM     24  C   UNL     1      -2.737   2.191   2.247  0.00  0.00    -0.037 A 
ATOM     25  C   UNL     1      -2.028   1.523   1.272  0.00  0.00    -0.044 A 
ATOM     26  C   UNL     1      -0.662   1.343   1.404  0.00  0.00    -0.044 A 
ATOM     27  C   UNL     1       0.104   0.608   0.336  0.00  0.00    +0.044 C 
ATOM     28  C   UNL     1      -2.743   0.982   0.060  0.00  0.00    +0.044 C 
ATOM     29  C   UNL     1      -4.226   2.381   2.103  0.00  0.00    +0.045 C 
ENDBRANCH  18  23
ENDBRANCH  17  18
ENDBRANCH   1  17
TORSDOF 4
