REMARK  Name = ZINC12477226
REMARK  13 active torsions:
REMARK  status: ('A' for Active; 'I' for Inactive)
REMARK    1  A    between atoms: C_1  and  C_2
REMARK    2  A    between atoms: C_5  and  C_7
REMARK    3  A    between atoms: N_10  and  C_12
REMARK    4  A    between atoms: C_12  and  C_13
REMARK    5  A    between atoms: N_15  and  C_16
REMARK    6  A    between atoms: N_15  and  C_23
REMARK    7  A    between atoms: C_16  and  C_17
REMARK    8  A    between atoms: C_23  and  C_25
REMARK    9  A    between atoms: C_23  and  C_32
REMARK   10  A    between atoms: N_34  and  C_35
REMARK   11  A    between atoms: C_35  and  C_36
REMARK   12  A    between atoms: C_35  and  C_37
REMARK   13  A    between atoms: C_35  and  C_38
REMARK                            x       y       z     vdW  Elec       q    Type
REMARK                         _______ _______ _______ _____ _____    ______ ____
ROOT
ATOM      1  C   UNL     1       4.617   1.752   0.081  0.00  0.00    +0.240 C 
ATOM      2  O   UNL     1       4.874   1.064  -0.885  0.00  0.00    -0.273 OA
ATOM      3  N   UNL     1       3.341   1.881   0.496  0.00  0.00    -0.282 N 
ENDROOT
BRANCH   1   4
ATOM      4  C   UNL     1       5.725   2.461   0.816  0.00  0.00    +0.264 C 
BRANCH   4   8
ATOM      5  C   UNL     1       8.687   2.272  -1.094  0.00  0.00    +0.239 A 
ATOM      6  N   UNL     1       8.820   1.210  -0.284  0.00  0.00    -0.105 NA
ATOM      7  N   UNL     1       7.780   1.178   0.478  0.00  0.00    -0.045 NA
ATOM      8  N   UNL     1       7.007   2.162   0.174  0.00  0.00    -0.154 N 
ATOM      9  N   UNL     1       7.540   2.845  -0.779  0.00  0.00    -0.127 NA
BRANCH   5  14
ATOM     10  C   UNL     1      10.759   4.940  -4.808  0.00  0.00    +0.086 C 
ATOM     11  C   UNL     1      10.550   3.878  -3.759  0.00  0.00    +0.103 A 
ATOM     12  C   UNL     1      11.395   2.864  -3.489  0.00  0.00    +0.045 A 
ATOM     13  C   UNL     1      10.820   2.115  -2.443  0.00  0.00    +0.053 A 
ATOM     14  C   UNL     1       9.640   2.715  -2.135  0.00  0.00    +0.175 A 
ATOM     15  O   UNL     1       9.491   3.784  -2.939  0.00  0.00    -0.457 OA
ENDBRANCH   5  14
ENDBRANCH   4   8
ENDBRANCH   1   4
BRANCH   3  16
ATOM     16  C   UNL     1       3.031   2.712   1.662  0.00  0.00    +0.140 C 
BRANCH  16  17
ATOM     17  C   UNL     1       3.340   1.931   2.941  0.00  0.00    +0.136 C 
ATOM     18  C   UNL     1       2.864   2.730   4.170  0.00  0.00    +0.035 C 
ATOM     19  C   UNL     1       1.859   1.784   4.871  0.00  0.00    +0.031 C 
ATOM     20  C   UNL     1       2.269   0.399   4.307  0.00  0.00    +0.160 C 
ATOM     21  O   UNL     1       2.624   0.685   2.937  0.00  0.00    -0.375 OA
ENDBRANCH  16  17
ENDBRANCH   3  16
BRANCH   3  22
ATOM     22  C   UNL     1       2.265   1.192  -0.220  0.00  0.00    +0.192 C 
BRANCH  22  23
ATOM     23  C   UNL     1       2.471  -0.298  -0.123  0.00  0.00    -0.018 A 
ATOM     24  C   UNL     1       3.332  -0.816   0.827  0.00  0.00    +0.007 A 
ATOM     25  C   UNL     1       3.517  -2.182   0.920  0.00  0.00    +0.020 A 
ATOM     26  C   UNL     1       2.849  -3.031   0.055  0.00  0.00    +0.041 A 
ATOM     27  C   UNL     1       1.992  -2.512  -0.899  0.00  0.00    +0.020 A 
ATOM     28  C   UNL     1       1.803  -1.145  -0.987  0.00  0.00    +0.007 A 
ATOM     29 CL   UNL     1       3.087  -4.747   0.166  0.00  0.00    -0.084 Cl
ENDBRANCH  22  23
BRANCH  22  30
ATOM     30  C   UNL     1       0.939   1.556   0.397  0.00  0.00    +0.238 C 
ATOM     31  O   UNL     1       0.794   1.506   1.600  0.00  0.00    -0.273 OA
ATOM     32  N   UNL     1      -0.087   1.939  -0.390  0.00  0.00    -0.309 N 
ATOM     33  H   UNL     1       0.028   1.980  -1.352  0.00  0.00    +0.149 HD
BRANCH  32  34
ATOM     34  C   UNL     1      -1.375   2.300   0.210  0.00  0.00    +0.026 C 
ATOM     35  C   UNL     1      -1.179   3.475   1.170  0.00  0.00    +0.031 C 
ATOM     36  C   UNL     1      -2.357   2.700  -0.893  0.00  0.00    +0.031 C 
ATOM     37  C   UNL     1      -1.933   1.100   0.979  0.00  0.00    +0.031 C 
ENDBRANCH  32  34
ENDBRANCH  22  30
ENDBRANCH   3  22
TORSDOF 9
