REMARK  Name = ZINC32623076
REMARK  10 active torsions:
REMARK  status: ('A' for Active; 'I' for Inactive)
REMARK    1  A    between atoms: C_1  and  C_2
REMARK    2  A    between atoms: C_2  and  C_3
REMARK    3  A    between atoms: C_6  and  C_9
REMARK    4  A    between atoms: C_9  and  C_11
REMARK    5  A    between atoms: C_9  and  N_28
REMARK    6  A    between atoms: C_11  and  N_12
REMARK    7  A    between atoms: C_13  and  C_15
REMARK    8  A    between atoms: C_17  and  C_20
REMARK    9  A    between atoms: C_23  and  O_26
REMARK   10  A    between atoms: O_26  and  C_27
REMARK                            x       y       z     vdW  Elec       q    Type
REMARK                         _______ _______ _______ _____ _____    ______ ____
ROOT
ATOM      1  N   UNL     1       6.014  -0.391   1.165  0.00  0.00    -0.311 N 
ATOM      2  C   UNL     1       5.859   0.931   1.378  0.00  0.00    +0.266 C 
ATOM      3  O   UNL     1       5.340   1.627   0.528  0.00  0.00    -0.268 OA
ATOM      4  H   UNL     1       6.484  -1.021   1.935  0.00  0.00    +0.149 HD
ENDROOT
BRANCH   2   5
ATOM      5  C   UNL     1       6.322   1.536   2.651  0.00  0.00    +0.168 A 
ATOM      6  C   UNL     1       6.232   2.901   3.026  0.00  0.00    +0.086 A 
ATOM      7  C   UNL     1       6.791   2.935   4.274  0.00  0.00    +0.168 A 
ATOM      8  O   UNL     1       7.160   1.673   4.557  0.00  0.00    -0.354 OA
ATOM      9  N   UNL     1       6.895   0.916   3.654  0.00  0.00    -0.073 NA
BRANCH   7  10
ATOM     10  C   UNL     1       6.952   4.121   5.141  0.00  0.00    +0.020 A 
ATOM     11  C   UNL     1       6.520   5.373   4.700  0.00  0.00    +0.015 A 
ATOM     12  C   UNL     1       6.667   6.476   5.513  0.00  0.00    +0.046 A 
ATOM     13  C   UNL     1       7.254   6.345   6.765  0.00  0.00    +0.120 A 
ATOM     14  C   UNL     1       7.690   5.101   7.205  0.00  0.00    +0.046 A 
ATOM     15  C   UNL     1       7.541   3.993   6.400  0.00  0.00    +0.015 A 
BRANCH  13  16
ATOM     16  O   UNL     1       7.403   7.435   7.562  0.00  0.00    -0.495 OA
ATOM     17  C   UNL     1       6.933   8.683   7.048  0.00  0.00    +0.277 C 
ENDBRANCH  13  16
ENDBRANCH   7  10
ENDBRANCH   2   5
BRANCH   1  18
ATOM     18  C   UNL     1       5.557  -0.989  -0.092  0.00  0.00    +0.094 C 
BRANCH  18  19
ATOM     19  C   UNL     1       5.966  -2.462  -0.135  0.00  0.00    -0.020 C 
BRANCH  19  23
ATOM     20  C   UNL     1      10.226  -2.757  -0.261  0.00  0.00    -0.048 A 
ATOM     21  C   UNL     1       9.555  -2.941   0.934  0.00  0.00    +0.004 A 
ATOM     22  C   UNL     1       8.177  -2.845   0.975  0.00  0.00    +0.002 A 
ATOM     23  C   UNL     1       7.469  -2.566  -0.179  0.00  0.00    -0.059 A 
ATOM     24  C   UNL     1       8.139  -2.387  -1.375  0.00  0.00    +0.002 A 
ATOM     25  C   UNL     1       9.517  -2.477  -1.415  0.00  0.00    +0.004 A 
BRANCH  20  27
ATOM     26  C   UNL     1      12.130  -4.308  -0.598  0.00  0.00    +0.009 C 
ATOM     27  C   UNL     1      11.728  -2.861  -0.306  0.00  0.00    +0.032 C 
ENDBRANCH  20  27
ENDBRANCH  19  23
BRANCH  19  28
ATOM     28  N   UNL     1       5.396  -3.095  -1.332  0.00  0.00    +0.385 N 
ATOM     29  C   UNL     1       5.773  -4.529  -1.407  0.00  0.00    -0.078 C 
ATOM     30  C   UNL     1       4.708  -5.126  -2.361  0.00  0.00    -0.020 C 
ATOM     31  C   UNL     1       3.424  -4.360  -1.969  0.00  0.00    -0.020 C 
ATOM     32  C   UNL     1       3.917  -3.068  -1.292  0.00  0.00    -0.078 C 
ATOM     33  H   UNL     1       5.787  -2.523  -2.187  0.00  0.00    -0.081 HD
ENDBRANCH  19  28
ENDBRANCH  18  19
ENDBRANCH   1  18
TORSDOF 8
