REMARK  Name = ZINC43414384
REMARK  4 active torsions:
REMARK  status: ('A' for Active; 'I' for Inactive)
REMARK    1  A    between atoms: C_4  and  C_7
REMARK    2  A    between atoms: C_4  and  C_11
REMARK    3  A    between atoms: C_7  and  C_8
REMARK    4  A    between atoms: C_11  and  N_12
REMARK                            x       y       z     vdW  Elec       q    Type
REMARK                         _______ _______ _______ _____ _____    ______ ____
ROOT
ATOM      1  C   UNL     1       2.891  -0.518  -2.464  0.00  0.00    +0.113 C 
ENDROOT
BRANCH   1   2
ATOM      2  N   UNL     1       2.756  -1.977  -2.482  0.00  0.00    -0.299 N 
ATOM      3  C   UNL     1       3.235  -2.685  -3.524  0.00  0.00    +0.302 C 
ATOM      4  O   UNL     1       3.778  -2.113  -4.449  0.00  0.00    -0.253 OA
ATOM      5  N   UNL     1       3.111  -4.027  -3.540  0.00  0.00    -0.282 N 
ATOM      6  C   UNL     1       2.476  -4.867  -2.503  0.00  0.00    +0.113 C 
ATOM      7  C   UNL     1       2.588  -6.330  -3.035  0.00  0.00    +0.008 C 
ATOM      8  C   UNL     1       4.107  -6.665  -2.897  0.00  0.00    +0.007 C 
ATOM      9  C   UNL     1       4.793  -5.735  -3.925  0.00  0.00    +0.023 C 
ATOM     10  C   UNL     1       3.583  -4.952  -4.611  0.00  0.00    +0.078 C 
ATOM     11  C   UNL     1       2.472  -6.053  -4.577  0.00  0.00    +0.027 C 
ATOM     12  H   UNL     1       2.323  -2.433  -1.743  0.00  0.00    +0.150 HD
ENDBRANCH   1   2
BRANCH   1  16
ATOM     13  C   UNL     1       0.182   1.857  -0.067  0.00  0.00    +0.000 C 
ATOM     14  C   UNL     1       1.683   2.118   0.069  0.00  0.00    +0.001 C 
ATOM     15  C   UNL     1       2.412   1.554  -1.152  0.00  0.00    +0.009 C 
ATOM     16  C   UNL     1       2.162   0.047  -1.243  0.00  0.00    -0.003 C 
ATOM     17  C   UNL     1       0.661  -0.214  -1.379  0.00  0.00    +0.009 C 
ATOM     18  C   UNL     1      -0.068   0.350  -0.158  0.00  0.00    +0.001 C 
BRANCH  16  19
ATOM     19  C   UNL     1       2.686  -0.634   0.023  0.00  0.00    +0.133 C 
BRANCH  19  20
ATOM     20  C   UNL     1       4.173  -0.416   0.132  0.00  0.00    +0.357 C 
ATOM     21  O   UNL     1       4.747   0.287  -0.681  0.00  0.00    -0.246 OA
ATOM     22  O   UNL     1       4.802  -0.944   1.033  0.00  0.00    -0.246 OA
ENDBRANCH  19  20
ENDBRANCH  16  19
ENDBRANCH   1  16
TORSDOF 4
