REMARK  Name = ZINC12894008
REMARK  4 active torsions:
REMARK  status: ('A' for Active; 'I' for Inactive)
REMARK    1  A    between atoms: C_1  and  C_2
REMARK    2  A    between atoms: C_5  and  C_8
REMARK    3  A    between atoms: C_8  and  C_10
REMARK    4  A    between atoms: C_8  and  N_15
REMARK                            x       y       z     vdW  Elec       q    Type
REMARK                         _______ _______ _______ _____ _____    ______ ____
ROOT
ATOM      1  C   UNL     1      -2.514   0.980   0.019  0.00  0.00    +0.139 C 
ENDROOT
BRANCH   1   2
ATOM      2  N   UNL     1      -3.470   1.634   0.915  0.00  0.00    -0.316 N 
ATOM      3  C   UNL     1      -4.498   0.897   1.493  0.00  0.00    +0.142 A 
ATOM      4  C   UNL     1      -4.611  -0.477   1.213  0.00  0.00    +0.049 A 
ATOM      5  C   UNL     1      -5.613  -1.208   1.773  0.00  0.00    +0.055 A 
ATOM      6  C   UNL     1      -6.527  -0.571   2.632  0.00  0.00    +0.200 A 
ATOM      7  N   UNL     1      -7.583  -0.981   3.321  0.00  0.00    -0.107 NA
ATOM      8  N   UNL     1      -8.097   0.002   3.971  0.00  0.00    -0.021 NA
ATOM      9  N   UNL     1      -7.434   1.088   3.760  0.00  0.00    -0.021 NA
ATOM     10  N   UNL     1      -6.389   0.767   2.885  0.00  0.00    -0.108 N 
ATOM     11  N   UNL     1      -5.349   1.490   2.301  0.00  0.00    -0.131 NA
ATOM     12  H   UNL     1      -3.387   2.581   1.105  0.00  0.00    +0.148 HD
ENDBRANCH   1   2
BRANCH   1  17
ATOM     13  C   UNL     1       2.451   3.937  -0.001  0.00  0.00    +0.044 C 
ATOM     14  C   UNL     1       1.156   3.165   0.008  0.00  0.00    -0.050 A 
ATOM     15  C   UNL     1       1.175   1.783   0.000  0.00  0.00    +0.004 A 
ATOM     16  C   UNL     1      -0.013   1.076   0.008  0.00  0.00    +0.006 A 
ATOM     17  C   UNL     1      -1.219   1.751   0.017  0.00  0.00    -0.022 A 
ATOM     18  C   UNL     1      -1.238   3.133   0.030  0.00  0.00    +0.006 A 
ATOM     19  C   UNL     1      -0.050   3.840   0.022  0.00  0.00    +0.004 A 
ENDBRANCH   1  17
BRANCH   1  20
ATOM     20  C   UNL     1      -3.078   0.942  -1.377  0.00  0.00    +0.014 A 
ATOM     21  C   UNL     1      -3.014  -0.051  -2.298  0.00  0.00    +0.013 A 
ATOM     22  C   UNL     1      -3.615   0.136  -3.529  0.00  0.00    +0.008 A 
ATOM     23  C   UNL     1      -4.241   1.310  -3.783  0.00  0.00    +0.045 A 
ATOM     24  S   UNL     1      -3.998   2.197  -2.252  0.00  0.00    -0.099 S 
ENDBRANCH   1  20
TORSDOF 3
