REMARK  Name = ZINC40824142
REMARK  8 active torsions:
REMARK  status: ('A' for Active; 'I' for Inactive)
REMARK    1  A    between atoms: C_1  and  C_2
REMARK    2  A    between atoms: C_6  and  C_7
REMARK    3  A    between atoms: N_9  and  C_10
REMARK    4  A    between atoms: C_10  and  C_11
REMARK    5  A    between atoms: C_10  and  C_12
REMARK    6  A    between atoms: C_10  and  C_13
REMARK    7  A    between atoms: N_18  and  N_19
REMARK    8  A    between atoms: N_19  and  C_20
REMARK                            x       y       z     vdW  Elec       q    Type
REMARK                         _______ _______ _______ _____ _____    ______ ____
ROOT
ATOM      1  C   UNL     1      -0.018   1.503   0.010  0.00  0.00    +0.048 C 
ATOM      2  C   UNL     1       0.002  -0.004   0.002  0.00  0.00    +0.009 A 
ATOM      3  C   UNL     1       0.009  -0.838  -1.122  0.00  0.00    +0.042 A 
ATOM      4  C   UNL     1       0.027  -2.137  -0.673  0.00  0.00    +0.115 A 
ATOM      5  O   UNL     1       0.035  -2.112   0.658  0.00  0.00    -0.454 OA
ATOM      6  C   UNL     1       0.024  -0.830   1.091  0.00  0.00    +0.193 A 
ATOM      7  C   UNL     1       0.034  -3.326  -1.600  0.00  0.00    +0.075 C 
ATOM      8  C   UNL     1      -0.492  -2.902  -2.974  0.00  0.00    +0.014 C 
ATOM      9  C   UNL     1       0.279  -1.684  -3.495  0.00  0.00    +0.058 C 
ATOM     10  C   UNL     1       0.000  -0.511  -2.566  0.00  0.00    +0.070 C 
ATOM     11  N   UNL     1      -0.228   0.687  -3.008  0.00  0.00    -0.186 NA
ENDROOT
BRANCH   6  12
ATOM     12  C   UNL     1       0.031  -0.400   2.494  0.00  0.00    +0.280 C 
ATOM     13  O   UNL     1       0.017   0.786   2.766  0.00  0.00    -0.267 OA
ATOM     14  N   UNL     1       0.054  -1.317   3.480  0.00  0.00    -0.304 N 
ATOM     15  H   UNL     1       0.065  -2.263   3.263  0.00  0.00    +0.150 HD
BRANCH  14  16
ATOM     16  C   UNL     1       0.061  -0.887   4.881  0.00  0.00    +0.027 C 
ATOM     17  C   UNL     1      -1.198  -0.066   5.168  0.00  0.00    +0.031 C 
ATOM     18  C   UNL     1       0.087  -2.116   5.792  0.00  0.00    +0.031 C 
ATOM     19  C   UNL     1       1.301  -0.030   5.145  0.00  0.00    +0.031 C 
ENDBRANCH  14  16
ENDBRANCH   6  12
BRANCH  11  20
ATOM     20  N   UNL     1      -0.223   0.939  -4.386  0.00  0.00    -0.238 N 
ATOM     21  H   UNL     1      -0.050   0.217  -5.010  0.00  0.00    +0.174 HD
BRANCH  20  22
ATOM     22  C   UNL     1      -0.468   2.228  -4.860  0.00  0.00    +0.048 A 
ATOM     23  C   UNL     1      -0.711   3.265  -3.967  0.00  0.00    +0.025 A 
ATOM     24  C   UNL     1      -0.952   4.539  -4.440  0.00  0.00    +0.002 A 
ATOM     25  C   UNL     1      -0.953   4.785  -5.801  0.00  0.00    +0.000 A 
ATOM     26  C   UNL     1      -0.712   3.756  -6.693  0.00  0.00    +0.002 A 
ATOM     27  C   UNL     1      -0.464   2.480  -6.227  0.00  0.00    +0.025 A 
ENDBRANCH  20  22
ENDBRANCH  11  20
TORSDOF 4
