REMARK  Name = ZINC35093569
REMARK  13 active torsions:
REMARK  status: ('A' for Active; 'I' for Inactive)
REMARK    1  A    between atoms: C_1  and  C_2
REMARK    2  A    between atoms: C_2  and  C_3
REMARK    3  A    between atoms: C_6  and  N_9
REMARK    4  A    between atoms: C_19  and  C_20
REMARK    5  A    between atoms: C_20  and  C_22
REMARK    6  A    between atoms: C_20  and  N_24
REMARK    7  A    between atoms: C_22  and  C_23
REMARK    8  A    between atoms: N_24  and  C_25
REMARK    9  A    between atoms: C_25  and  C_26
REMARK   10  A    between atoms: C_26  and  N_27
REMARK   11  A    between atoms: N_27  and  C_28
REMARK   12  A    between atoms: N_27  and  C_29
REMARK   13  A    between atoms: N_32  and  C_33
REMARK                            x       y       z     vdW  Elec       q    Type
REMARK                         _______ _______ _______ _____ _____    ______ ____
ROOT
ATOM      1  C   UNL     1      -5.335  -2.031  -2.497  0.00  0.00    +0.144 C 
ENDROOT
BRANCH   1  12
ATOM      2  N   UNL     1      -6.915  -2.034  -0.608  0.00  0.00    -0.263 N 
ATOM      3  C   UNL     1      -7.459  -2.568   0.511  0.00  0.00    +0.266 A 
ATOM      4  O   UNL     1      -8.374  -2.016   1.095  0.00  0.00    -0.267 OA
ATOM      5  C   UNL     1      -6.904  -3.841   0.993  0.00  0.00    +0.065 A 
ATOM      6  C   UNL     1      -7.393  -4.473   2.135  0.00  0.00    +0.015 A 
ATOM      7  C   UNL     1      -6.835  -5.665   2.542  0.00  0.00    +0.001 A 
ATOM      8  C   UNL     1      -5.793  -6.238   1.826  0.00  0.00    +0.002 A 
ATOM      9  C   UNL     1      -5.295  -5.630   0.696  0.00  0.00    +0.028 A 
ATOM     10  C   UNL     1      -5.843  -4.421   0.262  0.00  0.00    +0.078 A 
ATOM     11  N   UNL     1      -5.384  -3.788  -0.846  0.00  0.00    -0.231 NA
ATOM     12  C   UNL     1      -5.898  -2.667  -1.252  0.00  0.00    +0.138 A 
BRANCH   2  16
ATOM     13  C   UNL     1      -8.381   1.569  -2.101  0.00  0.00    -0.047 A 
ATOM     14  C   UNL     1      -7.131   1.524  -1.512  0.00  0.00    +0.005 A 
ATOM     15  C   UNL     1      -6.642   0.331  -1.016  0.00  0.00    +0.026 A 
ATOM     16  C   UNL     1      -7.408  -0.823  -1.109  0.00  0.00    +0.051 A 
ATOM     17  C   UNL     1      -8.663  -0.774  -1.701  0.00  0.00    +0.026 A 
ATOM     18  C   UNL     1      -9.149   0.422  -2.190  0.00  0.00    +0.005 A 
BRANCH  13  20
ATOM     19  C   UNL     1      -9.678   3.607  -1.540  0.00  0.00    +0.009 C 
ATOM     20  C   UNL     1      -8.911   2.873  -2.642  0.00  0.00    +0.032 C 
ENDBRANCH  13  20
ENDBRANCH   2  16
ENDBRANCH   1  12
BRANCH   1  21
ATOM     21  N   UNL     1      -6.272  -2.217  -3.607  0.00  0.00    -0.277 N 
ATOM     22  C   UNL     1      -6.702  -1.151  -4.311  0.00  0.00    +0.303 C 
ATOM     23  O   UNL     1      -6.312  -0.035  -4.025  0.00  0.00    -0.253 OA
ATOM     24  N   UNL     1      -7.565  -1.321  -5.333  0.00  0.00    -0.296 N 
ATOM     25  H   UNL     1      -7.876  -2.211  -5.561  0.00  0.00    +0.151 HD
BRANCH  24  26
ATOM     26  C   UNL     1      -8.032  -0.163  -6.098  0.00  0.00    +0.074 C 
ATOM     27  C   UNL     1      -7.021   0.163  -7.199  0.00  0.00    +0.022 C 
ATOM     28  C   UNL     1      -7.509   1.372  -7.998  0.00  0.00    +0.002 C 
ATOM     29  C   UNL     1      -8.865   1.053  -8.630  0.00  0.00    +0.000 C 
ATOM     30  C   UNL     1      -9.876   0.728  -7.529  0.00  0.00    +0.002 C 
ATOM     31  C   UNL     1      -9.389  -0.482  -6.729  0.00  0.00    +0.022 C 
ENDBRANCH  24  26
BRANCH  21  32
ATOM     32  C   UNL     1      -6.743  -3.560  -3.952  0.00  0.00    +0.091 C 
BRANCH  32  33
ATOM     33  C   UNL     1      -8.086  -3.821  -3.268  0.00  0.00    -0.060 C 
BRANCH  33  34
ATOM     34  N   UNL     1      -8.497  -5.211  -3.510  0.00  0.00    +0.377 N 
ATOM     35  C   UNL     1      -9.725  -5.497  -2.756  0.00  0.00    -0.097 C 
ATOM     36  C   UNL     1      -8.747  -5.405  -4.945  0.00  0.00    -0.097 C 
ATOM     37  H   UNL     1      -7.764  -5.836  -3.209  0.00  0.00    -0.083 HD
ENDBRANCH  33  34
ENDBRANCH  32  33
ENDBRANCH  21  32
ENDBRANCH   1  21
BRANCH   1  38
ATOM     38  C   UNL     1      -3.997  -2.688  -2.844  0.00  0.00    +0.027 C 
ATOM     39  C   UNL     1      -3.370  -1.966  -4.039  0.00  0.00    +0.006 C 
ENDBRANCH   1  38
TORSDOF 9
