REMARK  Name = ZINC62147431
REMARK  11 active torsions:
REMARK  status: ('A' for Active; 'I' for Inactive)
REMARK    1  A    between atoms: C_1  and  C_2
REMARK    2  A    between atoms: C_2  and  C_3
REMARK    3  A    between atoms: C_3  and  C_5
REMARK    4  A    between atoms: C_3  and  C_6
REMARK    5  A    between atoms: C_6  and  C_8
REMARK    6  A    between atoms: C_6  and  N_21
REMARK    7  A    between atoms: C_22  and  O_24
REMARK    8  A    between atoms: O_24  and  C_25
REMARK    9  A    between atoms: C_25  and  C_26
REMARK   10  A    between atoms: C_25  and  C_27
REMARK   11  A    between atoms: C_25  and  C_28
REMARK                            x       y       z     vdW  Elec       q    Type
REMARK                         _______ _______ _______ _____ _____    ______ ____
ROOT
ATOM      1  C   UNL     1       0.849  -2.021  -1.205  0.00  0.00    +0.165 C 
ENDROOT
BRANCH   1   2
ATOM      2  C   UNL     1       1.746  -2.409  -0.058  0.00  0.00    +0.241 C 
ATOM      3  O   UNL     1       1.352  -3.188   0.784  0.00  0.00    -0.273 OA
ATOM      4  N   UNL     1       2.987  -1.891   0.033  0.00  0.00    -0.269 N 
ATOM      5  C   UNL     1       3.426  -0.862  -0.918  0.00  0.00    +0.121 C 
ATOM      6  C   UNL     1       4.807  -1.249  -1.465  0.00  0.00    +0.099 C 
ATOM      7  C   UNL     1       5.747  -1.402  -0.285  0.00  0.00    +0.166 C 
ATOM      8  O   UNL     1       6.876  -0.960  -0.319  0.00  0.00    -0.292 OA
ATOM      9  C   UNL     1       5.238  -2.106   0.903  0.00  0.00    +0.039 A 
ATOM     10  C   UNL     1       3.853  -2.326   1.031  0.00  0.00    +0.047 A 
ATOM     11  C   UNL     1       3.365  -2.982   2.151  0.00  0.00    +0.024 A 
ATOM     12  C   UNL     1       4.236  -3.411   3.133  0.00  0.00    +0.002 A 
ATOM     13  C   UNL     1       5.600  -3.195   3.012  0.00  0.00    +0.001 A 
ATOM     14  C   UNL     1       6.109  -2.550   1.899  0.00  0.00    +0.013 A 
ENDBRANCH   1   2
BRANCH   1  15
ATOM     15  N   UNL     1      -0.363  -2.843  -1.177  0.00  0.00    -0.270 N 
ATOM     16  C   UNL     1      -1.058  -3.057  -2.312  0.00  0.00    +0.401 C 
ATOM     17  O   UNL     1      -0.679  -2.568  -3.357  0.00  0.00    -0.226 OA
ATOM     18  H   UNL     1      -0.665  -3.233  -0.342  0.00  0.00    +0.153 HD
BRANCH  16  19
ATOM     19  O   UNL     1      -2.172  -3.813  -2.286  0.00  0.00    -0.445 OA
BRANCH  19  20
ATOM     20  C   UNL     1      -2.859  -3.998  -3.525  0.00  0.00    +0.107 C 
ATOM     21  C   UNL     1      -1.925  -4.676  -4.530  0.00  0.00    +0.055 C 
ATOM     22  C   UNL     1      -4.090  -4.878  -3.300  0.00  0.00    +0.055 C 
ATOM     23  C   UNL     1      -3.297  -2.639  -4.074  0.00  0.00    +0.055 C 
ENDBRANCH  19  20
ENDBRANCH  16  19
ENDBRANCH   1  15
BRANCH   1  24
ATOM     24  C   UNL     1       0.467  -0.545  -1.076  0.00  0.00    +0.015 C 
ATOM     25  C   UNL     1      -0.331  -0.115  -2.308  0.00  0.00    +0.010 C 
BRANCH  24  27
ATOM     26  C   UNL     1      -0.664   1.145   0.376  0.00  0.00    +0.004 C 
ATOM     27  C   UNL     1      -0.386  -0.346   0.179  0.00  0.00    +0.002 C 
ENDBRANCH  24  27
ENDBRANCH   1  24
TORSDOF 6
