REMARK  Name = ZINC43861738
REMARK  7 active torsions:
REMARK  status: ('A' for Active; 'I' for Inactive)
REMARK    1  A    between atoms: C_3  and  C_6
REMARK    2  A    between atoms: C_6  and  N_7
REMARK    3  A    between atoms: N_7  and  C_8
REMARK    4  A    between atoms: N_13  and  C_14
REMARK    5  A    between atoms: C_14  and  C_15
REMARK    6  A    between atoms: C_15  and  S_16
REMARK    7  A    between atoms: S_16  and  C_17
REMARK                            x       y       z     vdW  Elec       q    Type
REMARK                         _______ _______ _______ _____ _____    ______ ____
ROOT
ATOM      1  N   UNL     1       4.095   0.601   1.339  0.00  0.00    -0.275 N 
ATOM      2  C   UNL     1       4.337   1.760   1.984  0.00  0.00    +0.303 C 
ATOM      3  O   UNL     1       4.070   2.819   1.451  0.00  0.00    -0.253 OA
ATOM      4  N   UNL     1       4.876   1.744   3.219  0.00  0.00    -0.298 N 
ATOM      5  H   UNL     1       5.157   0.904   3.615  0.00  0.00    +0.150 HD
ENDROOT
BRANCH   1   6
ATOM      6  C   UNL     1       4.315  -0.677   2.021  0.00  0.00    +0.078 C 
ATOM      7  C   UNL     1       4.084  -1.956   1.215  0.00  0.00    +0.024 C 
ATOM      8  C   UNL     1       3.089  -1.547   2.304  0.00  0.00    +0.024 C 
ENDBRANCH   1   6
BRANCH   1   9
ATOM      9  C   UNL     1       3.612   0.620  -0.044  0.00  0.00    +0.183 C 
BRANCH   9  12
ATOM     10  C   UNL     1      -0.008   1.313  -0.052  0.00  0.00    +0.041 A 
ATOM     11  C   UNL     1       1.337   1.750  -0.044  0.00  0.00    +0.046 A 
ATOM     12  C   UNL     1       2.105   0.645  -0.049  0.00  0.00    +0.122 A 
ATOM     13  O   UNL     1       1.301  -0.431  -0.060  0.00  0.00    -0.466 OA
ATOM     14  C   UNL     1       0.019  -0.032  -0.062  0.00  0.00    +0.195 A 
ENDBRANCH   9  12
ENDBRANCH   1   9
BRANCH   4  15
ATOM     15  C   UNL     1       5.037   2.994   3.965  0.00  0.00    +0.116 C 
BRANCH  15  16
ATOM     16  C   UNL     1       5.667   2.699   5.327  0.00  0.00    +0.093 C 
BRANCH  16  17
ATOM     17  S   UNL     1       5.866   4.247   6.250  0.00  0.00    -0.124 S 
BRANCH  17  18
ATOM     18  C   UNL     1       6.594   3.745   7.774  0.00  0.00    +0.008 A 
ATOM     19  C   UNL     1       6.874   2.403   8.003  0.00  0.00    +0.016 A 
ATOM     20  C   UNL     1       7.444   2.012   9.198  0.00  0.00    +0.021 A 
ATOM     21  C   UNL     1       7.736   2.955  10.168  0.00  0.00    +0.041 A 
ATOM     22  C   UNL     1       7.458   4.292   9.943  0.00  0.00    +0.021 A 
ATOM     23  C   UNL     1       6.893   4.690   8.748  0.00  0.00    +0.016 A 
ATOM     24 CL   UNL     1       8.452   2.460  11.670  0.00  0.00    -0.084 Cl
ENDBRANCH  17  18
ENDBRANCH  16  17
ENDBRANCH  15  16
ENDBRANCH   4  15
TORSDOF 7
