REMARK  Name = ZINC21142752
REMARK  6 active torsions:
REMARK  status: ('A' for Active; 'I' for Inactive)
REMARK    1  A    between atoms: C_1  and  C_2
REMARK    2  A    between atoms: C_2  and  C_4
REMARK    3  A    between atoms: C_2  and  O_21
REMARK    4  A    between atoms: N_6  and  C_7
REMARK    5  A    between atoms: C_12  and  C_13
REMARK    6  A    between atoms: O_21  and  C_22
REMARK                            x       y       z     vdW  Elec       q    Type
REMARK                         _______ _______ _______ _____ _____    ______ ____
ROOT
ATOM      1  C   UNL     1      -2.599   1.243  -0.047  0.00  0.00    +0.046 A 
ATOM      2  C   UNL     1      -3.638   1.897   0.602  0.00  0.00    +0.024 A 
ATOM      3  C   UNL     1      -3.615   3.271   0.735  0.00  0.00    +0.002 A 
ATOM      4  C   UNL     1      -2.556   4.006   0.228  0.00  0.00    +0.001 A 
ATOM      5  C   UNL     1      -1.513   3.374  -0.414  0.00  0.00    +0.015 A 
ATOM      6  C   UNL     1      -1.523   1.985  -0.557  0.00  0.00    +0.058 A 
ENDROOT
BRANCH   6   7
ATOM      7  C   UNL     1      -0.411   1.302  -1.244  0.00  0.00    +0.251 C 
ATOM      8  O   UNL     1      -0.377   0.087  -1.287  0.00  0.00    -0.270 OA
ATOM      9  N   UNL     1       0.565   2.024  -1.829  0.00  0.00    -0.261 N 
ATOM     10  C   UNL     1       1.609   1.381  -2.481  0.00  0.00    +0.165 A 
ATOM     11  N   UNL     1       1.823   0.088  -2.629  0.00  0.00    -0.233 NA
ATOM     12  C   UNL     1       2.874  -0.360  -3.287  0.00  0.00    +0.120 A 
ATOM     13  C   UNL     1       3.744   0.541  -3.804  0.00  0.00    +0.068 A 
ATOM     14  S   UNL     1       2.972   2.073  -3.305  0.00  0.00    -0.061 S 
ATOM     15  H   UNL     1       0.534   3.123  -1.790  0.00  0.00    +0.157 HD
ENDBRANCH   6   7
BRANCH   1  18
ATOM     16  C   UNL     1      -3.796  -0.781  -0.374  0.00  0.00    +0.258 C 
ATOM     17  O   UNL     1      -4.816  -0.143  -0.522  0.00  0.00    -0.271 OA
ATOM     18  N   UNL     1      -2.623  -0.142  -0.187  0.00  0.00    -0.282 N 
ATOM     19  H   UNL     1      -1.685  -0.716  -0.145  0.00  0.00    +0.155 HD
BRANCH  16  21
ATOM     20  C   UNL     1      -3.446  -2.832   0.975  0.00  0.00    +0.062 C 
ATOM     21  C   UNL     1      -3.838  -2.287  -0.401  0.00  0.00    +0.256 C 
BRANCH  21  22
ATOM     22  O   UNL     1      -5.160  -2.721  -0.727  0.00  0.00    -0.480 OA
BRANCH  22  23
ATOM     23  C   UNL     1      -5.272  -3.857  -1.464  0.00  0.00    +0.122 A 
ATOM     24  C   UNL     1      -4.142  -4.604  -1.765  0.00  0.00    +0.047 A 
ATOM     25  C   UNL     1      -4.259  -5.761  -2.510  0.00  0.00    +0.018 A 
ATOM     26  C   UNL     1      -5.500  -6.170  -2.964  0.00  0.00    +0.014 A 
ATOM     27  C   UNL     1      -6.627  -5.425  -2.669  0.00  0.00    +0.018 A 
ATOM     28  C   UNL     1      -6.515  -4.269  -1.920  0.00  0.00    +0.047 A 
ATOM     29  I   UNL     1      -5.673  -7.922  -4.100  0.00  0.00    -0.044 I 
ENDBRANCH  22  23
ENDBRANCH  21  22
ENDBRANCH  16  21
ENDBRANCH   1  18
TORSDOF 5
