REMARK  Name = ZINC33937234
REMARK  12 active torsions:
REMARK  status: ('A' for Active; 'I' for Inactive)
REMARK    1  A    between atoms: C_1  and  C_2
REMARK    2  A    between atoms: C_2  and  C_3
REMARK    3  A    between atoms: C_2  and  C_4
REMARK    4  A    between atoms: C_4  and  C_6
REMARK    5  A    between atoms: C_4  and  N_18
REMARK    6  A    between atoms: N_10  and  C_11
REMARK    7  A    between atoms: C_11  and  C_12
REMARK    8  A    between atoms: N_18  and  C_19
REMARK    9  A    between atoms: N_18  and  C_34
REMARK   10  A    between atoms: C_19  and  C_20
REMARK   11  A    between atoms: C_24  and  O_32
REMARK   12  A    between atoms: O_32  and  C_33
REMARK                            x       y       z     vdW  Elec       q    Type
REMARK                         _______ _______ _______ _____ _____    ______ ____
ROOT
ATOM      1  N   UNL     1       2.001   0.471   1.281  0.00  0.00    +0.391 N 
ATOM      2  H   UNL     1       2.616   0.246   0.512  0.00  0.00    -0.080 HD
ENDROOT
BRANCH   1   3
ATOM      3  C   UNL     1       1.695   1.907   1.260  0.00  0.00    -0.067 C 
ATOM      4  C   UNL     1       0.676   2.214   0.143  0.00  0.00    -0.015 C 
ATOM      5  C   UNL     1       1.127   3.585  -0.418  0.00  0.00    -0.002 C 
ATOM      6  C   UNL     1       2.672   3.479  -0.377  0.00  0.00    -0.002 C 
ATOM      7  C   UNL     1       2.965   2.712   0.928  0.00  0.00    -0.015 C 
ENDBRANCH   1   3
BRANCH   1   8
ATOM      8  C   UNL     1       0.756  -0.297   1.152  0.00  0.00    +0.006 C 
BRANCH   8   9
ATOM      9  C   UNL     1      -0.105  -0.065   2.367  0.00  0.00    +0.138 A 
ATOM     10  N   UNL     1       0.288  -0.064   3.617  0.00  0.00    -0.115 NA
ATOM     11  N   UNL     1      -0.739   0.172   4.358  0.00  0.00    -0.023 NA
ATOM     12  N   UNL     1      -1.778   0.322   3.613  0.00  0.00    -0.044 NA
ATOM     13  N   UNL     1      -1.427   0.188   2.378  0.00  0.00    -0.228 N 
BRANCH  13  14
ATOM     14  C   UNL     1      -2.304   0.289   1.209  0.00  0.00    +0.178 C 
BRANCH  14  15
ATOM     15  C   UNL     1      -2.879  -1.090   0.882  0.00  0.00    +0.140 C 
ATOM     16  C   UNL     1      -3.880  -0.990  -0.297  0.00  0.00    +0.035 C 
ATOM     17  C   UNL     1      -3.821  -2.437  -0.858  0.00  0.00    +0.031 C 
ATOM     18  C   UNL     1      -2.346  -2.823  -0.613  0.00  0.00    +0.160 C 
ATOM     19  O   UNL     1      -1.840  -1.967   0.420  0.00  0.00    -0.375 OA
ENDBRANCH  14  15
ENDBRANCH  13  14
ENDBRANCH   8   9
BRANCH   8  21
ATOM     20  C   UNL     1       2.459  -1.958   0.389  0.00  0.00    +0.006 C 
ATOM     21  C   UNL     1       1.085  -1.787   1.038  0.00  0.00    -0.024 C 
ATOM     22  C   UNL     1       1.098  -2.415   2.434  0.00  0.00    +0.006 C 
ENDBRANCH   8  21
ENDBRANCH   1   8
BRANCH   1  23
ATOM     23  C   UNL     1       2.659   0.129   2.549  0.00  0.00    -0.036 C 
BRANCH  23  24
ATOM     24  C   UNL     1       3.966   0.871   2.653  0.00  0.00    +0.001 A 
ATOM     25  C   UNL     1       4.030   2.033   3.348  0.00  0.00    +0.017 A 
ATOM     26  C   UNL     1       5.315   2.730   3.430  0.00  0.00    +0.002 A 
ATOM     27  C   UNL     1       5.441   3.933   4.134  0.00  0.00    +0.055 A 
ATOM     28  C   UNL     1       6.668   4.563   4.192  0.00  0.00    +0.121 A 
ATOM     29  C   UNL     1       7.775   4.007   3.555  0.00  0.00    +0.047 A 
ATOM     30  C   UNL     1       7.663   2.823   2.859  0.00  0.00    +0.030 A 
ATOM     31  C   UNL     1       6.436   2.172   2.788  0.00  0.00    +0.049 A 
ATOM     32  N   UNL     1       6.305   0.985   2.097  0.00  0.00    -0.322 N 
ATOM     33  H   UNL     1       7.078   0.601   1.655  0.00  0.00    +0.169 HD
ATOM     34  C   UNL     1       5.121   0.350   2.032  0.00  0.00    +0.251 A 
ATOM     35  O   UNL     1       5.043  -0.700   1.416  0.00  0.00    -0.268 OA
BRANCH  28  36
ATOM     36  O   UNL     1       6.796   5.732   4.873  0.00  0.00    -0.495 OA
ATOM     37  C   UNL     1       8.093   6.332   4.894  0.00  0.00    +0.277 C 
ENDBRANCH  28  36
ENDBRANCH  23  24
ENDBRANCH   1  23
TORSDOF 9
