REMARK  Name = ZINC00729014
REMARK  10 active torsions:
REMARK  status: ('A' for Active; 'I' for Inactive)
REMARK    1  A    between atoms: C_1  and  C_2
REMARK    2  A    between atoms: C_5  and  N_8
REMARK    3  A    between atoms: C_9  and  C_11
REMARK    4  A    between atoms: C_11  and  S_12
REMARK    5  A    between atoms: S_12  and  C_13
REMARK    6  A    between atoms: C_14  and  C_36
REMARK    7  A    between atoms: C_15  and  C_31
REMARK    8  A    between atoms: C_17  and  C_21
REMARK    9  A    between atoms: C_18  and  C_20
REMARK   10  A    between atoms: N_23  and  C_24
REMARK                            x       y       z     vdW  Elec       q    Type
REMARK                         _______ _______ _______ _____ _____    ______ ____
ROOT
ATOM      1  C   UNL     1      -1.427   0.807   3.187  0.00  0.00    +0.080 C 
ATOM      2  C   UNL     1      -1.831   2.104   3.251  0.00  0.00    +0.072 C 
ATOM      3  C   UNL     1      -1.637   3.039   2.091  0.00  0.00    +0.134 C 
ATOM      4  C   UNL     1      -0.641   2.480   1.116  0.00  0.00    +0.047 C 
ATOM      5  C   UNL     1      -0.291   1.184   1.130  0.00  0.00    +0.015 C 
ATOM      6  N   UNL     1      -0.818   0.321   2.051  0.00  0.00    -0.312 N 
ATOM      7  C   UNL     1       0.703   0.674   0.118  0.00  0.00    +0.061 C 
ATOM      8  H   UNL     1      -0.754  -0.764   1.883  0.00  0.00    +0.152 HD
ENDROOT
BRANCH   3   9
ATOM      9  C   UNL     1      -1.136   4.365   2.602  0.00  0.00    +0.118 A 
ATOM     10  C   UNL     1      -1.792   5.537   2.526  0.00  0.00    +0.045 A 
ATOM     11  C   UNL     1      -0.961   6.511   3.126  0.00  0.00    +0.041 A 
ATOM     12  C   UNL     1       0.157   5.878   3.525  0.00  0.00    +0.195 A 
ATOM     13  O   UNL     1       0.045   4.578   3.205  0.00  0.00    -0.467 OA
ENDBRANCH   3   9
BRANCH   4  14
ATOM     14  C   UNL     1      -0.060   3.341   0.155  0.00  0.00    +0.247 C 
ATOM     15  O   UNL     1      -0.682   3.643  -0.848  0.00  0.00    -0.270 OA
ATOM     16  N   UNL     1       1.182   3.827   0.348  0.00  0.00    -0.279 N 
ATOM     17  H   UNL     1       1.777   3.488   1.209  0.00  0.00    +0.155 HD
BRANCH  16  18
ATOM     18  C   UNL     1       1.715   4.763  -0.546  0.00  0.00    +0.069 A 
ATOM     19  C   UNL     1       0.873   5.489  -1.377  0.00  0.00    +0.026 A 
ATOM     20  C   UNL     1       1.401   6.412  -2.259  0.00  0.00    +0.002 A 
ATOM     21  C   UNL     1       2.768   6.614  -2.315  0.00  0.00    +0.003 A 
ATOM     22  C   UNL     1       3.611   5.893  -1.489  0.00  0.00    +0.040 A 
ATOM     23  C   UNL     1       3.089   4.971  -0.600  0.00  0.00    +0.144 A 
ATOM     24  F   UNL     1       3.912   4.271   0.210  0.00  0.00    -0.204 F 
ENDBRANCH  16  18
ENDBRANCH   4  14
BRANCH   2  25
ATOM     25  C   UNL     1      -2.454   2.587   4.447  0.00  0.00    +0.098 C 
ATOM     26  N   UNL     1      -2.947   2.971   5.395  0.00  0.00    -0.191 NA
ENDBRANCH   2  25
BRANCH   1  27
ATOM     27  S   UNL     1      -1.683  -0.258   4.566  0.00  0.00    -0.100 S 
BRANCH  27  28
ATOM     28  C   UNL     1      -0.968  -1.790   3.918  0.00  0.00    +0.171 C 
BRANCH  28  30
ATOM     29  N   UNL     1      -0.609  -4.111   4.694  0.00  0.00    -0.285 N 
ATOM     30  C   UNL     1      -1.079  -2.875   4.957  0.00  0.00    +0.227 C 
ATOM     31  O   UNL     1      -1.590  -2.636   6.031  0.00  0.00    -0.275 OA
ATOM     32  H   UNL     1      -0.217  -4.348   3.694  0.00  0.00    +0.155 HD
BRANCH  29  37
ATOM     33  C   UNL     1      -0.660  -8.087   8.740  0.00  0.00    +0.044 C 
ATOM     34  C   UNL     1      -0.646  -7.030   7.666  0.00  0.00    -0.050 A 
ATOM     35  C   UNL     1      -1.672  -6.106   7.594  0.00  0.00    +0.005 A 
ATOM     36  C   UNL     1      -1.662  -5.136   6.611  0.00  0.00    +0.023 A 
ATOM     37  C   UNL     1      -0.622  -5.091   5.692  0.00  0.00    +0.033 A 
ATOM     38  C   UNL     1       0.404  -6.025   5.763  0.00  0.00    +0.023 A 
ATOM     39  C   UNL     1       0.392  -6.988   6.753  0.00  0.00    +0.005 A 
ENDBRANCH  29  37
ENDBRANCH  28  30
ENDBRANCH  27  28
ENDBRANCH   1  27
TORSDOF 8
