REMARK  Name = ZINC39929185
REMARK  10 active torsions:
REMARK  status: ('A' for Active; 'I' for Inactive)
REMARK    1  A    between atoms: C_1  and  C_2
REMARK    2  A    between atoms: C_2  and  N_3
REMARK    3  A    between atoms: C_11  and  O_37
REMARK    4  A    between atoms: C_16  and  O_35
REMARK    5  A    between atoms: C_25  and  O_34
REMARK    6  A    between atoms: C_26  and  N_30
REMARK    7  A    between atoms: C_28  and  O_29
REMARK    8  A    between atoms: C_31  and  C_33
REMARK    9  A    between atoms: O_35  and  C_36
REMARK   10  A    between atoms: O_37  and  C_38
REMARK                            x       y       z     vdW  Elec       q    Type
REMARK                         _______ _______ _______ _____ _____    ______ ____
ROOT
ATOM      1  N   UNL     1      -0.841  -0.963   1.185  0.00  0.00    +0.382 N 
ATOM      2  C   UNL     1      -1.270  -0.448  -0.124  0.00  0.00    -0.077 C 
ATOM      3  C   UNL     1      -2.771  -0.684  -0.312  0.00  0.00    -0.002 C 
ATOM      4  C   UNL     1      -3.110  -2.141  -0.133  0.00  0.00    +0.050 C 
ATOM      5  C   UNL     1      -2.485  -3.050  -1.150  0.00  0.00    +0.012 A 
ATOM      6  C   UNL     1      -1.161  -3.444  -1.140  0.00  0.00    -0.041 A 
ATOM      7  C   UNL     1      -0.786  -4.271  -2.181  0.00  0.00    +0.007 A 
ATOM      8  C   UNL     1      -1.730  -4.708  -3.098  0.00  0.00    +0.050 A 
ATOM      9  C   UNL     1      -3.087  -4.400  -3.011  0.00  0.00    +0.162 A 
ATOM     10  C   UNL     1      -3.481  -3.571  -1.951  0.00  0.00    +0.167 A 
ATOM     11  O   UNL     1      -4.697  -3.257  -1.462  0.00  0.00    -0.480 OA
ATOM     12  C   UNL     1      -4.602  -2.448  -0.274  0.00  0.00    +0.225 C 
ATOM     13  C   UNL     1      -5.046  -3.256   0.963  0.00  0.00    +0.153 C 
ATOM     14  C   UNL     1      -4.123  -4.474   1.033  0.00  0.00    +0.013 C 
ATOM     15  C   UNL     1      -2.824  -4.195   1.149  0.00  0.00    -0.017 C 
ATOM     16  C   UNL     1      -2.520  -2.700   1.180  0.00  0.00    +0.019 C 
ATOM     17  C   UNL     1      -1.038  -2.433   1.190  0.00  0.00    -0.049 C 
ATOM     18  C   UNL     1      -0.283  -2.981  -0.025  0.00  0.00    +0.021 C 
ATOM     19  C   UNL     1      -3.325  -2.116   2.299  0.00  0.00    +0.013 A 
ATOM     20  C   UNL     1      -4.691  -2.414   2.179  0.00  0.00    +0.042 A 
ATOM     21  C   UNL     1      -5.586  -1.961   3.107  0.00  0.00    +0.145 A 
ATOM     22  C   UNL     1      -5.119  -1.197   4.182  0.00  0.00    +0.079 A 
ATOM     23  C   UNL     1      -3.768  -0.905   4.300  0.00  0.00    +0.072 A 
ATOM     24  C   UNL     1      -2.863  -1.370   3.348  0.00  0.00    +0.123 A 
ATOM     25  H   UNL     1      -1.395  -0.542   1.916  0.00  0.00    -0.081 HD
ENDROOT
BRANCH  22  26
ATOM     26  N   UNL     1      -6.021  -0.723   5.144  0.00  0.00    -0.283 N 
ATOM     27  C   UNL     1      -5.612  -0.531   6.414  0.00  0.00    +0.214 C 
ATOM     28  O   UNL     1      -4.446  -0.692   6.707  0.00  0.00    -0.276 OA
ATOM     29  C   UNL     1      -6.604  -0.117   7.470  0.00  0.00    +0.109 C 
ATOM     30  H   UNL     1      -6.939  -0.532   4.896  0.00  0.00    +0.155 HD
ENDBRANCH  22  26
BRANCH   1  32
ATOM     31  C   UNL     1       0.757   0.863   1.518  0.00  0.00    -0.017 C 
ATOM     32  C   UNL     1       0.579  -0.652   1.399  0.00  0.00    -0.082 C 
ENDBRANCH   1  32
BRANCH  24  33
ATOM     33  O   UNL     1      -1.538  -1.086   3.460  0.00  0.00    -0.506 OA
ATOM     34  H   UNL     1      -1.052  -1.698   4.029  0.00  0.00    +0.292 HD
ENDBRANCH  24  33
BRANCH  21  35
ATOM     35  O   UNL     1      -6.910  -2.249   2.988  0.00  0.00    -0.505 OA
ATOM     36  H   UNL     1      -7.191  -3.025   3.491  0.00  0.00    +0.292 HD
ENDBRANCH  21  35
BRANCH  13  37
ATOM     37  O   UNL     1      -6.432  -3.601   0.922  0.00  0.00    -0.364 OA
ATOM     38  C   UNL     1      -6.787  -4.451  -0.171  0.00  0.00    +0.195 C 
ENDBRANCH  13  37
BRANCH   9  39
ATOM     39  O   UNL     1      -3.985  -4.881  -3.911  0.00  0.00    -0.491 OA
ATOM     40  C   UNL     1      -3.477  -5.718  -4.952  0.00  0.00    +0.277 C 
ENDBRANCH   9  39
TORSDOF 6
