REMARK  Name = ZINC63182436
REMARK  8 active torsions:
REMARK  status: ('A' for Active; 'I' for Inactive)
REMARK    1  A    between atoms: C_1  and  C_2
REMARK    2  A    between atoms: N_4  and  C_5
REMARK    3  A    between atoms: C_8  and  N_11
REMARK    4  A    between atoms: C_12  and  C_14
REMARK    5  A    between atoms: C_14  and  S_15
REMARK    6  A    between atoms: S_15  and  C_16
REMARK    7  A    between atoms: C_19  and  C_27
REMARK    8  A    between atoms: N_20  and  C_21
REMARK                            x       y       z     vdW  Elec       q    Type
REMARK                         _______ _______ _______ _____ _____    ______ ____
ROOT
ATOM      1  C   UNL     1      -3.002 -10.989  -0.249  0.00  0.00    +0.197 A 
ATOM      2  N   UNL     1      -1.813 -11.569  -0.181  0.00  0.00    -0.122 NA
ATOM      3  N   UNL     1      -1.938 -12.845  -0.260  0.00  0.00    -0.128 NA
ATOM      4  C   UNL     1      -3.218 -13.165  -0.383  0.00  0.00    +0.168 A 
ATOM      5  N   UNL     1      -3.933 -11.977  -0.373  0.00  0.00    -0.270 N 
ENDROOT
BRANCH   4   6
ATOM      6  C   UNL     1      -3.750 -14.459  -0.496  0.00  0.00    +0.025 C 
ATOM      7  C   UNL     1      -3.045 -15.663  -0.496  0.00  0.00    +0.006 A 
ATOM      8  C   UNL     1      -1.670 -15.962  -0.390  0.00  0.00    +0.010 A 
ATOM      9  C   UNL     1      -1.259 -17.256  -0.420  0.00  0.00    +0.001 A 
ATOM     10  C   UNL     1      -2.166 -18.309  -0.554  0.00  0.00    +0.002 A 
ATOM     11  C   UNL     1      -3.501 -18.095  -0.661  0.00  0.00    +0.026 A 
ATOM     12  C   UNL     1      -4.006 -16.769  -0.637  0.00  0.00    +0.043 A 
ATOM     13  N   UNL     1      -5.237 -16.303  -0.722  0.00  0.00    -0.380 N 
ATOM     14  C   UNL     1      -5.207 -14.840  -0.637  0.00  0.00    +0.152 C 
ATOM     15  H   UNL     1      -6.036 -16.844  -0.820  0.00  0.00    +0.160 HD
ENDBRANCH   4   6
BRANCH   5  16
ATOM     16  C   UNL     1      -5.322 -11.825  -0.473  0.00  0.00    +0.050 A 
ATOM     17  C   UNL     1      -6.148 -12.304   0.535  0.00  0.00    +0.026 A 
ATOM     18  C   UNL     1      -7.517 -12.152   0.434  0.00  0.00    +0.002 A 
ATOM     19  C   UNL     1      -8.065 -11.523  -0.669  0.00  0.00    +0.000 A 
ATOM     20  C   UNL     1      -7.244 -11.044  -1.674  0.00  0.00    +0.002 A 
ATOM     21  C   UNL     1      -5.874 -11.188  -1.576  0.00  0.00    +0.026 A 
ENDBRANCH   5  16
BRANCH   1  22
ATOM     22  S   UNL     1      -3.323  -9.257  -0.183  0.00  0.00    -0.076 S 
BRANCH  22  23
ATOM     23  C   UNL     1      -1.678  -8.512  -0.017  0.00  0.00    +0.173 C 
BRANCH  23  25
ATOM     24  N   UNL     1      -0.710  -6.244   0.177  0.00  0.00    -0.285 N 
ATOM     25  C   UNL     1      -1.810  -7.012   0.052  0.00  0.00    +0.227 C 
ATOM     26  O   UNL     1      -2.906  -6.497  -0.006  0.00  0.00    -0.275 OA
ATOM     27  H   UNL     1       0.160  -6.657   0.291  0.00  0.00    +0.155 HD
BRANCH  24  31
ATOM     28  C   UNL     1      -1.047  -2.089   0.076  0.00  0.00    +0.033 A 
ATOM     29  C   UNL     1       0.068  -2.709  -0.474  0.00  0.00    +0.025 A 
ATOM     30  C   UNL     1       0.179  -4.084  -0.440  0.00  0.00    +0.025 A 
ATOM     31  C   UNL     1      -0.823  -4.848   0.143  0.00  0.00    +0.034 A 
ATOM     32  C   UNL     1      -1.938  -4.228   0.693  0.00  0.00    +0.025 A 
ATOM     33  C   UNL     1      -2.047  -2.853   0.664  0.00  0.00    +0.025 A 
BRANCH  28  37
ATOM     34  C   UNL     1      -1.766   1.468   1.081  0.00  0.00    +0.109 C 
ATOM     35  C   UNL     1      -1.737  -0.038   1.069  0.00  0.00    +0.214 C 
ATOM     36  O   UNL     1      -2.232  -0.662   1.984  0.00  0.00    -0.276 OA
ATOM     37  N   UNL     1      -1.161  -0.693   0.042  0.00  0.00    -0.286 N 
ATOM     38  H   UNL     1      -0.824  -0.198  -0.722  0.00  0.00    +0.155 HD
ENDBRANCH  28  37
ENDBRANCH  24  31
ENDBRANCH  23  25
ENDBRANCH  22  23
ENDBRANCH   1  22
TORSDOF 7
