REMARK  Name = ZINC39675350
REMARK  11 active torsions:
REMARK  status: ('A' for Active; 'I' for Inactive)
REMARK    1  A    between atoms: C_1  and  C_2
REMARK    2  A    between atoms: C_2  and  C_4
REMARK    3  A    between atoms: C_2  and  N_14
REMARK    4  A    between atoms: C_4  and  C_5
REMARK    5  A    between atoms: C_5  and  C_6
REMARK    6  A    between atoms: C_9  and  O_12
REMARK    7  A    between atoms: O_12  and  C_13
REMARK    8  A    between atoms: C_15  and  C_17
REMARK    9  A    between atoms: C_28  and  C_30
REMARK   10  A    between atoms: C_30  and  O_31
REMARK   11  A    between atoms: O_31  and  C_32
REMARK                            x       y       z     vdW  Elec       q    Type
REMARK                         _______ _______ _______ _____ _____    ______ ____
ROOT
ATOM      1  C   UNL     1       0.780  -1.133   3.576  0.00  0.00    +0.100 C 
ATOM      2  C   UNL     1       1.189  -2.611   3.392  0.00  0.00    +0.121 C 
ATOM      3  N   UNL     1       1.007  -3.220   4.731  0.00  0.00    -0.297 N 
ATOM      4  C   UNL     1      -0.236  -2.602   5.251  0.00  0.00    +0.115 C 
ATOM      5  C   UNL     1      -0.156  -1.131   4.797  0.00  0.00    -0.004 C 
ATOM      6  C   UNL     1      -1.540  -0.625   4.401  0.00  0.00    -0.010 C 
ATOM      7  C   UNL     1      -2.435  -0.577   5.642  0.00  0.00    -0.082 C 
ATOM      8  N   UNL     1      -1.836   0.311   6.646  0.00  0.00    +0.379 N 
ATOM      9  C   UNL     1      -0.547  -0.233   7.089  0.00  0.00    -0.082 C 
ATOM     10  C   UNL     1       0.428  -0.266   5.909  0.00  0.00    -0.010 C 
ATOM     11  C   UNL     1       1.794  -4.129   5.338  0.00  0.00    +0.253 C 
ATOM     12  O   UNL     1       1.510  -4.535   6.445  0.00  0.00    -0.272 OA
ATOM     13  H   UNL     1      -1.694   1.224   6.242  0.00  0.00    -0.086 HD
ATOM     14  H   UNL     1      -2.457   0.389   7.437  0.00  0.00    -0.086 HD
ENDROOT
BRANCH   1  16
ATOM     15  N   UNL     1       0.108   0.671   2.023  0.00  0.00    -0.312 N 
ATOM     16  C   UNL     1       0.051  -0.633   2.355  0.00  0.00    +0.218 C 
ATOM     17  O   UNL     1      -0.587  -1.406   1.672  0.00  0.00    -0.275 OA
ATOM     18  H   UNL     1       0.619   1.289   2.570  0.00  0.00    +0.149 HD
BRANCH  15  20
ATOM     19  C   UNL     1      -2.054   1.464   1.200  0.00  0.00    +0.028 C 
ATOM     20  C   UNL     1      -0.600   1.157   0.836  0.00  0.00    +0.070 C 
BRANCH  20  21
ATOM     21  C   UNL     1       0.077   2.429   0.323  0.00  0.00    +0.026 C 
BRANCH  21  22
ATOM     22  C   UNL     1       1.491   2.096  -0.158  0.00  0.00    +0.037 C 
BRANCH  22  23
ATOM     23  C   UNL     1       2.158   3.349  -0.664  0.00  0.00    -0.047 A 
ATOM     24  C   UNL     1       2.034   3.708  -1.993  0.00  0.00    +0.007 A 
ATOM     25  C   UNL     1       2.644   4.857  -2.459  0.00  0.00    +0.046 A 
ATOM     26  C   UNL     1       3.382   5.649  -1.592  0.00  0.00    +0.120 A 
ATOM     27  C   UNL     1       3.505   5.287  -0.259  0.00  0.00    +0.046 A 
ATOM     28  C   UNL     1       2.888   4.140   0.203  0.00  0.00    +0.007 A 
BRANCH  26  29
ATOM     29  O   UNL     1       3.985   6.779  -2.049  0.00  0.00    -0.495 OA
ATOM     30  C   UNL     1       4.728   7.546  -1.100  0.00  0.00    +0.277 C 
ENDBRANCH  26  29
ENDBRANCH  22  23
ENDBRANCH  21  22
ENDBRANCH  20  21
ENDBRANCH  15  20
ENDBRANCH   1  16
BRANCH  11  31
ATOM     31  C   UNL     1       3.029  -4.642   4.643  0.00  0.00    +0.324 C 
BRANCH  31  32
ATOM     32  O   UNL     1       3.691  -5.589   5.484  0.00  0.00    -0.483 OA
BRANCH  32  33
ATOM     33  C   UNL     1       4.831  -6.151   5.002  0.00  0.00    +0.123 A 
ATOM     34  C   UNL     1       5.305  -5.794   3.748  0.00  0.00    +0.046 A 
ATOM     35  C   UNL     1       6.464  -6.366   3.260  0.00  0.00    +0.005 A 
ATOM     36  C   UNL     1       7.152  -7.294   4.020  0.00  0.00    +0.020 A 
ATOM     37  C   UNL     1       6.681  -7.653   5.270  0.00  0.00    +0.044 A 
ATOM     38  C   UNL     1       5.524  -7.079   5.765  0.00  0.00    +0.065 A 
ATOM     39 CL   UNL     1       7.546  -8.819   6.222  0.00  0.00    -0.083 Cl
ENDBRANCH  32  33
ENDBRANCH  31  32
ENDBRANCH  11  31
TORSDOF 9
