REMARK  Name = ZINC22262014
REMARK  5 active torsions:
REMARK  status: ('A' for Active; 'I' for Inactive)
REMARK    1  A    between atoms: C_1  and  C_2
REMARK    2  A    between atoms: C_5  and  C_18
REMARK    3  A    between atoms: N_8  and  C_10
REMARK    4  A    between atoms: C_10  and  C_11
REMARK    5  A    between atoms: N_20  and  C_21
REMARK                            x       y       z     vdW  Elec       q    Type
REMARK                         _______ _______ _______ _____ _____    ______ ____
ROOT
ATOM      1  C   UNL     1      -0.018   1.503   0.010  0.00  0.00    +0.068 C 
ATOM      2  C   UNL     1       0.002  -0.004   0.002  0.00  0.00    +0.068 A 
ATOM      3  C   UNL     1       0.008  -0.829  -1.170  0.00  0.00    +0.031 A 
ATOM      4  C   UNL     1      -0.001  -0.690  -2.567  0.00  0.00    +0.032 A 
ATOM      5  C   UNL     1       0.010  -1.802  -3.355  0.00  0.00    +0.077 A 
ATOM      6  S   UNL     1       0.035  -3.128  -2.160  0.00  0.00    -0.064 S 
ATOM      7  C   UNL     1       0.029  -2.145  -0.684  0.00  0.00    +0.107 A 
ATOM      8  N   UNL     1       0.035  -2.107   0.662  0.00  0.00    -0.252 N 
ATOM      9  N   UNL     1       0.023  -0.763   1.056  0.00  0.00    -0.175 NA
ENDROOT
BRANCH   5  10
ATOM     10  C   UNL     1       0.004  -1.888  -4.818  0.00  0.00    +0.256 C 
ATOM     11  O   UNL     1      -0.013  -0.872  -5.487  0.00  0.00    -0.269 OA
ATOM     12  N   UNL     1       0.018  -3.093  -5.423  0.00  0.00    -0.263 N 
ATOM     13  H   UNL     1       0.032  -3.903  -4.889  0.00  0.00    +0.157 HD
BRANCH  12  14
ATOM     14  C   UNL     1       0.012  -3.174  -6.815  0.00  0.00    +0.172 A 
ATOM     15  C   UNL     1       0.026  -4.424  -7.435  0.00  0.00    +0.219 A 
ATOM     16  C   UNL     1       0.020  -4.487  -8.821  0.00  0.00    +0.056 A 
ATOM     17  C   UNL     1      -0.000  -3.299  -9.537  0.00  0.00    +0.024 A 
ATOM     18  C   UNL     1      -0.013  -2.098  -8.856  0.00  0.00    +0.113 A 
ATOM     19  N   UNL     1      -0.013  -2.066  -7.537  0.00  0.00    -0.236 NA
ATOM     20  O   UNL     1       0.046  -5.562  -6.692  0.00  0.00    -0.284 OA
ENDBRANCH  12  14
ENDBRANCH   5  10
BRANCH   8  21
ATOM     21  C   UNL     1       0.055  -3.267   1.556  0.00  0.00    +0.180 C 
BRANCH  21  22
ATOM     22  C   UNL     1       1.482  -3.645   1.856  0.00  0.00    -0.026 A 
ATOM     23  C   UNL     1       2.144  -4.545   1.042  0.00  0.00    +0.008 A 
ATOM     24  C   UNL     1       3.454  -4.892   1.316  0.00  0.00    +0.038 A 
ATOM     25  C   UNL     1       4.103  -4.338   2.406  0.00  0.00    +0.123 A 
ATOM     26  C   UNL     1       3.439  -3.437   3.221  0.00  0.00    +0.038 A 
ATOM     27  C   UNL     1       2.131  -3.087   2.942  0.00  0.00    +0.008 A 
ATOM     28  F   UNL     1       5.383  -4.677   2.675  0.00  0.00    -0.205 F 
ENDBRANCH  21  22
ENDBRANCH   8  21
TORSDOF 4
