REMARK  Name = ZINC13064939
REMARK  14 active torsions:
REMARK  status: ('A' for Active; 'I' for Inactive)
REMARK    1  A    between atoms: C_1  and  C_2
REMARK    2  A    between atoms: C_2  and  C_3
REMARK    3  A    between atoms: C_3  and  C_5
REMARK    4  A    between atoms: C_3  and  N_67
REMARK    5  A    between atoms: N_9  and  C_10
REMARK    6  A    between atoms: C_10  and  C_11
REMARK    7  A    between atoms: C_17  and  C_18
REMARK    8  A    between atoms: C_17  and  N_67
REMARK    9  A    between atoms: C_18  and  C_19
REMARK   10  A    between atoms: C_19  and  O_20
REMARK   11  A    between atoms: C_21  and  C_22
REMARK   12  A    between atoms: C_21  and  N_67
REMARK   13  A    between atoms: C_25  and  C_35
REMARK   14  A    between atoms: C_27  and  C_34
REMARK                            x       y       z     vdW  Elec       q    Type
REMARK                         _______ _______ _______ _____ _____    ______ ____
ROOT
ATOM      1  N   UNL     1       2.431   4.989  -0.221  0.00  0.00    +0.389 N 
ATOM      2  H   UNL     1       2.057   5.061   0.732  0.00  0.00    -0.080 HD
ENDROOT
BRANCH   1   3
ATOM      3  C   UNL     1       1.579   5.781  -1.133  0.00  0.00    +0.003 C 
BRANCH   3   4
ATOM      4  C   UNL     1       2.212   5.877  -2.498  0.00  0.00    +0.138 A 
ATOM      5  N   UNL     1       3.443   6.239  -2.765  0.00  0.00    -0.115 NA
ATOM      6  N   UNL     1       3.602   6.194  -4.043  0.00  0.00    -0.023 NA
ATOM      7  N   UNL     1       2.504   5.813  -4.597  0.00  0.00    -0.044 NA
ATOM      8  N   UNL     1       1.624   5.603  -3.677  0.00  0.00    -0.228 N 
BRANCH   8   9
ATOM      9  C   UNL     1       0.245   5.153  -3.879  0.00  0.00    +0.178 C 
BRANCH   9  10
ATOM     10  C   UNL     1      -0.668   6.368  -4.053  0.00  0.00    +0.140 C 
ATOM     11  C   UNL     1      -2.139   5.909  -4.151  0.00  0.00    +0.035 C 
ATOM     12  C   UNL     1      -2.709   6.860  -5.238  0.00  0.00    +0.031 C 
ATOM     13  C   UNL     1      -1.474   7.028  -6.159  0.00  0.00    +0.160 C 
ATOM     14  O   UNL     1      -0.344   7.048  -5.272  0.00  0.00    -0.375 OA
ENDBRANCH   9  10
ENDBRANCH   8   9
ENDBRANCH   3   4
BRANCH   3  16
ATOM     15  C   UNL     1       0.626   7.099   0.763  0.00  0.00    +0.002 C 
ATOM     16  C   UNL     1       1.404   7.185  -0.552  0.00  0.00    -0.011 C 
ENDBRANCH   3  16
ENDBRANCH   1   3
BRANCH   1  17
ATOM     17  C   UNL     1       2.429   3.570  -0.632  0.00  0.00    -0.075 C 
BRANCH  17  18
ATOM     18  C   UNL     1       1.084   2.950  -0.248  0.00  0.00    +0.009 C 
BRANCH  18  19
ATOM     19  C   UNL     1       1.066   1.476  -0.659  0.00  0.00    +0.154 C 
BRANCH  19  20
ATOM     20  O   UNL     1      -0.190   0.897  -0.301  0.00  0.00    -0.395 OA
ATOM     21  H   UNL     1      -0.273  -0.039  -0.532  0.00  0.00    +0.209 HD
ENDBRANCH  19  20
ENDBRANCH  18  19
ENDBRANCH  17  18
ENDBRANCH   1  17
BRANCH   1  22
ATOM     22  C   UNL     1       3.812   5.517  -0.236  0.00  0.00    -0.037 C 
BRANCH  22  23
ATOM     23  C   UNL     1       4.526   5.035   1.001  0.00  0.00    +0.001 A 
ATOM     24  C   UNL     1       5.296   3.921   0.945  0.00  0.00    +0.017 A 
ATOM     25  C   UNL     1       5.980   3.482   2.163  0.00  0.00    +0.002 A 
ATOM     26  C   UNL     1       6.792   2.343   2.166  0.00  0.00    -0.041 A 
ATOM     27  C   UNL     1       7.413   1.957   3.320  0.00  0.00    +0.007 A 
ATOM     28  C   UNL     1       7.244   2.684   4.490  0.00  0.00    -0.048 A 
ATOM     29  C   UNL     1       6.449   3.809   4.511  0.00  0.00    +0.029 A 
ATOM     30  C   UNL     1       5.807   4.222   3.347  0.00  0.00    +0.050 A 
ATOM     31  N   UNL     1       5.005   5.343   3.339  0.00  0.00    -0.322 N 
ATOM     32  H   UNL     1       4.886   5.852   4.156  0.00  0.00    +0.169 HD
ATOM     33  C   UNL     1       4.385   5.742   2.214  0.00  0.00    +0.251 A 
ATOM     34  O   UNL     1       3.684   6.739   2.244  0.00  0.00    -0.268 OA
ATOM     35  C   UNL     1       7.939   2.240   5.751  0.00  0.00    +0.044 C 
ATOM     36  C   UNL     1       6.982   1.545   0.901  0.00  0.00    +0.044 C 
ENDBRANCH  22  23
ENDBRANCH   1  22
TORSDOF 11
