REMARK  Name = ZINC37424611
REMARK  15 active torsions:
REMARK  status: ('A' for Active; 'I' for Inactive)
REMARK    1  A    between atoms: C_1  and  C_2
REMARK    2  A    between atoms: C_2  and  C_3
REMARK    3  A    between atoms: C_3  and  N_4
REMARK    4  A    between atoms: C_5  and  C_7
REMARK    5  A    between atoms: C_7  and  N_8
REMARK    6  A    between atoms: C_11  and  C_22
REMARK    7  A    between atoms: N_13  and  C_14
REMARK    8  A    between atoms: C_19  and  C_20
REMARK    9  A    between atoms: C_20  and  C_21
REMARK   10  A    between atoms: C_22  and  C_23
REMARK   11  A    between atoms: C_22  and  C_24
REMARK   12  A    between atoms: C_22  and  C_25
REMARK   13  A    between atoms: C_26  and  C_32
REMARK   14  A    between atoms: C_35  and  O_38
REMARK   15  A    between atoms: O_38  and  C_39
REMARK                            x       y       z     vdW  Elec       q    Type
REMARK                         _______ _______ _______ _____ _____    ______ ____
ROOT
ATOM      1  N   UNL     1      -5.182 -10.360  -0.819  0.00  0.00    -0.246 N 
ATOM      2  C   UNL     1      -5.147  -9.465   0.261  0.00  0.00    +0.136 A 
ATOM      3  C   UNL     1      -6.014  -9.504   1.299  0.00  0.00    +0.034 A 
ATOM      4  C   UNL     1      -5.683  -8.466   2.172  0.00  0.00    +0.075 A 
ATOM      5  N   UNL     1      -4.651  -7.827   1.677  0.00  0.00    -0.169 NA
ATOM      6  N   UNL     1      -4.288  -8.439   0.467  0.00  0.00    -0.217 N 
ATOM      7  C   UNL     1      -7.125 -10.510   1.455  0.00  0.00    +0.112 C 
ATOM      8  S   UNL     1      -8.454 -10.100   0.267  0.00  0.00    -0.138 S 
ATOM      9  C   UNL     1      -7.501  -9.643  -1.220  0.00  0.00    +0.166 C 
ATOM     10  C   UNL     1      -6.352 -10.581  -1.427  0.00  0.00    +0.231 C 
ATOM     11  O   UNL     1      -6.486 -11.547  -2.148  0.00  0.00    -0.274 OA
ENDROOT
BRANCH   6  12
ATOM     12  C   UNL     1      -3.232  -8.059  -0.372  0.00  0.00    +0.071 A 
ATOM     13  C   UNL     1      -3.458  -7.857  -1.727  0.00  0.00    +0.028 A 
ATOM     14  C   UNL     1      -2.415  -7.482  -2.551  0.00  0.00    +0.002 A 
ATOM     15  C   UNL     1      -1.146  -7.309  -2.028  0.00  0.00    +0.000 A 
ATOM     16  C   UNL     1      -0.918  -7.510  -0.679  0.00  0.00    +0.006 A 
ATOM     17  C   UNL     1      -1.958  -7.879   0.151  0.00  0.00    -0.022 A 
BRANCH  17  18
ATOM     18  C   UNL     1      -1.710  -8.092   1.622  0.00  0.00    +0.034 C 
ATOM     19  C   UNL     1      -1.620  -9.591   1.913  0.00  0.00    +0.009 C 
ENDBRANCH  17  18
ENDBRANCH   6  12
BRANCH   7  20
ATOM     20  C   UNL     1      -7.664 -10.454   2.862  0.00  0.00    -0.030 A 
ATOM     21  C   UNL     1      -8.864  -9.815   3.116  0.00  0.00    +0.008 A 
ATOM     22  C   UNL     1      -9.360  -9.762   4.404  0.00  0.00    +0.046 A 
ATOM     23  C   UNL     1      -8.653 -10.351   5.443  0.00  0.00    +0.120 A 
ATOM     24  C   UNL     1      -7.450 -10.991   5.185  0.00  0.00    +0.046 A 
ATOM     25  C   UNL     1      -6.961 -11.046   3.894  0.00  0.00    +0.008 A 
BRANCH  23  26
ATOM     26  O   UNL     1      -9.139 -10.300   6.712  0.00  0.00    -0.495 OA
ATOM     27  C   UNL     1      -8.358 -10.927   7.731  0.00  0.00    +0.277 C 
ENDBRANCH  23  26
ENDBRANCH   7  20
BRANCH   4  28
ATOM     28  C   UNL     1      -6.392  -8.137   3.461  0.00  0.00    +0.007 C 
ATOM     29  C   UNL     1      -5.908  -9.081   4.564  0.00  0.00    +0.017 C 
ATOM     30  C   UNL     1      -6.085  -6.691   3.856  0.00  0.00    +0.017 C 
ATOM     31  C   UNL     1      -7.900  -8.305   3.271  0.00  0.00    +0.017 C 
ENDBRANCH   4  28
BRANCH   1  32
ATOM     32  C   UNL     1      -3.962 -11.033  -1.274  0.00  0.00    +0.210 C 
BRANCH  32  34
ATOM     33  N   UNL     1      -2.627 -13.014  -0.635  0.00  0.00    -0.314 N 
ATOM     34  C   UNL     1      -3.747 -12.285  -0.463  0.00  0.00    +0.231 C 
ATOM     35  O   UNL     1      -4.582 -12.636   0.343  0.00  0.00    -0.274 OA
ATOM     36  H   UNL     1      -1.926 -12.695  -1.224  0.00  0.00    +0.149 HD
BRANCH  33  37
ATOM     37  C   UNL     1      -2.468 -14.289   0.070  0.00  0.00    +0.104 C 
BRANCH  37  39
ATOM     38  C   UNL     1      -1.011 -16.300   0.344  0.00  0.00    +0.005 C 
ATOM     39  C   UNL     1      -1.177 -14.969  -0.391  0.00  0.00    +0.015 C 
ENDBRANCH  37  39
ENDBRANCH  33  37
ENDBRANCH  32  34
ENDBRANCH   1  32
TORSDOF 9
