REMARK  Name = ZINC46317228
REMARK  9 active torsions:
REMARK  status: ('A' for Active; 'I' for Inactive)
REMARK    1  A    between atoms: C_1  and  C_2
REMARK    2  A    between atoms: C_5  and  N_8
REMARK    3  A    between atoms: C_9  and  C_30
REMARK    4  A    between atoms: C_10  and  C_13
REMARK    5  A    between atoms: N_15  and  N_16
REMARK    6  A    between atoms: C_17  and  C_19
REMARK    7  A    between atoms: C_19  and  C_20
REMARK    8  A    between atoms: C_30  and  C_31
REMARK    9  A    between atoms: C_30  and  C_32
REMARK                            x       y       z     vdW  Elec       q    Type
REMARK                         _______ _______ _______ _____ _____    ______ ____
ROOT
ATOM      1  C   UNL     1       1.858  -7.368   0.987  0.00  0.00    +0.263 C 
ATOM      2  O   UNL     1       2.574  -7.104   1.934  0.00  0.00    -0.269 OA
ATOM      3  N   UNL     1       1.904  -8.593   0.429  0.00  0.00    -0.230 N 
ATOM      4  H   UNL     1       1.332  -8.804  -0.326  0.00  0.00    +0.173 HD
ENDROOT
BRANCH   1   7
ATOM      5  N   UNL     1      -0.102  -4.443   0.109  0.00  0.00    -0.236 N 
ATOM      6  C   UNL     1       0.861  -5.026   0.846  0.00  0.00    +0.060 A 
ATOM      7  C   UNL     1       0.939  -6.347   0.451  0.00  0.00    +0.079 A 
ATOM      8  C   UNL     1      -0.026  -6.538  -0.563  0.00  0.00    +0.148 A 
ATOM      9  N   UNL     1      -0.642  -5.403  -0.754  0.00  0.00    -0.174 NA
BRANCH   5  14
ATOM     10  C   UNL     1      -1.722   0.984   0.463  0.00  0.00    +0.044 C 
ATOM     11  C   UNL     1      -1.292  -0.457   0.369  0.00  0.00    -0.050 A 
ATOM     12  C   UNL     1      -1.125  -1.048  -0.870  0.00  0.00    +0.005 A 
ATOM     13  C   UNL     1      -0.731  -2.368  -0.959  0.00  0.00    +0.028 A 
ATOM     14  C   UNL     1      -0.502  -3.103   0.197  0.00  0.00    +0.066 A 
ATOM     15  C   UNL     1      -0.670  -2.507   1.439  0.00  0.00    +0.028 A 
ATOM     16  C   UNL     1      -1.059  -1.184   1.522  0.00  0.00    +0.005 A 
ENDBRANCH   5  14
BRANCH   6  17
ATOM     17  C   UNL     1       1.701  -4.360   1.905  0.00  0.00    +0.032 C 
ATOM     18  C   UNL     1       1.448  -5.035   3.255  0.00  0.00    +0.014 C 
ATOM     19  C   UNL     1       3.181  -4.490   1.539  0.00  0.00    +0.014 C 
ENDBRANCH   6  17
ENDBRANCH   1   7
BRANCH   3  20
ATOM     20  N   UNL     1       2.777  -9.563   0.938  0.00  0.00    -0.234 N 
ATOM     21  C   UNL     1       2.823 -10.789   0.380  0.00  0.00    +0.233 C 
ATOM     22  O   UNL     1       2.108 -11.052  -0.564  0.00  0.00    -0.274 OA
ATOM     23  H   UNL     1       3.348  -9.353   1.693  0.00  0.00    +0.173 HD
BRANCH  21  24
ATOM     24  C   UNL     1       3.762 -11.832   0.928  0.00  0.00    +0.134 C 
BRANCH  24  25
ATOM     25  C   UNL     1       3.619 -13.104   0.132  0.00  0.00    -0.014 A 
ATOM     26  C   UNL     1       2.838 -14.153   0.436  0.00  0.00    +0.087 A 
ATOM     27  N   UNL     1       2.969 -15.124  -0.519  0.00  0.00    -0.360 N 
ATOM     28  H   UNL     1       2.503 -15.975  -0.516  0.00  0.00    +0.165 HD
ATOM     29  C   UNL     1       3.861 -14.714  -1.484  0.00  0.00    +0.047 A 
ATOM     30  C   UNL     1       4.303 -13.428  -1.122  0.00  0.00    +0.003 A 
ATOM     31  C   UNL     1       5.220 -12.754  -1.930  0.00  0.00    +0.010 A 
ATOM     32  C   UNL     1       5.682 -13.345  -3.072  0.00  0.00    +0.001 A 
ATOM     33  C   UNL     1       5.247 -14.612  -3.436  0.00  0.00    +0.002 A 
ATOM     34  C   UNL     1       4.349 -15.299  -2.648  0.00  0.00    +0.026 A 
ENDBRANCH  24  25
ENDBRANCH  21  24
ENDBRANCH   3  20
TORSDOF 6
