REMARK  Name = ZINC01826967
REMARK  3 active torsions:
REMARK  status: ('A' for Active; 'I' for Inactive)
REMARK    1  A    between atoms: C_1  and  C_2
REMARK    2  A    between atoms: C_5  and  C_8
REMARK    3  A    between atoms: C_10  and  C_18
REMARK                            x       y       z     vdW  Elec       q    Type
REMARK                         _______ _______ _______ _____ _____    ______ ____
ROOT
ATOM      1  C   UNL     1       0.061  -4.256  -0.021  0.00  0.00    +0.073 C 
ATOM      2  C   UNL     1       0.070  -4.920   1.151  0.00  0.00    +0.030 C 
ATOM      3  C   UNL     1       0.091  -6.436   1.096  0.00  0.00    +0.159 C 
ATOM      4  N   UNL     1       0.098  -7.041  -0.242  0.00  0.00    -0.162 N 
ATOM      5  C   UNL     1       0.087  -6.218  -1.333  0.00  0.00    +0.227 C 
ATOM      6  N   UNL     1       0.064  -4.912  -1.210  0.00  0.00    -0.216 NA
ATOM      7  N   UNL     1       0.098  -7.048  -2.420  0.00  0.00    -0.187 N 
ATOM      8  N   UNL     1       0.117  -8.364  -1.939  0.00  0.00    -0.058 NA
ATOM      9  N   UNL     1       0.117  -8.358  -0.702  0.00  0.00    -0.055 NA
ATOM     10  H   UNL     1       0.094  -6.776  -3.351  0.00  0.00    +0.179 HD
ENDROOT
BRANCH   1  15
ATOM     11  C   UNL     1      -0.018   1.503   0.010  0.00  0.00    +0.044 C 
ATOM     12  C   UNL     1       0.002  -0.004   0.002  0.00  0.00    -0.050 A 
ATOM     13  C   UNL     1       0.006  -0.686  -1.201  0.00  0.00    +0.004 A 
ATOM     14  C   UNL     1       0.025  -2.067  -1.215  0.00  0.00    +0.010 A 
ATOM     15  C   UNL     1       0.041  -2.772  -0.013  0.00  0.00    +0.000 A 
ATOM     16  C   UNL     1       0.037  -2.080   1.196  0.00  0.00    +0.010 A 
ATOM     17  C   UNL     1       0.023  -0.700   1.198  0.00  0.00    +0.004 A 
ENDBRANCH   1  15
BRANCH   3  18
ATOM     18  C   UNL     1       1.316  -6.913   1.832  0.00  0.00    -0.003 A 
ATOM     19  C   UNL     1       2.480  -7.181   1.135  0.00  0.00    +0.007 A 
ATOM     20  C   UNL     1       3.604  -7.619   1.809  0.00  0.00    +0.000 A 
ATOM     21  C   UNL     1       3.566  -7.790   3.181  0.00  0.00    +0.001 A 
ATOM     22  C   UNL     1       2.403  -7.522   3.878  0.00  0.00    +0.020 A 
ATOM     23  C   UNL     1       1.279  -7.078   3.205  0.00  0.00    +0.046 A 
ATOM     24 CL   UNL     1      -0.180  -6.736   4.081  0.00  0.00    -0.083 Cl
ENDBRANCH   3  18
TORSDOF 2
