REMARK  Name = ZINC63040942
REMARK  7 active torsions:
REMARK  status: ('A' for Active; 'I' for Inactive)
REMARK    1  A    between atoms: C_1  and  C_2
REMARK    2  A    between atoms: C_2  and  C_4
REMARK    3  A    between atoms: C_4  and  C_6
REMARK    4  A    between atoms: C_4  and  C_19
REMARK    5  A    between atoms: C_11  and  N_12
REMARK    6  A    between atoms: C_19  and  C_20
REMARK    7  A    between atoms: C_19  and  C_21
REMARK                            x       y       z     vdW  Elec       q    Type
REMARK                         _______ _______ _______ _____ _____    ______ ____
ROOT
ATOM      1  C   UNL     1       2.206  -0.145   1.198  0.00  0.00    -0.009 A 
ATOM      2  C   UNL     1       2.965  -0.473   0.090  0.00  0.00    +0.055 A 
ATOM      3  C   UNL     1       4.277  -0.035  -0.009  0.00  0.00    +0.162 A 
ATOM      4  C   UNL     1       4.826   0.737   1.009  0.00  0.00    +0.164 A 
ATOM      5  C   UNL     1       4.060   1.060   2.119  0.00  0.00    +0.082 A 
ATOM      6  C   UNL     1       2.752   0.624   2.208  0.00  0.00    +0.133 A 
ATOM      7  O   UNL     1       6.109   1.184   0.929  0.00  0.00    -0.485 OA
ATOM      8  C   UNL     1       6.960   0.530  -0.018  0.00  0.00    +0.270 C 
ATOM      9  C   UNL     1       6.196   0.401  -1.343  0.00  0.00    +0.270 C 
ATOM     10  O   UNL     1       5.012  -0.368  -1.104  0.00  0.00    -0.485 OA
ENDROOT
BRANCH   6  11
ATOM     11  N   UNL     1       1.935   0.977   3.391  0.00  0.00    +0.057 N 
ATOM     12  O   UNL     1       2.399   1.679   4.259  0.00  0.00    -0.126 OA
ATOM     13  O   UNL     1       0.803   0.563   3.489  0.00  0.00    -0.126 OA
ENDBRANCH   6  11
BRANCH   1  14
ATOM     14  C   UNL     1       0.781  -0.623   1.302  0.00  0.00    +0.041 C 
BRANCH  14  16
ATOM     15  C   UNL     1      -0.154   1.693   1.228  0.00  0.00    +0.025 C 
ATOM     16  C   UNL     1      -0.134   0.331   0.531  0.00  0.00    +0.085 C 
ATOM     17 CL   UNL     1       0.482   0.527  -1.152  0.00  0.00    -0.121 Cl
ENDBRANCH  14  16
BRANCH  14  18
ATOM     18  C   UNL     1       0.669  -2.028   0.707  0.00  0.00    -0.008 C 
ATOM     19  C   UNL     1       1.583  -2.982   1.478  0.00  0.00    +0.008 C 
ATOM     20  C   UNL     1      -0.779  -2.513   0.812  0.00  0.00    +0.008 C 
ENDBRANCH  14  18
ENDBRANCH   1  14
TORSDOF 4
