REMARK  Name = ZINC16037313
REMARK  10 active torsions:
REMARK  status: ('A' for Active; 'I' for Inactive)
REMARK    1  A    between atoms: C_1  and  C_2
REMARK    2  A    between atoms: C_2  and  C_3
REMARK    3  A    between atoms: C_3  and  C_4
REMARK    4  A    between atoms: C_4  and  O_5
REMARK    5  A    between atoms: O_5  and  C_6
REMARK    6  A    between atoms: C_9  and  C_12
REMARK    7  A    between atoms: C_21  and  N_30
REMARK    8  A    between atoms: C_22  and  C_28
REMARK    9  A    between atoms: C_23  and  C_24
REMARK   10  A    between atoms: C_23  and  C_26
REMARK                            x       y       z     vdW  Elec       q    Type
REMARK                         _______ _______ _______ _____ _____    ______ ____
ROOT
ATOM      1  C   UNL     1       1.550   0.022   8.638  0.00  0.00    +0.066 C 
ATOM      2  C   UNL     1       1.453  -1.496   8.801  0.00  0.00    +0.031 C 
ATOM      3  C   UNL     1       0.028  -1.950   9.010  0.00  0.00    +0.009 C 
ATOM      4  C   UNL     1      -0.601  -2.467   7.718  0.00  0.00    +0.005 C 
ATOM      5  C   UNL     1       0.243  -3.642   7.205  0.00  0.00    +0.027 C 
ATOM      6  C   UNL     1       1.630  -3.125   6.924  0.00  0.00    -0.021 C 
ATOM      7  C   UNL     1       2.148  -2.140   7.639  0.00  0.00    -0.026 C 
ATOM      8  C   UNL     1       3.469  -1.591   7.259  0.00  0.00    +0.044 C 
ATOM      9  C   UNL     1       3.857  -0.385   7.750  0.00  0.00    +0.084 C 
ATOM     10  C   UNL     1       3.023   0.433   8.690  0.00  0.00    +0.186 C 
ENDROOT
BRANCH   1  14
ATOM     11  C   UNL     1      -0.125   1.169   4.878  0.00  0.00    +0.121 A 
ATOM     12  C   UNL     1      -0.902   1.210   6.026  0.00  0.00    +0.046 A 
ATOM     13  C   UNL     1      -0.360   0.834   7.240  0.00  0.00    +0.007 A 
ATOM     14  C   UNL     1       0.960   0.427   7.312  0.00  0.00    -0.041 A 
ATOM     15  C   UNL     1       1.738   0.390   6.170  0.00  0.00    +0.007 A 
ATOM     16  C   UNL     1       1.199   0.760   4.953  0.00  0.00    +0.046 A 
BRANCH  11  17
ATOM     17  O   UNL     1      -0.658   1.533   3.682  0.00  0.00    -0.492 OA
BRANCH  17  18
ATOM     18  C   UNL     1      -2.027   1.943   3.680  0.00  0.00    +0.229 C 
BRANCH  18  19
ATOM     19  C   UNL     1      -2.446   2.312   2.255  0.00  0.00    +0.041 C 
BRANCH  19  21
ATOM     20  C   UNL     1      -4.331   3.121   0.828  0.00  0.00    +0.004 C 
ATOM     21  C   UNL     1      -3.912   2.751   2.253  0.00  0.00    -0.000 C 
ENDBRANCH  19  21
ENDBRANCH  18  19
ENDBRANCH  17  18
ENDBRANCH  11  17
ENDBRANCH   1  14
BRANCH   8  22
ATOM     22  N   UNL     1       4.301  -2.299   6.414  0.00  0.00    -0.357 N 
ATOM     23  H   UNL     1       5.282  -1.887   6.135  0.00  0.00    +0.142 HD
ATOM     24  H   UNL     1       3.983  -3.276   6.020  0.00  0.00    +0.142 HD
ENDBRANCH   8  22
BRANCH  10  25
ATOM     25  C   UNL     1       3.138   1.854   8.323  0.00  0.00    +0.090 C 
ATOM     26  N   UNL     1       3.228   2.950   8.040  0.00  0.00    -0.195 NA
ENDBRANCH  10  25
BRANCH  10  27
ATOM     27  C   UNL     1       3.525   0.250  10.061  0.00  0.00    +0.090 C 
ATOM     28  N   UNL     1       3.913   0.109  11.119  0.00  0.00    -0.195 NA
ENDBRANCH  10  27
BRANCH   9  29
ATOM     29  C   UNL     1       5.129   0.134   7.347  0.00  0.00    +0.099 C 
ATOM     30  N   UNL     1       6.138   0.545   7.027  0.00  0.00    -0.191 NA
ENDBRANCH   9  29
TORSDOF 9
