REMARK  Name = ZINC18253841
REMARK  3 active torsions:
REMARK  status: ('A' for Active; 'I' for Inactive)
REMARK    1  A    between atoms: C_4  and  C_10
REMARK    2  A    between atoms: C_6  and  N_7
REMARK    3  A    between atoms: N_12  and  C_13
REMARK                            x       y       z     vdW  Elec       q    Type
REMARK                         _______ _______ _______ _____ _____    ______ ____
ROOT
ATOM      1  C   UNL     1      -4.980   1.159   0.034  0.00  0.00    +0.250 C 
ATOM      2  O   UNL     1      -6.038   1.757   0.051  0.00  0.00    -0.270 OA
ATOM      3  N   UNL     1      -4.966  -0.188   0.024  0.00  0.00    -0.281 N 
ATOM      4  H   UNL     1      -4.125  -0.664  -0.058  0.00  0.00    +0.155 HD
ENDROOT
BRANCH   3   5
ATOM      5  C   UNL     1      -6.165  -0.900   0.131  0.00  0.00    +0.039 A 
ATOM      6  C   UNL     1      -6.198  -2.108   0.815  0.00  0.00    +0.061 A 
ATOM      7  C   UNL     1      -7.386  -2.808   0.924  0.00  0.00    +0.128 A 
ATOM      8  C   UNL     1      -8.540  -2.311   0.342  0.00  0.00    +0.076 A 
ATOM      9  C   UNL     1      -8.508  -1.109  -0.346  0.00  0.00    +0.128 A 
ATOM     10  C   UNL     1      -7.323  -0.403  -0.452  0.00  0.00    +0.061 A 
ATOM     11  F   UNL     1      -9.636  -0.626  -0.912  0.00  0.00    -0.205 F 
ATOM     12  F   UNL     1      -7.419  -3.981   1.594  0.00  0.00    -0.205 F 
ENDBRANCH   3   5
BRANCH   1  16
ATOM     13  C   UNL     1      -1.322   3.320   0.010  0.00  0.00    +0.034 A 
ATOM     14  C   UNL     1      -2.525   4.004   0.025  0.00  0.00    +0.023 A 
ATOM     15  C   UNL     1      -3.718   3.308   0.035  0.00  0.00    +0.053 A 
ATOM     16  C   UNL     1      -3.708   1.911   0.024  0.00  0.00    +0.057 A 
ATOM     17  C   UNL     1      -2.490   1.228   0.004  0.00  0.00    +0.047 A 
ATOM     18  C   UNL     1      -1.306   1.936  -0.005  0.00  0.00    +0.127 A 
ATOM     19 CL   UNL     1      -5.226   4.168   0.059  0.00  0.00    -0.083 Cl
BRANCH  18  20
ATOM     20  N   UNL     1      -0.015   1.213  -0.026  0.00  0.00    +0.056 N 
ATOM     21  O   UNL     1       0.002  -0.004  -0.034  0.00  0.00    -0.126 OA
ATOM     22  O   UNL     1       1.032   1.837  -0.039  0.00  0.00    -0.126 OA
ENDBRANCH  18  20
ENDBRANCH   1  16
TORSDOF 3
