REMARK  Name = ZINC40035513
REMARK  7 active torsions:
REMARK  status: ('A' for Active; 'I' for Inactive)
REMARK    1  A    between atoms: C_1  and  C_2
REMARK    2  A    between atoms: C_2  and  C_3
REMARK    3  A    between atoms: C_3  and  C_33
REMARK    4  A    between atoms: N_15  and  C_27
REMARK    5  A    between atoms: N_18  and  N_19
REMARK    6  A    between atoms: C_20  and  C_21
REMARK    7  A    between atoms: C_24  and  C_26
REMARK                            x       y       z     vdW  Elec       q    Type
REMARK                         _______ _______ _______ _____ _____    ______ ____
ROOT
ATOM      1  C   UNL     1      -0.825   0.573  -0.046  0.00  0.00    +0.004 C 
ATOM      2  C   UNL     1      -1.949  -0.432  -0.285  0.00  0.00    +0.047 C 
ATOM      3  C   UNL     1      -3.275   0.272  -0.386  0.00  0.00    -0.037 A 
ATOM      4  C   UNL     1      -4.246  -0.187  -1.252  0.00  0.00    +0.004 A 
ATOM      5  C   UNL     1      -5.464   0.463  -1.336  0.00  0.00    +0.000 A 
ATOM      6  C   UNL     1      -5.719   1.576  -0.553  0.00  0.00    +0.001 A 
ATOM      7  C   UNL     1      -4.755   2.046   0.316  0.00  0.00    +0.010 A 
ATOM      8  C   UNL     1      -3.528   1.396   0.402  0.00  0.00    +0.004 A 
ATOM      9  C   UNL     1      -2.472   1.882   1.318  0.00  0.00    +0.084 A 
ATOM     10  C   UNL     1      -1.161   1.480   1.104  0.00  0.00    +0.050 A 
ATOM     11  C   UNL     1      -0.164   1.934   1.976  0.00  0.00    +0.264 A 
ATOM     12  O   UNL     1       1.000   1.600   1.821  0.00  0.00    -0.267 OA
ATOM     13  N   UNL     1      -0.517   2.749   2.993  0.00  0.00    -0.248 N 
ATOM     14  C   UNL     1      -1.820   3.120   3.156  0.00  0.00    +0.223 A 
ATOM     15  N   UNL     1      -2.763   2.695   2.339  0.00  0.00    -0.214 NA
ATOM     16  N   UNL     1      -2.156   3.951   4.192  0.00  0.00    -0.206 N 
ATOM     17  C   UNL     1       0.468  -0.182   0.269  0.00  0.00    +0.016 C 
ATOM     18  H   UNL     1      -1.471   4.270   4.800  0.00  0.00    +0.177 HD
ENDROOT
BRANCH  13  19
ATOM     19  C   UNL     1       0.458   3.216   3.884  0.00  0.00    +0.053 A 
ATOM     20  C   UNL     1       0.742   2.503   5.041  0.00  0.00    +0.026 A 
ATOM     21  C   UNL     1       1.704   2.966   5.917  0.00  0.00    +0.002 A 
ATOM     22  C   UNL     1       2.384   4.138   5.643  0.00  0.00    +0.000 A 
ATOM     23  C   UNL     1       2.103   4.851   4.492  0.00  0.00    +0.002 A 
ATOM     24  C   UNL     1       1.146   4.391   3.609  0.00  0.00    +0.026 A 
ENDBRANCH  13  19
BRANCH   1  26
ATOM     25  C   UNL     1       0.522   2.404  -1.084  0.00  0.00    +0.005 C 
ATOM     26  C   UNL     1      -0.623   1.414  -1.308  0.00  0.00    +0.008 C 
ENDBRANCH   1  26
BRANCH  16  27
ATOM     27  N   UNL     1      -3.490   4.340   4.373  0.00  0.00    -0.184 NA
ATOM     28  C   UNL     1      -3.809   5.130   5.357  0.00  0.00    +0.176 C 
BRANCH  28  29
ATOM     29  C   UNL     1      -5.204   5.537   5.547  0.00  0.00    +0.148 A 
ATOM     30  C   UNL     1      -5.672   6.361   6.529  0.00  0.00    +0.051 A 
ATOM     31  C   UNL     1      -7.061   6.478   6.332  0.00  0.00    +0.045 A 
ATOM     32  C   UNL     1      -7.372   5.731   5.253  0.00  0.00    +0.103 A 
ATOM     33  O   UNL     1      -6.248   5.168   4.779  0.00  0.00    -0.459 OA
ATOM     34  C   UNL     1      -8.752   5.560   4.673  0.00  0.00    +0.086 C 
ENDBRANCH  28  29
ENDBRANCH  16  27
TORSDOF 4
