REMARK  Name = ZINC44353564
REMARK  11 active torsions:
REMARK  status: ('A' for Active; 'I' for Inactive)
REMARK    1  A    between atoms: C_1  and  C_2
REMARK    2  A    between atoms: C_3  and  N_21
REMARK    3  A    between atoms: C_5  and  S_9
REMARK    4  A    between atoms: S_9  and  N_12
REMARK    5  A    between atoms: N_12  and  C_13
REMARK    6  A    between atoms: N_12  and  C_14
REMARK    7  A    between atoms: C_14  and  C_16
REMARK    8  A    between atoms: C_14  and  C_17
REMARK    9  A    between atoms: C_17  and  C_18
REMARK   10  A    between atoms: C_17  and  C_19
REMARK   11  A    between atoms: C_17  and  C_20
REMARK                            x       y       z     vdW  Elec       q    Type
REMARK                         _______ _______ _______ _____ _____    ______ ____
ROOT
ATOM      1  C   UNL     1       1.760   1.965  -1.108  0.00  0.00    +0.047 C 
ATOM      2  C   UNL     1       1.434   0.499  -0.980  0.00  0.00    -0.011 A 
ATOM      3  C   UNL     1       1.448  -0.317  -2.103  0.00  0.00    +0.031 A 
ATOM      4  C   UNL     1       1.147  -1.668  -1.981  0.00  0.00    +0.051 A 
ATOM      5  C   UNL     1       0.834  -2.195  -0.743  0.00  0.00    +0.109 A 
ATOM      6  C   UNL     1       0.820  -1.381   0.374  0.00  0.00    +0.049 A 
ATOM      7  C   UNL     1       1.125  -0.035   0.257  0.00  0.00    +0.047 A 
ATOM      8 CL   UNL     1       1.114   0.982   1.663  0.00  0.00    -0.083 Cl
ENDROOT
BRANCH   5   9
ATOM      9  S   UNL     1       0.452  -3.908  -0.588  0.00  0.00    +0.061 S 
ATOM     10  O   UNL     1      -0.338  -4.043   0.585  0.00  0.00    -0.153 OA
ATOM     11  O   UNL     1       0.002  -4.341  -1.864  0.00  0.00    -0.153 OA
BRANCH   9  12
ATOM     12  N   UNL     1       1.875  -4.702  -0.294  0.00  0.00    -0.176 NA
ATOM     13  C   UNL     1       2.332  -4.902   1.084  0.00  0.00    +0.132 C 
BRANCH  12  14
ATOM     14  C   UNL     1       2.678  -5.205  -1.411  0.00  0.00    +0.082 C 
ATOM     15  C   UNL     1       4.107  -4.672  -1.294  0.00  0.00    +0.026 C 
BRANCH  14  16
ATOM     16  C   UNL     1       2.700  -6.735  -1.376  0.00  0.00    -0.021 C 
ATOM     17  C   UNL     1       1.265  -7.265  -1.331  0.00  0.00    +0.012 C 
ATOM     18  C   UNL     1       3.400  -7.264  -2.629  0.00  0.00    +0.012 C 
ATOM     19  C   UNL     1       3.457  -7.205  -0.132  0.00  0.00    +0.012 C 
ENDBRANCH  14  16
ENDBRANCH  12  14
ENDBRANCH   9  12
ENDBRANCH   5   9
BRANCH   3  20
ATOM     20  N   UNL     1       1.764   0.219  -3.354  0.00  0.00    -0.358 N 
ATOM     21  H   UNL     1       1.974   1.162  -3.438  0.00  0.00    +0.142 HD
ATOM     22  H   UNL     1       1.774  -0.352  -4.138  0.00  0.00    +0.142 HD
ENDBRANCH   3  20
TORSDOF 5
