REMARK  Name = ZINC66877043
REMARK  12 active torsions:
REMARK  status: ('A' for Active; 'I' for Inactive)
REMARK    1  A    between atoms: C_1  and  C_2
REMARK    2  A    between atoms: C_2  and  C_3
REMARK    3  A    between atoms: C_3  and  C_4
REMARK    4  A    between atoms: C_6  and  C_9
REMARK    5  A    between atoms: C_9  and  C_10
REMARK    6  A    between atoms: C_10  and  C_11
REMARK    7  A    between atoms: C_11  and  C_12
REMARK    8  A    between atoms: C_12  and  O_14
REMARK    9  A    between atoms: O_14  and  C_15
REMARK   10  A    between atoms: C_15  and  C_17
REMARK   11  A    between atoms: C_15  and  C_18
REMARK   12  A    between atoms: C_21  and  N_24
REMARK                            x       y       z     vdW  Elec       q    Type
REMARK                         _______ _______ _______ _____ _____    ______ ____
ROOT
ATOM      1  C   UNL     1       2.228  -7.204   2.814  0.00  0.00    +0.308 C 
ATOM      2  O   UNL     1       1.338  -6.606   3.372  0.00  0.00    -0.251 OA
ENDROOT
BRANCH   1   3
ATOM      3  C   UNL     1       2.655  -6.798   1.427  0.00  0.00    +0.121 C 
BRANCH   3   4
ATOM      4  C   UNL     1       1.809  -5.612   0.960  0.00  0.00    +0.020 C 
BRANCH   4   5
ATOM      5  C   UNL     1       2.242  -5.200  -0.449  0.00  0.00    +0.099 C 
BRANCH   5   8
ATOM      6  C   UNL     1       0.739  -2.004  -1.265  0.00  0.00    +0.172 A 
ATOM      7  N   UNL     1       1.694  -2.772  -0.730  0.00  0.00    -0.196 NA
ATOM      8  C   UNL     1       1.409  -4.032  -0.909  0.00  0.00    +0.227 A 
ATOM      9  O   UNL     1       0.249  -4.109  -1.573  0.00  0.00    -0.338 OA
ATOM     10  N   UNL     1      -0.174  -2.771  -1.790  0.00  0.00    -0.061 NA
BRANCH   6  11
ATOM     11  C   UNL     1       0.718  -0.497  -1.257  0.00  0.00    +0.079 C 
BRANCH  11  13
ATOM     12  C   UNL     1      -0.019   1.526   0.010  0.00  0.00    +0.004 C 
ATOM     13  C   UNL     1       0.002  -0.004   0.002  0.00  0.00    +0.004 C 
ENDBRANCH  11  13
ENDBRANCH   6  11
ENDBRANCH   5   8
ENDBRANCH   4   5
ENDBRANCH   3   4
ENDBRANCH   1   3
BRANCH   1  14
ATOM     14  O   UNL     1       2.836  -8.230   3.430  0.00  0.00    -0.457 OA
BRANCH  14  15
ATOM     15  C   UNL     1       2.380  -8.560   4.744  0.00  0.00    +0.203 C 
ATOM     16  C   UNL     1       3.184  -7.767   5.777  0.00  0.00    +0.057 C 
BRANCH  15  17
ATOM     17  C   UNL     1       2.570 -10.035   4.986  0.00  0.00    -0.007 A 
ATOM     18  C   UNL     1       3.715 -10.668   4.538  0.00  0.00    +0.009 A 
ATOM     19  C   UNL     1       3.889 -12.021   4.760  0.00  0.00    +0.033 A 
ATOM     20  C   UNL     1       2.918 -12.742   5.430  0.00  0.00    +0.126 A 
ATOM     21  C   UNL     1       1.774 -12.109   5.878  0.00  0.00    +0.033 A 
ATOM     22  C   UNL     1       1.602 -10.755   5.660  0.00  0.00    +0.009 A 
BRANCH  20  23
ATOM     23  N   UNL     1       3.104 -14.191   5.666  0.00  0.00    +0.056 N 
ATOM     24  O   UNL     1       4.104 -14.744   5.273  0.00  0.00    -0.126 OA
ATOM     25  O   UNL     1       2.255 -14.822   6.252  0.00  0.00    -0.126 OA
ENDBRANCH  20  23
ENDBRANCH  15  17
ENDBRANCH  14  15
ENDBRANCH   1  14
TORSDOF 10
