REMARK  Name = ZINC08016918
REMARK  5 active torsions:
REMARK  status: ('A' for Active; 'I' for Inactive)
REMARK    1  A    between atoms: C_4  and  N_7
REMARK    2  A    between atoms: N_7  and  C_8
REMARK    3  A    between atoms: C_14  and  C_16
REMARK    4  A    between atoms: C_16  and  S_17
REMARK    5  A    between atoms: S_17  and  C_18
REMARK                            x       y       z     vdW  Elec       q    Type
REMARK                         _______ _______ _______ _____ _____    ______ ____
ROOT
ATOM      1  N   UNL     1       3.614  -0.651  -0.020  0.00  0.00    -0.240 N 
ATOM      2  C   UNL     1       4.757   0.041  -0.194  0.00  0.00    +0.234 C 
ATOM      3  O   UNL     1       5.805  -0.549  -0.356  0.00  0.00    -0.274 OA
ENDROOT
BRANCH   1   7
ATOM      4  C   UNL     1      -0.021   1.366   0.262  0.00  0.00    +0.000 A 
ATOM      5  C   UNL     1       0.490   0.709   1.365  0.00  0.00    +0.002 A 
ATOM      6  C   UNL     1       1.695   0.039   1.276  0.00  0.00    +0.024 A 
ATOM      7  C   UNL     1       2.393   0.026   0.075  0.00  0.00    +0.041 A 
ATOM      8  C   UNL     1       1.877   0.688  -1.032  0.00  0.00    +0.024 A 
ATOM      9  C   UNL     1       0.671   1.356  -0.935  0.00  0.00    +0.002 A 
ENDBRANCH   1   7
BRANCH   1  10
ATOM     10  C   UNL     1       3.648  -2.049   0.067  0.00  0.00    +0.041 A 
ATOM     11  C   UNL     1       4.243  -2.663   1.161  0.00  0.00    +0.024 A 
ATOM     12  C   UNL     1       4.274  -4.042   1.244  0.00  0.00    +0.002 A 
ATOM     13  C   UNL     1       3.715  -4.809   0.239  0.00  0.00    +0.000 A 
ATOM     14  C   UNL     1       3.123  -4.200  -0.852  0.00  0.00    +0.002 A 
ATOM     15  C   UNL     1       3.083  -2.822  -0.938  0.00  0.00    +0.024 A 
ENDBRANCH   1  10
BRANCH   2  16
ATOM     16  C   UNL     1       4.734   1.548  -0.188  0.00  0.00    +0.174 C 
BRANCH  16  17
ATOM     17  S   UNL     1       6.432   2.179  -0.276  0.00  0.00    -0.078 S 
BRANCH  17  18
ATOM     18  C   UNL     1       6.237   3.930  -0.261  0.00  0.00    +0.170 A 
ATOM     19  N   UNL     1       7.339   4.729  -0.322  0.00  0.00    -0.302 N 
ATOM     20  H   UNL     1       8.224   4.337  -0.380  0.00  0.00    +0.171 HD
ATOM     21  C   UNL     1       7.189   6.068  -0.302  0.00  0.00    +0.255 A 
ATOM     22  O   UNL     1       8.164   6.800  -0.351  0.00  0.00    -0.267 OA
ATOM     23  C   UNL     1       5.889   6.613  -0.225  0.00  0.00    +0.038 A 
ATOM     24  C   UNL     1       4.826   5.770  -0.174  0.00  0.00    +0.052 A 
ATOM     25  N   UNL     1       5.029   4.448  -0.195  0.00  0.00    -0.228 NA
ATOM     26  C   UNL     1       3.403   6.260  -0.109  0.00  0.00    +0.056 C 
ATOM     27  C   UNL     1       3.357   7.722   0.332  0.00  0.00    +0.006 C 
ATOM     28  C   UNL     1       4.322   8.524  -0.549  0.00  0.00    +0.005 C 
ATOM     29  C   UNL     1       5.750   8.111  -0.198  0.00  0.00    +0.042 C 
ENDBRANCH  17  18
ENDBRANCH  16  17
ENDBRANCH   2  16
TORSDOF 5
