REMARK  Name = ZINC04585975
REMARK  6 active torsions:
REMARK  status: ('A' for Active; 'I' for Inactive)
REMARK    1  A    between atoms: C_3  and  N_9
REMARK    2  A    between atoms: C_10  and  C_12
REMARK    3  A    between atoms: C_12  and  S_13
REMARK    4  A    between atoms: S_13  and  C_14
REMARK    5  A    between atoms: C_17  and  C_20
REMARK    6  A    between atoms: N_18  and  N_19
REMARK                            x       y       z     vdW  Elec       q    Type
REMARK                         _______ _______ _______ _____ _____    ______ ____
ROOT
ATOM      1  S   UNL     1      -1.733   6.235  -0.285  0.00  0.00    -0.075 S 
ENDROOT
BRANCH   1   2
ATOM      2  C   UNL     1      -1.456   7.972  -0.397  0.00  0.00    +0.209 A 
ATOM      3  N   UNL     1      -0.289   8.576  -0.399  0.00  0.00    -0.120 NA
ATOM      4  N   UNL     1      -0.450   9.848  -0.494  0.00  0.00    -0.123 NA
ATOM      5  C   UNL     1      -1.732  10.135  -0.559  0.00  0.00    +0.217 A 
ATOM      6  N   UNL     1      -2.415   8.940  -0.504  0.00  0.00    -0.221 N 
BRANCH   5   7
ATOM      7  C   UNL     1      -2.323  11.477  -0.674  0.00  0.00    +0.173 A 
ATOM      8  C   UNL     1      -1.659  12.618  -1.012  0.00  0.00    +0.053 A 
ATOM      9  C   UNL     1      -2.609  13.658  -1.003  0.00  0.00    +0.042 A 
ATOM     10  C   UNL     1      -3.791  13.111  -0.656  0.00  0.00    +0.196 A 
ATOM     11  O   UNL     1      -3.615  11.793  -0.458  0.00  0.00    -0.460 OA
ENDBRANCH   5   7
BRANCH   6  12
ATOM     12  N   UNL     1      -3.769   8.761  -0.545  0.00  0.00    -0.294 N 
ATOM     13  H   UNL     1      -4.164   8.780   0.383  0.00  0.00    +0.163 HD
ATOM     14  H   UNL     1      -4.207   9.448  -1.140  0.00  0.00    +0.163 HD
ENDBRANCH   6  12
ENDBRANCH   1   2
BRANCH   1  15
ATOM     15  C   UNL     1      -0.023   5.651  -0.184  0.00  0.00    +0.173 C 
BRANCH  15  17
ATOM     16  N   UNL     1       1.160   3.487   0.009  0.00  0.00    -0.284 N 
ATOM     17  C   UNL     1      -0.012   4.147  -0.078  0.00  0.00    +0.228 C 
ATOM     18  O   UNL     1      -1.057   3.532  -0.072  0.00  0.00    -0.275 OA
ATOM     19  H   UNL     1       1.991   3.981   0.085  0.00  0.00    +0.155 HD
BRANCH  16  22
ATOM     20  C   UNL     1       0.160   0.005  -0.628  0.00  0.00    +0.003 A 
ATOM     21  C   UNL     1       0.141   1.387  -0.611  0.00  0.00    +0.025 A 
ATOM     22  C   UNL     1       1.177   2.087  -0.009  0.00  0.00    +0.053 A 
ATOM     23  C   UNL     1       2.232   1.396   0.575  0.00  0.00    +0.080 A 
ATOM     24  C   UNL     1       2.246   0.014   0.554  0.00  0.00    +0.061 A 
ATOM     25  C   UNL     1       1.211  -0.681  -0.047  0.00  0.00    +0.021 A 
ATOM     26 CL   UNL     1       3.563  -0.852   1.283  0.00  0.00    -0.082 Cl
ATOM     27 CL   UNL     1       3.531   2.268   1.329  0.00  0.00    -0.080 Cl
ENDBRANCH  16  22
ENDBRANCH  15  17
ENDBRANCH   1  15
TORSDOF 6
