REMARK  Name = ZINC42642710
REMARK  13 active torsions:
REMARK  status: ('A' for Active; 'I' for Inactive)
REMARK    1  A    between atoms: C_1  and  C_2
REMARK    2  A    between atoms: C_2  and  C_3
REMARK    3  A    between atoms: C_2  and  C_4
REMARK    4  A    between atoms: C_4  and  C_6
REMARK    5  A    between atoms: C_4  and  N_13
REMARK    6  A    between atoms: N_8  and  C_9
REMARK    7  A    between atoms: C_9  and  C_10
REMARK    8  A    between atoms: C_9  and  C_11
REMARK    9  A    between atoms: C_9  and  C_12
REMARK   10  A    between atoms: N_13  and  C_14
REMARK   11  A    between atoms: C_17  and  N_20
REMARK   12  A    between atoms: N_23  and  C_24
REMARK   13  A    between atoms: C_24  and  C_25
REMARK                            x       y       z     vdW  Elec       q    Type
REMARK                         _______ _______ _______ _____ _____    ______ ____
ROOT
ATOM      1  C   UNL     1      -2.747   1.720  -0.414  0.00  0.00    +0.028 A 
ATOM      2  C   UNL     1      -1.886   2.421   0.420  0.00  0.00    +0.025 A 
ATOM      3  C   UNL     1      -2.075   3.773   0.627  0.00  0.00    +0.025 A 
ATOM      4  C   UNL     1      -3.125   4.431   0.001  0.00  0.00    +0.035 A 
ATOM      5  C   UNL     1      -3.986   3.730  -0.832  0.00  0.00    +0.025 A 
ATOM      6  C   UNL     1      -3.794   2.379  -1.044  0.00  0.00    +0.025 A 
ENDROOT
BRANCH   4   7
ATOM      7  N   UNL     1      -3.317   5.804   0.212  0.00  0.00    -0.269 N 
ATOM      8  C   UNL     1      -2.259   6.604   0.449  0.00  0.00    +0.304 C 
ATOM      9  O   UNL     1      -1.131   6.153   0.391  0.00  0.00    -0.253 OA
ATOM     10  N   UNL     1      -2.450   7.903   0.752  0.00  0.00    -0.297 N 
ATOM     11  H   UNL     1      -4.212   6.178   0.186  0.00  0.00    +0.156 HD
ATOM     12  H   UNL     1      -3.350   8.263   0.798  0.00  0.00    +0.150 HD
BRANCH  10  13
ATOM     13  C   UNL     1      -1.299   8.773   1.010  0.00  0.00    +0.137 C 
BRANCH  13  14
ATOM     14  C   UNL     1      -1.790  10.187   1.327  0.00  0.00    +0.135 C 
ATOM     15  C   UNL     1      -0.586  11.132   1.569  0.00  0.00    +0.035 C 
ATOM     16  C   UNL     1      -1.216  12.508   1.221  0.00  0.00    +0.031 C 
ATOM     17  C   UNL     1      -2.198  12.141   0.088  0.00  0.00    +0.160 C 
ATOM     18  O   UNL     1      -2.481  10.740   0.195  0.00  0.00    -0.375 OA
ENDBRANCH  13  14
ENDBRANCH  10  13
ENDBRANCH   4   7
BRANCH   1  19
ATOM     19  N   UNL     1      -2.556   0.349  -0.623  0.00  0.00    -0.333 N 
ATOM     20  H   UNL     1      -3.198  -0.155  -1.146  0.00  0.00    +0.147 HD
BRANCH  19  21
ATOM     21  C   UNL     1      -1.386  -0.323  -0.053  0.00  0.00    +0.159 C 
BRANCH  21  22
ATOM     22  C   UNL     1      -1.778  -1.698   0.420  0.00  0.00    +0.234 C 
ATOM     23  O   UNL     1      -2.802  -2.209   0.019  0.00  0.00    -0.274 OA
ATOM     24  N   UNL     1      -0.990  -2.361   1.291  0.00  0.00    -0.309 N 
ATOM     25  H   UNL     1      -0.212  -1.924   1.671  0.00  0.00    +0.149 HD
BRANCH  24  26
ATOM     26  C   UNL     1      -1.310  -3.742   1.663  0.00  0.00    +0.026 C 
ATOM     27  C   UNL     1      -1.301  -4.622   0.411  0.00  0.00    +0.031 C 
ATOM     28  C   UNL     1      -0.266  -4.257   2.656  0.00  0.00    +0.031 C 
ATOM     29  C   UNL     1      -2.696  -3.788   2.309  0.00  0.00    +0.031 C 
ENDBRANCH  24  26
ENDBRANCH  21  22
BRANCH  21  31
ATOM     30  C   UNL     1      -0.859  -1.165  -2.345  0.00  0.00    +0.009 C 
ATOM     31  C   UNL     1      -0.296  -0.442  -1.120  0.00  0.00    +0.012 C 
ATOM     32  C   UNL     1       0.176   0.956  -1.526  0.00  0.00    +0.009 C 
ENDBRANCH  21  31
ENDBRANCH  19  21
ENDBRANCH   1  19
TORSDOF 8
