REMARK  Name = ZINC06300500
REMARK  10 active torsions:
REMARK  status: ('A' for Active; 'I' for Inactive)
REMARK    1  A    between atoms: C_1  and  C_2
REMARK    2  A    between atoms: C_4  and  C_35
REMARK    3  A    between atoms: C_9  and  C_14
REMARK    4  A    between atoms: C_14  and  N_64
REMARK    5  A    between atoms: C_15  and  C_16
REMARK    6  A    between atoms: C_15  and  N_64
REMARK    7  A    between atoms: C_22  and  C_23
REMARK    8  A    between atoms: C_22  and  N_64
REMARK    9  A    between atoms: N_27  and  C_28
REMARK   10  A    between atoms: C_28  and  C_29
REMARK                            x       y       z     vdW  Elec       q    Type
REMARK                         _______ _______ _______ _____ _____    ______ ____
ROOT
ATOM      1  N   UNL     1       6.344   0.346  -1.439  0.00  0.00    +0.390 N 
ATOM      2  H   UNL     1       6.093   1.196  -1.957  0.00  0.00    -0.080 HD
ENDROOT
BRANCH   1   3
ATOM      3  C   UNL     1       5.998   0.532  -0.014  0.00  0.00    -0.036 C 
BRANCH   3  12
ATOM      4  C   UNL     1      -1.274  -0.820   0.934  0.00  0.00    +0.044 C 
ATOM      5  C   UNL     1      -0.136   0.138   0.694  0.00  0.00    -0.050 A 
ATOM      6  C   UNL     1      -0.396   1.495   0.554  0.00  0.00    +0.008 A 
ATOM      7  C   UNL     1       0.628   2.388   0.328  0.00  0.00    -0.026 A 
ATOM      8  C   UNL     1       1.939   1.929   0.246  0.00  0.00    +0.052 A 
ATOM      9  C   UNL     1       2.200   0.553   0.395  0.00  0.00    -0.001 A 
ATOM     10  C   UNL     1       1.143  -0.335   0.623  0.00  0.00    +0.013 A 
ATOM     11  C   UNL     1       3.582   0.080   0.307  0.00  0.00    +0.017 A 
ATOM     12  C   UNL     1       4.565   0.987   0.083  0.00  0.00    +0.001 A 
ATOM     13  C   UNL     1       4.250   2.355  -0.060  0.00  0.00    +0.251 A 
ATOM     14  O   UNL     1       5.148   3.154  -0.261  0.00  0.00    -0.268 OA
ATOM     15  N   UNL     1       2.983   2.800   0.020  0.00  0.00    -0.322 N 
ATOM     16  H   UNL     1       2.802   3.747  -0.083  0.00  0.00    +0.169 HD
ATOM     17  C   UNL     1       0.331   3.857   0.171  0.00  0.00    +0.046 C 
ENDBRANCH   3  12
ENDBRANCH   1   3
BRANCH   1  18
ATOM     18  C   UNL     1       5.590  -0.796  -1.997  0.00  0.00    -0.042 C 
BRANCH  18  19
ATOM     19  C   UNL     1       5.878  -0.896  -3.473  0.00  0.00    -0.064 A 
ATOM     20  C   UNL     1       5.065  -0.243  -4.380  0.00  0.00    +0.002 A 
ATOM     21  C   UNL     1       5.332  -0.330  -5.734  0.00  0.00    +0.000 A 
ATOM     22  C   UNL     1       6.404  -1.080  -6.181  0.00  0.00    +0.000 A 
ATOM     23  C   UNL     1       7.213  -1.737  -5.273  0.00  0.00    +0.000 A 
ATOM     24  C   UNL     1       6.950  -1.645  -3.919  0.00  0.00    +0.002 A 
ENDBRANCH  18  19
ENDBRANCH   1  18
BRANCH   1  25
ATOM     25  C   UNL     1       7.797   0.110  -1.579  0.00  0.00    +0.001 C 
BRANCH  25  26
ATOM     26  C   UNL     1       8.535   1.352  -1.152  0.00  0.00    +0.135 A 
ATOM     27  N   UNL     1       9.006   1.610   0.044  0.00  0.00    -0.115 NA
ATOM     28  N   UNL     1       9.571   2.768   0.008  0.00  0.00    -0.023 NA
ATOM     29  N   UNL     1       9.472   3.255  -1.180  0.00  0.00    -0.044 NA
ATOM     30  N   UNL     1       8.845   2.410  -1.925  0.00  0.00    -0.229 N 
BRANCH  30  31
ATOM     31  C   UNL     1       8.525   2.572  -3.346  0.00  0.00    +0.178 C 
BRANCH  31  32
ATOM     32  C   UNL     1       7.271   3.435  -3.492  0.00  0.00    +0.140 C 
ATOM     33  C   UNL     1       6.936   3.649  -4.989  0.00  0.00    +0.035 C 
ATOM     34  C   UNL     1       5.409   3.928  -4.913  0.00  0.00    +0.031 C 
ATOM     35  C   UNL     1       4.970   3.028  -3.737  0.00  0.00    +0.160 C 
ATOM     36  O   UNL     1       6.130   2.753  -2.945  0.00  0.00    -0.375 OA
ENDBRANCH  31  32
ENDBRANCH  30  31
ENDBRANCH  25  26
ENDBRANCH   1  25
TORSDOF 8
