REMARK  Name = ZINC43525956
REMARK  11 active torsions:
REMARK  status: ('A' for Active; 'I' for Inactive)
REMARK    1  A    between atoms: C_1  and  N_2
REMARK    2  A    between atoms: C_3  and  C_14
REMARK    3  A    between atoms: C_5  and  C_7
REMARK    4  A    between atoms: C_23  and  C_25
REMARK    5  A    between atoms: C_25  and  N_26
REMARK    6  A    between atoms: N_26  and  C_27
REMARK    7  A    between atoms: C_27  and  N_29
REMARK    8  A    between atoms: N_29  and  C_30
REMARK    9  A    between atoms: C_34  and  C_36
REMARK   10  A    between atoms: C_36  and  O_38
REMARK   11  A    between atoms: O_38  and  C_39
REMARK                            x       y       z     vdW  Elec       q    Type
REMARK                         _______ _______ _______ _____ _____    ______ ____
ROOT
ATOM      1  C   UNL     1      -0.327   0.452  -3.105  0.00  0.00    +0.024 C 
ATOM      2  C   UNL     1       1.164   0.181  -3.319  0.00  0.00    -0.068 C 
ATOM      3  N   UNL     1       1.361  -0.601  -4.542  0.00  0.00    +0.383 N 
ATOM      4  C   UNL     1       0.689  -1.899  -4.439  0.00  0.00    -0.078 C 
ATOM      5  C   UNL     1      -0.818  -1.696  -4.261  0.00  0.00    -0.015 C 
ATOM      6  C   UNL     1      -1.119  -0.189  -4.251  0.00  0.00    -0.007 C 
ATOM      7  C   UNL     1      -0.626   0.411  -5.575  0.00  0.00    -0.010 C 
ATOM      8  C   UNL     1       0.877   0.139  -5.710  0.00  0.00    -0.051 C 
ATOM      9  H   UNL     1       2.349  -0.769  -4.658  0.00  0.00    -0.081 HD
ENDROOT
BRANCH   1  12
ATOM     10  C   UNL     1      -2.942   1.081  -1.571  0.00  0.00    +0.172 C 
ATOM     11  N   UNL     1      -1.910   0.138  -1.134  0.00  0.00    -0.271 N 
ATOM     12  C   UNL     1      -0.765  -0.145  -1.792  0.00  0.00    +0.041 A 
ATOM     13  C   UNL     1      -0.082  -1.058  -1.067  0.00  0.00    +0.053 A 
ATOM     14  C   UNL     1      -0.839  -1.348   0.085  0.00  0.00    +0.093 A 
ATOM     15  N   UNL     1      -1.935  -0.622   0.043  0.00  0.00    -0.171 NA
BRANCH  14  16
ATOM     16  C   UNL     1      -0.463  -2.301   1.159  0.00  0.00    +0.002 A 
ATOM     17  C   UNL     1       0.739  -3.001   1.083  0.00  0.00    +0.013 A 
ATOM     18  C   UNL     1       1.084  -3.886   2.084  0.00  0.00    +0.039 A 
ATOM     19  C   UNL     1       0.237  -4.079   3.163  0.00  0.00    +0.123 A 
ATOM     20  C   UNL     1      -0.959  -3.384   3.243  0.00  0.00    +0.039 A 
ATOM     21  C   UNL     1      -1.309  -2.493   2.249  0.00  0.00    +0.013 A 
ATOM     22  F   UNL     1       0.579  -4.947   4.141  0.00  0.00    -0.205 F 
ENDBRANCH  14  16
ENDBRANCH   1  12
BRANCH   8  23
ATOM     23  C   UNL     1       1.133  -0.684  -6.974  0.00  0.00    +0.088 C 
BRANCH  23  24
ATOM     24  N   UNL     1       2.554  -1.033  -7.050  0.00  0.00    -0.328 N 
ATOM     25  H   UNL     1       3.163  -0.740  -6.354  0.00  0.00    +0.148 HD
BRANCH  24  26
ATOM     26  C   UNL     1       3.014  -1.761  -8.086  0.00  0.00    +0.134 C 
ATOM     27  S   UNL     1       1.939  -2.278  -9.314  0.00  0.00    -0.019 S 
BRANCH  26  28
ATOM     28  N   UNL     1       4.321  -2.082  -8.156  0.00  0.00    -0.297 N 
ATOM     29  H   UNL     1       4.915  -1.859  -7.423  0.00  0.00    +0.154 HD
BRANCH  28  30
ATOM     30  C   UNL     1       4.821  -2.738  -9.287  0.00  0.00    +0.033 A 
ATOM     31  C   UNL     1       4.400  -2.355 -10.555  0.00  0.00    +0.023 A 
ATOM     32  C   UNL     1       4.891  -2.999 -11.675  0.00  0.00    +0.003 A 
ATOM     33  C   UNL     1       5.802  -4.027 -11.543  0.00  0.00    +0.015 A 
ATOM     34  C   UNL     1       6.232  -4.419 -10.273  0.00  0.00    +0.061 A 
ATOM     35  C   UNL     1       5.741  -3.765  -9.143  0.00  0.00    +0.038 A 
BRANCH  34  36
ATOM     36  C   UNL     1       7.207  -5.519 -10.128  0.00  0.00    +0.339 C 
ATOM     37  O   UNL     1       7.580  -5.859  -9.023  0.00  0.00    -0.245 OA
BRANCH  36  38
ATOM     38  O   UNL     1       7.683  -6.146 -11.221  0.00  0.00    -0.464 OA
ATOM     39  C   UNL     1       8.623  -7.201 -11.006  0.00  0.00    +0.280 C 
ENDBRANCH  36  38
ENDBRANCH  34  36
ENDBRANCH  28  30
ENDBRANCH  26  28
ENDBRANCH  24  26
ENDBRANCH  23  24
ENDBRANCH   8  23
TORSDOF 9
