REMARK  Name = ZINC36372204
REMARK  13 active torsions:
REMARK  status: ('A' for Active; 'I' for Inactive)
REMARK    1  A    between atoms: C_1  and  C_2
REMARK    2  A    between atoms: C_2  and  O_3
REMARK    3  A    between atoms: O_3  and  C_4
REMARK    4  A    between atoms: C_4  and  C_6
REMARK    5  A    between atoms: C_12  and  C_38
REMARK    6  A    between atoms: C_21  and  O_37
REMARK    7  A    between atoms: C_22  and  C_32
REMARK    8  A    between atoms: C_25  and  O_28
REMARK    9  A    between atoms: O_28  and  C_29
REMARK   10  A    between atoms: C_29  and  C_31
REMARK   11  A    between atoms: C_32  and  O_34
REMARK   12  A    between atoms: O_34  and  C_35
REMARK   13  A    between atoms: C_35  and  C_36
REMARK                            x       y       z     vdW  Elec       q    Type
REMARK                         _______ _______ _______ _____ _____    ______ ____
ROOT
ATOM      1  C   UNL     1      -2.905  -2.425  -0.028  0.00  0.00    +0.104 C 
ATOM      2  C   UNL     1      -3.591  -2.099   1.312  0.00  0.00    +0.015 C 
ATOM      3  C   UNL     1      -3.835  -3.450   2.023  0.00  0.00    +0.005 C 
ATOM      4  C   UNL     1      -2.792  -4.386   1.385  0.00  0.00    -0.001 C 
ATOM      5  C   UNL     1      -2.798  -3.972  -0.099  0.00  0.00    -0.016 C 
ATOM      6  C   UNL     1      -4.068  -4.469  -0.794  0.00  0.00    +0.008 C 
ATOM      7  C   UNL     1      -4.236  -5.974  -0.602  0.00  0.00    +0.005 C 
ATOM      8  C   UNL     1      -4.393  -6.261   0.895  0.00  0.00    +0.012 C 
ATOM      9  C   UNL     1      -3.116  -5.845   1.594  0.00  0.00    -0.003 C 
ATOM     10  C   UNL     1      -3.251  -6.155   3.087  0.00  0.00    +0.007 C 
ATOM     11  C   UNL     1      -3.499  -7.652   3.278  0.00  0.00    +0.036 C 
ATOM     12  C   UNL     1      -3.528  -8.344   1.914  0.00  0.00    +0.085 C 
ATOM     13  C   UNL     1      -4.649  -7.756   1.099  0.00  0.00    +0.100 C 
ATOM     14  C   UNL     1      -4.694  -8.456  -0.261  0.00  0.00    +0.025 C 
ATOM     15  C   UNL     1      -4.949  -9.950  -0.057  0.00  0.00    +0.046 C 
ATOM     16  C   UNL     1      -3.824 -10.550   0.789  0.00  0.00    +0.179 C 
ATOM     17  C   UNL     1      -3.780  -9.841   2.107  0.00  0.00    +0.080 C 
ATOM     18  C   UNL     1      -1.524  -4.421  -0.818  0.00  0.00    +0.012 C 
ENDROOT
BRANCH   1  19
ATOM     19  C   UNL     1      -1.531  -1.808  -0.070  0.00  0.00    +0.311 C 
ATOM     20  O   UNL     1      -0.885  -1.704   0.946  0.00  0.00    -0.251 OA
BRANCH  19  21
ATOM     21  O   UNL     1      -1.025  -1.376  -1.235  0.00  0.00    -0.465 OA
BRANCH  21  23
ATOM     22  C   UNL     1       0.688  -0.370  -2.612  0.00  0.00    +0.048 C 
ATOM     23  C   UNL     1       0.283  -0.802  -1.201  0.00  0.00    +0.229 C 
ENDBRANCH  21  23
ENDBRANCH  19  21
ENDBRANCH   1  19
BRANCH  13  24
ATOM     24  C   UNL     1      -5.965  -7.949   1.808  0.00  0.00    +0.316 C 
ATOM     25  O   UNL     1      -6.630  -6.989   2.118  0.00  0.00    -0.250 OA
BRANCH  24  26
ATOM     26  O   UNL     1      -6.398  -9.187   2.095  0.00  0.00    -0.464 OA
BRANCH  26  27
ATOM     27  C   UNL     1      -7.654  -9.295   2.767  0.00  0.00    +0.229 C 
ATOM     28  C   UNL     1      -7.978 -10.771   3.007  0.00  0.00    +0.048 C 
ENDBRANCH  26  27
ENDBRANCH  24  26
ENDBRANCH  13  24
BRANCH  12  29
ATOM     29  O   UNL     1      -2.274  -8.153   1.256  0.00  0.00    -0.387 OA
ATOM     30  H   UNL     1      -1.517  -8.509   1.740  0.00  0.00    +0.210 HD
ENDBRANCH  12  29
BRANCH  16  31
ATOM     31  O   UNL     1      -4.064 -11.946   0.980  0.00  0.00    -0.461 OA
BRANCH  31  32
ATOM     32  C   UNL     1      -3.547 -12.783   0.067  0.00  0.00    +0.304 C 
ATOM     33  O   UNL     1      -2.913 -12.346  -0.864  0.00  0.00    -0.251 OA
ATOM     34  C   UNL     1      -3.759 -14.269   0.202  0.00  0.00    +0.136 C 
ENDBRANCH  31  32
ENDBRANCH  16  31
TORSDOF 9
