REMARK  Name = ZINC16607967
REMARK  10 active torsions:
REMARK  status: ('A' for Active; 'I' for Inactive)
REMARK    1  A    between atoms: C_1  and  C_2
REMARK    2  A    between atoms: C_2  and  C_3
REMARK    3  A    between atoms: C_3  and  C_5
REMARK    4  A    between atoms: C_3  and  C_6
REMARK    5  A    between atoms: C_6  and  C_8
REMARK    6  A    between atoms: C_6  and  N_25
REMARK    7  A    between atoms: C_14  and  C_16
REMARK    8  A    between atoms: C_26  and  C_28
REMARK    9  A    between atoms: C_28  and  C_29
REMARK   10  A    between atoms: C_29  and  C_30
REMARK                            x       y       z     vdW  Elec       q    Type
REMARK                         _______ _______ _______ _____ _____    ______ ____
ROOT
ATOM      1  C   UNL     1       9.251   3.386   1.268  0.00  0.00    +0.239 C 
ATOM      2  O   UNL     1       9.001   4.209   2.124  0.00  0.00    -0.273 OA
ATOM      3  N   UNL     1      10.503   2.903   1.143  0.00  0.00    -0.262 N 
ATOM      4  C   UNL     1      11.483   3.266   2.059  0.00  0.00    +0.188 A 
ATOM      5  N   UNL     1      11.408   4.064   3.117  0.00  0.00    -0.125 NA
ATOM      6  N   UNL     1      12.406   4.291   3.853  0.00  0.00    -0.140 NA
ATOM      7  C   UNL     1      13.592   3.745   3.614  0.00  0.00    +0.134 A 
ATOM      8  S   UNL     1      13.205   2.786   2.152  0.00  0.00    -0.030 S 
ATOM      9  H   UNL     1      10.720   2.301   0.414  0.00  0.00    +0.157 HD
ENDROOT
BRANCH   7  10
ATOM     10  C   UNL     1      14.867   3.883   4.349  0.00  0.00    +0.013 A 
ATOM     11  C   UNL     1      16.005   3.205   3.910  0.00  0.00    +0.014 A 
ATOM     12  C   UNL     1      17.194   3.336   4.597  0.00  0.00    +0.050 A 
ATOM     13  C   UNL     1      17.264   4.141   5.725  0.00  0.00    +0.166 A 
ATOM     14  C   UNL     1      16.130   4.821   6.168  0.00  0.00    +0.167 A 
ATOM     15  C   UNL     1      14.937   4.697   5.481  0.00  0.00    +0.060 A 
ATOM     16  O   UNL     1      16.460   5.535   7.284  0.00  0.00    -0.453 OA
ATOM     17  C   UNL     1      17.898   5.611   7.282  0.00  0.00    +0.466 C 
ATOM     18  O   UNL     1      18.301   4.430   6.564  0.00  0.00    -0.453 OA
ENDBRANCH   7  10
BRANCH   1  19
ATOM     19  C   UNL     1       8.162   2.905   0.345  0.00  0.00    +0.162 C 
BRANCH  19  20
ATOM     20  N   UNL     1       6.864   3.030   1.013  0.00  0.00    -0.304 N 
ATOM     21  C   UNL     1       5.836   2.241   0.643  0.00  0.00    +0.214 C 
ATOM     22  O   UNL     1       5.986   1.427  -0.244  0.00  0.00    -0.276 OA
ATOM     23  H   UNL     1       6.745   3.681   1.723  0.00  0.00    +0.149 HD
BRANCH  21  24
ATOM     24  C   UNL     1       4.502   2.370   1.330  0.00  0.00    +0.096 C 
BRANCH  24  25
ATOM     25  C   UNL     1       3.517   1.367   0.725  0.00  0.00    +0.013 C 
BRANCH  25  26
ATOM     26  C   UNL     1       2.162   1.498   1.423  0.00  0.00    -0.011 C 
ATOM     27  C   UNL     1       1.457   2.814   1.011  0.00  0.00    +0.003 C 
ATOM     28  C   UNL     1      -0.040   2.535   1.257  0.00  0.00    +0.000 C 
ATOM     29  C   UNL     1      -0.217   1.007   1.199  0.00  0.00    +0.000 C 
ATOM     30  C   UNL     1       1.179   0.412   0.921  0.00  0.00    +0.003 C 
ENDBRANCH  25  26
ENDBRANCH  24  25
ENDBRANCH  21  24
ENDBRANCH  19  20
BRANCH  19  31
ATOM     31  C   UNL     1       8.163   3.752  -0.929  0.00  0.00    +0.015 C 
ATOM     32  C   UNL     1       9.468   3.522  -1.694  0.00  0.00    +0.010 C 
BRANCH  31  34
ATOM     33  C   UNL     1       7.919   6.068  -1.834  0.00  0.00    +0.004 C 
ATOM     34  C   UNL     1       8.043   5.231  -0.559  0.00  0.00    +0.002 C 
ENDBRANCH  31  34
ENDBRANCH  19  31
ENDBRANCH   1  19
TORSDOF 8
