REMARK  Name = ZINC33270923
REMARK  10 active torsions:
REMARK  status: ('A' for Active; 'I' for Inactive)
REMARK    1  A    between atoms: C_1  and  C_2
REMARK    2  A    between atoms: C_5  and  C_8
REMARK    3  A    between atoms: C_10  and  S_13
REMARK    4  A    between atoms: S_13  and  C_14
REMARK    5  A    between atoms: C_14  and  C_15
REMARK    6  A    between atoms: C_17  and  C_20
REMARK    7  A    between atoms: C_20  and  C_21
REMARK    8  A    between atoms: C_21  and  C_22
REMARK    9  A    between atoms: N_24  and  C_25
REMARK   10  A    between atoms: C_30  and  C_31
REMARK                            x       y       z     vdW  Elec       q    Type
REMARK                         _______ _______ _______ _____ _____    ______ ____
ROOT
ATOM      1  C   UNL     1       6.342   9.252  -1.167  0.00  0.00    +0.182 A 
ATOM      2  N   UNL     1       5.239   8.581  -1.543  0.00  0.00    -0.195 NA
ATOM      3  C   UNL     1       4.624   8.259  -0.431  0.00  0.00    +0.228 A 
ATOM      4  O   UNL     1       5.360   8.744   0.574  0.00  0.00    -0.338 OA
ATOM      5  N   UNL     1       6.341   9.304   0.132  0.00  0.00    -0.060 NA
ENDROOT
BRANCH   1   6
ATOM      6  C   UNL     1       7.386   9.837  -2.082  0.00  0.00    +0.157 C 
BRANCH   6   7
ATOM      7  S   UNL     1       6.933  11.536  -2.508  0.00  0.00    -0.079 S 
BRANCH   7  10
ATOM      8  C   UNL     1       9.657  13.026  -4.880  0.00  0.00    +0.182 A 
ATOM      9  N   UNL     1       8.476  13.157  -4.186  0.00  0.00    -0.201 NA
ATOM     10  C   UNL     1       8.285  11.961  -3.554  0.00  0.00    +0.185 A 
ATOM     11  N   UNL     1       9.300  11.188  -3.870  0.00  0.00    -0.253 N 
ATOM     12  N   UNL     1      10.108  11.815  -4.647  0.00  0.00    -0.152 NA
ATOM     13  H   UNL     1       9.517  10.152  -3.571  0.00  0.00    +0.191 HD
BRANCH   8  18
ATOM     14  C   UNL     1      12.147  17.029  -8.180  0.00  0.00    +0.044 C 
ATOM     15  C   UNL     1      11.495  15.980  -7.315  0.00  0.00    -0.050 A 
ATOM     16  C   UNL     1      12.089  14.739  -7.172  0.00  0.00    +0.004 A 
ATOM     17  C   UNL     1      11.497  13.775  -6.383  0.00  0.00    +0.012 A 
ATOM     18  C   UNL     1      10.297  14.054  -5.727  0.00  0.00    +0.021 A 
ATOM     19  C   UNL     1       9.700  15.307  -5.880  0.00  0.00    +0.012 A 
ATOM     20  C   UNL     1      10.305  16.264  -6.668  0.00  0.00    +0.004 A 
ENDBRANCH   8  18
ENDBRANCH   7  10
ENDBRANCH   6   7
ENDBRANCH   1   6
BRANCH   3  21
ATOM     21  C   UNL     1       3.331   7.494  -0.308  0.00  0.00    +0.108 C 
BRANCH  21  22
ATOM     22  C   UNL     1       3.631   5.997  -0.218  0.00  0.00    +0.105 C 
BRANCH  22  23
ATOM     23  C   UNL     1       2.338   5.232  -0.095  0.00  0.00    +0.218 C 
ATOM     24  O   UNL     1       1.281   5.826  -0.082  0.00  0.00    -0.275 OA
ATOM     25  N   UNL     1       2.357   3.888  -0.001  0.00  0.00    -0.285 N 
ATOM     26  H   UNL     1       3.316   3.355   0.079  0.00  0.00    +0.155 HD
BRANCH  25  27
ATOM     27  C   UNL     1       1.156   3.170  -0.003  0.00  0.00    +0.038 A 
ATOM     28  C   UNL     1       0.024   3.710  -0.598  0.00  0.00    +0.043 A 
ATOM     29  C   UNL     1      -1.161   2.998  -0.599  0.00  0.00    +0.043 A 
ATOM     30  C   UNL     1      -1.217   1.745  -0.014  0.00  0.00    +0.020 A 
ATOM     31  C   UNL     1      -0.092   1.207   0.583  0.00  0.00    +0.006 A 
ATOM     32  C   UNL     1       1.095   1.915   0.588  0.00  0.00    -0.029 A 
ATOM     33  C   UNL     1       2.322   1.324   1.234  0.00  0.00    +0.045 C 
ATOM     34 CL   UNL     1      -2.577   3.672  -1.343  0.00  0.00    -0.083 Cl
ENDBRANCH  25  27
ENDBRANCH  22  23
ENDBRANCH  21  22
ENDBRANCH   3  21
TORSDOF 8
