REMARK  Name = ZINC39637460
REMARK  5 active torsions:
REMARK  status: ('A' for Active; 'I' for Inactive)
REMARK    1  A    between atoms: C_1  and  C_2
REMARK    2  A    between atoms: C_7  and  N_12
REMARK    3  A    between atoms: C_9  and  C_11
REMARK    4  A    between atoms: C_13  and  C_15
REMARK    5  A    between atoms: C_26  and  C_28
REMARK                            x       y       z     vdW  Elec       q    Type
REMARK                         _______ _______ _______ _____ _____    ______ ____
ROOT
ATOM      1  C   UNL     1       2.352  -4.667   3.039  0.00  0.00    +0.100 C 
ATOM      2  C   UNL     1       3.866  -4.628   3.343  0.00  0.00    +0.121 C 
ATOM      3  N   UNL     1       4.112  -5.829   4.176  0.00  0.00    -0.296 N 
ATOM      4  C   UNL     1       3.259  -6.879   3.570  0.00  0.00    +0.115 C 
ATOM      5  C   UNL     1       1.958  -6.146   3.188  0.00  0.00    -0.004 C 
ATOM      6  C   UNL     1       1.418  -6.685   1.867  0.00  0.00    -0.010 C 
ATOM      7  C   UNL     1       0.978  -8.140   2.055  0.00  0.00    -0.082 C 
ATOM      8  N   UNL     1      -0.056  -8.210   3.094  0.00  0.00    +0.379 N 
ATOM      9  C   UNL     1       0.499  -7.778   4.383  0.00  0.00    -0.082 C 
ATOM     10  C   UNL     1       0.918  -6.308   4.293  0.00  0.00    -0.010 C 
ATOM     11  C   UNL     1       4.928  -5.941   5.243  0.00  0.00    +0.248 C 
ATOM     12  O   UNL     1       5.466  -4.953   5.704  0.00  0.00    -0.270 OA
ATOM     13  H   UNL     1      -0.826  -7.608   2.842  0.00  0.00    -0.086 HD
ATOM     14  H   UNL     1      -0.387  -9.160   3.173  0.00  0.00    -0.086 HD
ENDROOT
BRANCH  11  15
ATOM     15  C   UNL     1       5.167  -7.263   5.853  0.00  0.00    +0.055 A 
ATOM     16  C   UNL     1       4.906  -8.438   5.131  0.00  0.00    +0.018 A 
ATOM     17  C   UNL     1       5.143  -9.642   5.736  0.00  0.00    +0.044 A 
ATOM     18  C   UNL     1       5.630  -9.667   7.042  0.00  0.00    +0.121 A 
ATOM     19  N   UNL     1       5.867  -8.542   7.703  0.00  0.00    -0.240 NA
ATOM     20  C   UNL     1       5.660  -7.363   7.155  0.00  0.00    +0.126 A 
ATOM     21  N   UNL     1       5.870 -10.884   7.657  0.00  0.00    -0.311 N 
ATOM     22  C   UNL     1       6.599 -10.957   8.934  0.00  0.00    +0.134 C 
ATOM     23  C   UNL     1       5.780 -11.809   9.910  0.00  0.00    +0.178 C 
ATOM     24  O   UNL     1       5.459 -13.057   9.291  0.00  0.00    -0.377 OA
ATOM     25  C   UNL     1       4.644 -12.938   8.123  0.00  0.00    +0.178 C 
ATOM     26  C   UNL     1       5.399 -12.143   7.058  0.00  0.00    +0.134 C 
ENDBRANCH  11  15
BRANCH   1  28
ATOM     27  N   UNL     1       0.936  -3.550   1.346  0.00  0.00    -0.312 N 
ATOM     28  C   UNL     1       2.086  -4.192   1.634  0.00  0.00    +0.218 C 
ATOM     29  O   UNL     1       2.906  -4.388   0.763  0.00  0.00    -0.275 OA
ATOM     30  H   UNL     1       0.280  -3.394   2.043  0.00  0.00    +0.149 HD
BRANCH  27  36
ATOM     31  C   UNL     1      -2.611  -2.388  -1.896  0.00  0.00    +0.008 C 
ATOM     32  C   UNL     1      -1.101  -2.497  -1.671  0.00  0.00    -0.009 C 
ATOM     33  C   UNL     1      -0.455  -1.125  -1.877  0.00  0.00    +0.003 C 
ATOM     34  C   UNL     1       1.054  -1.234  -1.652  0.00  0.00    +0.002 C 
ATOM     35  C   UNL     1       1.324  -1.717  -0.225  0.00  0.00    +0.022 C 
ATOM     36  C   UNL     1       0.678  -3.088  -0.020  0.00  0.00    +0.076 C 
ATOM     37  C   UNL     1      -0.832  -2.979  -0.244  0.00  0.00    +0.009 C 
ATOM     38  C   UNL     1      -1.478  -4.351  -0.039  0.00  0.00    +0.009 C 
ENDBRANCH  27  36
ENDBRANCH   1  28
TORSDOF 3
