REMARK  Name = ZINC49009591
REMARK  6 active torsions:
REMARK  status: ('A' for Active; 'I' for Inactive)
REMARK    1  A    between atoms: C_1  and  C_2
REMARK    2  A    between atoms: C_7  and  N_10
REMARK    3  A    between atoms: N_10  and  C_11
REMARK    4  A    between atoms: N_10  and  S_12
REMARK    5  A    between atoms: S_12  and  C_15
REMARK    6  A    between atoms: C_18  and  N_22
REMARK                            x       y       z     vdW  Elec       q    Type
REMARK                         _______ _______ _______ _____ _____    ______ ____
ROOT
ATOM      1  S   UNL     1       2.829  -3.459   2.250  0.00  0.00    +0.064 S 
ATOM      2  O   UNL     1       2.956  -4.213   3.448  0.00  0.00    -0.153 OA
ATOM      3  O   UNL     1       2.744  -4.070   0.970  0.00  0.00    -0.153 OA
ENDROOT
BRANCH   1   4
ATOM      4  C   UNL     1       4.209  -2.365   2.195  0.00  0.00    +0.142 A 
ATOM      5  C   UNL     1       4.644  -1.863   0.981  0.00  0.00    +0.070 A 
ATOM      6  C   UNL     1       5.727  -1.004   0.935  0.00  0.00    +0.044 A 
ATOM      7  C   UNL     1       6.378  -0.645   2.108  0.00  0.00    +0.027 A 
ATOM      8  C   UNL     1       5.938  -1.151   3.325  0.00  0.00    +0.044 A 
ATOM      9  C   UNL     1       4.852  -2.005   3.366  0.00  0.00    +0.070 A 
ATOM     10 CL   UNL     1       4.298  -2.631   4.888  0.00  0.00    -0.081 Cl
ATOM     11 CL   UNL     1       3.831  -2.312  -0.485  0.00  0.00    -0.081 Cl
BRANCH   7  12
ATOM     12  N   UNL     1       7.472   0.221   2.065  0.00  0.00    -0.358 N 
ATOM     13  H   UNL     1       7.778   0.573   1.214  0.00  0.00    +0.142 HD
ATOM     14  H   UNL     1       7.926   0.471   2.885  0.00  0.00    +0.142 HD
ENDBRANCH   7  12
ENDBRANCH   1   4
BRANCH   1  15
ATOM     15  N   UNL     1       1.471  -2.526   2.420  0.00  0.00    -0.176 NA
ATOM     16  C   UNL     1       0.979  -2.186   3.757  0.00  0.00    +0.132 C 
BRANCH  15  22
ATOM     17  C   UNL     1      -0.019   1.526   0.010  0.00  0.00    +0.007 C 
ATOM     18  C   UNL     1       0.002  -0.004   0.002  0.00  0.00    -0.013 C 
ATOM     19  C   UNL     1      -1.433  -0.534   0.013  0.00  0.00    +0.003 C 
ATOM     20  C   UNL     1      -1.413  -2.063   0.004  0.00  0.00    +0.002 C 
ATOM     21  C   UNL     1      -0.673  -2.570   1.244  0.00  0.00    +0.020 C 
ATOM     22  C   UNL     1       0.763  -2.041   1.233  0.00  0.00    +0.080 C 
ATOM     23  C   UNL     1       0.742  -0.511   1.242  0.00  0.00    +0.024 C 
ENDBRANCH  15  22
ENDBRANCH   1  15
TORSDOF 4
