REMARK  Name = ZINC24860360
REMARK  8 active torsions:
REMARK  status: ('A' for Active; 'I' for Inactive)
REMARK    1  A    between atoms: C_1  and  C_2
REMARK    2  A    between atoms: C_4  and  N_28
REMARK    3  A    between atoms: C_7  and  N_8
REMARK    4  A    between atoms: C_9  and  C_11
REMARK    5  A    between atoms: C_11  and  N_12
REMARK    6  A    between atoms: C_17  and  C_24
REMARK    7  A    between atoms: C_20  and  C_22
REMARK    8  A    between atoms: C_20  and  C_23
REMARK                            x       y       z     vdW  Elec       q    Type
REMARK                         _______ _______ _______ _____ _____    ______ ____
ROOT
ATOM      1  C   UNL     1      -4.955   1.528  -1.191  0.00  0.00    +0.214 C 
ENDROOT
BRANCH   1   2
ATOM      2  N   UNL     1      -6.336   1.967  -0.979  0.00  0.00    -0.215 N 
ATOM      3  C   UNL     1      -7.293   1.213  -0.395  0.00  0.00    +0.247 C 
ATOM      4  O   UNL     1      -7.127   0.140   0.144  0.00  0.00    -0.273 OA
ATOM      5  C   UNL     1      -8.574   1.998  -0.536  0.00  0.00    +0.113 C 
ATOM      6  C   UNL     1      -9.242   2.190   0.818  0.00  0.00    +0.038 C 
ATOM      7  C   UNL     1      -9.875   0.877   1.281  0.00  0.00    -0.011 C 
ATOM      8  C   UNL     1     -10.954   0.475   0.278  0.00  0.00    +0.009 C 
ATOM      9  C   UNL     1     -10.353   0.234  -1.102  0.00  0.00    -0.032 C 
ATOM     10  C   UNL     1      -9.499   1.397  -1.576  0.00  0.00    +0.041 C 
ATOM     11  C   UNL     1     -11.518   0.059  -2.099  0.00  0.00    +0.011 C 
ATOM     12  C   UNL     1      -9.546  -1.067  -1.105  0.00  0.00    +0.011 C 
ATOM     13  C   UNL     1     -10.513   1.081   2.659  0.00  0.00    +0.007 C 
ATOM     14  N   UNL     1      -8.109   3.315  -1.026  0.00  0.00    -0.285 N 
ATOM     15  C   UNL     1      -6.804   3.175  -1.315  0.00  0.00    +0.310 C 
ATOM     16  O   UNL     1      -6.124   4.045  -1.824  0.00  0.00    -0.252 OA
ATOM     17  H   UNL     1      -8.812   4.159  -1.088  0.00  0.00    +0.151 HD
ENDBRANCH   1   2
BRANCH   1  19
ATOM     18  N   UNL     1      -2.817   1.558   0.051  0.00  0.00    -0.284 N 
ATOM     19  C   UNL     1      -4.127   1.870   0.020  0.00  0.00    +0.235 C 
ATOM     20  O   UNL     1      -4.641   2.427   0.968  0.00  0.00    -0.274 OA
ATOM     21  H   UNL     1      -2.330   1.138  -0.842  0.00  0.00    +0.155 HD
BRANCH  18  28
ATOM     22  C   UNL     1      -0.087   2.311  -0.212  0.00  0.00    +0.046 C 
ATOM     23  C   UNL     1      -0.737   2.137   1.137  0.00  0.00    -0.028 A 
ATOM     24  C   UNL     1      -0.006   2.351   2.288  0.00  0.00    +0.028 A 
ATOM     25  C   UNL     1      -0.606   2.191   3.531  0.00  0.00    +0.030 A 
ATOM     26  C   UNL     1      -1.941   1.817   3.614  0.00  0.00    +0.025 A 
ATOM     27  C   UNL     1      -2.672   1.604   2.463  0.00  0.00    +0.025 A 
ATOM     28  C   UNL     1      -2.073   1.769   1.220  0.00  0.00    +0.036 A 
BRANCH  25  29
ATOM     29  N   UNL     1       0.135   2.406   4.698  0.00  0.00    -0.330 N 
ATOM     30  C   UNL     1       1.263   1.446   4.797  0.00  0.00    +0.105 C 
ATOM     31  C   UNL     1       2.230   2.136   5.792  0.00  0.00    +0.020 C 
ATOM     32  C   UNL     1       2.106   3.630   5.414  0.00  0.00    +0.020 C 
ATOM     33  C   UNL     1       0.750   3.752   4.694  0.00  0.00    +0.105 C 
ENDBRANCH  25  29
ENDBRANCH  18  28
ENDBRANCH   1  19
TORSDOF 4
