REMARK  Name = ZINC36063044
REMARK  13 active torsions:
REMARK  status: ('A' for Active; 'I' for Inactive)
REMARK    1  A    between atoms: C_1  and  C_2
REMARK    2  A    between atoms: C_2  and  N_3
REMARK    3  A    between atoms: N_3  and  C_4
REMARK    4  A    between atoms: N_3  and  C_6
REMARK    5  A    between atoms: C_4  and  C_5
REMARK    6  A    between atoms: C_6  and  C_8
REMARK    7  A    between atoms: C_6  and  C_28
REMARK    8  A    between atoms: C_8  and  N_9
REMARK    9  A    between atoms: C_10  and  C_12
REMARK   10  A    between atoms: C_12  and  N_13
REMARK   11  A    between atoms: C_16  and  C_20
REMARK   12  A    between atoms: C_16  and  C_21
REMARK   13  A    between atoms: C_24  and  C_27
REMARK                            x       y       z     vdW  Elec       q    Type
REMARK                         _______ _______ _______ _____ _____    ______ ____
ROOT
ATOM      1  N   UNL     1       0.195  -2.380  -1.895  0.00  0.00    -0.315 N 
ATOM      2  C   UNL     1       0.696  -3.425  -1.207  0.00  0.00    +0.231 C 
ATOM      3  O   UNL     1       1.614  -3.257  -0.432  0.00  0.00    -0.274 OA
ATOM      4  H   UNL     1      -0.585  -2.499  -2.459  0.00  0.00    +0.149 HD
ENDROOT
BRANCH   1   5
ATOM      5  C   UNL     1       0.829  -1.063  -1.790  0.00  0.00    +0.093 C 
BRANCH   5   6
ATOM      6  C   UNL     1      -0.009  -0.032  -2.548  0.00  0.00    -0.020 C 
BRANCH   6   7
ATOM      7  C   UNL     1       0.575   1.342  -2.339  0.00  0.00    -0.059 A 
ATOM      8  C   UNL     1       1.902   1.481  -1.977  0.00  0.00    +0.002 A 
ATOM      9  C   UNL     1       2.438   2.741  -1.786  0.00  0.00    +0.000 A 
ATOM     10  C   UNL     1       1.647   3.861  -1.957  0.00  0.00    +0.000 A 
ATOM     11  C   UNL     1       0.321   3.723  -2.320  0.00  0.00    +0.000 A 
ATOM     12  C   UNL     1      -0.214   2.463  -2.516  0.00  0.00    +0.002 A 
ENDBRANCH   6   7
BRANCH   6  13
ATOM     13  N   UNL     1      -1.389  -0.058  -2.045  0.00  0.00    +0.385 N 
ATOM     14  H   UNL     1      -1.627  -0.997  -1.764  0.00  0.00    -0.081 HD
BRANCH  13  16
ATOM     15  C   UNL     1      -0.497   0.435   0.181  0.00  0.00    -0.017 C 
ATOM     16  C   UNL     1      -1.508   0.844  -0.892  0.00  0.00    -0.081 C 
ENDBRANCH  13  16
BRANCH  13  17
ATOM     17  C   UNL     1      -2.305   0.381  -3.107  0.00  0.00    -0.081 C 
ATOM     18  C   UNL     1      -2.342  -0.672  -4.216  0.00  0.00    -0.017 C 
ENDBRANCH  13  17
ENDBRANCH   6  13
ENDBRANCH   5   6
ENDBRANCH   1   5
BRANCH   2  19
ATOM     19  C   UNL     1       0.115  -4.802  -1.400  0.00  0.00    +0.213 C 
BRANCH  19  20
ATOM     20  N   UNL     1       0.743  -5.734  -0.460  0.00  0.00    -0.215 N 
ATOM     21  C   UNL     1       1.860  -6.438  -0.726  0.00  0.00    +0.251 C 
ATOM     22  O   UNL     1       2.510  -6.422  -1.749  0.00  0.00    -0.272 OA
ATOM     23  C   UNL     1       2.136  -7.256   0.520  0.00  0.00    +0.135 C 
ATOM     24  N   UNL     1       1.038  -6.881   1.429  0.00  0.00    -0.281 N 
ATOM     25  C   UNL     1       0.282  -5.985   0.770  0.00  0.00    +0.310 C 
ATOM     26  O   UNL     1      -0.712  -5.465   1.238  0.00  0.00    -0.252 OA
ATOM     27  C   UNL     1       2.086  -8.752   0.205  0.00  0.00    +0.047 C 
ATOM     28  H   UNL     1       0.892  -7.213   2.329  0.00  0.00    +0.152 HD
BRANCH  23  29
ATOM     29  C   UNL     1       3.469  -6.882   1.116  0.00  0.00    -0.015 A 
ATOM     30  C   UNL     1       4.488  -6.430   0.299  0.00  0.00    +0.006 A 
ATOM     31  C   UNL     1       5.711  -6.087   0.846  0.00  0.00    +0.004 A 
ATOM     32  C   UNL     1       5.913  -6.195   2.209  0.00  0.00    -0.050 A 
ATOM     33  C   UNL     1       4.894  -6.646   3.026  0.00  0.00    +0.004 A 
ATOM     34  C   UNL     1       3.670  -6.985   2.480  0.00  0.00    +0.006 A 
ATOM     35  C   UNL     1       7.247  -5.822   2.804  0.00  0.00    +0.044 C 
ENDBRANCH  23  29
ENDBRANCH  19  20
ENDBRANCH   2  19
TORSDOF 9
