REMARK  Name = ZINC14744780
REMARK  12 active torsions:
REMARK  status: ('A' for Active; 'I' for Inactive)
REMARK    1  A    between atoms: C_1  and  C_2
REMARK    2  A    between atoms: C_2  and  C_3
REMARK    3  A    between atoms: C_3  and  C_4
REMARK    4  A    between atoms: C_4  and  C_5
REMARK    5  A    between atoms: C_8  and  C_11
REMARK    6  A    between atoms: C_11  and  N_12
REMARK    7  A    between atoms: N_20  and  C_34
REMARK    8  A    between atoms: N_23  and  C_24
REMARK    9  A    between atoms: C_24  and  C_25
REMARK   10  A    between atoms: C_25  and  C_26
REMARK   11  A    between atoms: C_29  and  O_32
REMARK   12  A    between atoms: O_32  and  C_33
REMARK                            x       y       z     vdW  Elec       q    Type
REMARK                         _______ _______ _______ _____ _____    ______ ____
ROOT
ATOM      1  N   UNL     1       1.174  -3.160  -7.024  0.00  0.00    +0.384 N 
ATOM      2  C   UNL     1       1.457  -4.506  -6.512  0.00  0.00    -0.076 C 
ATOM      3  C   UNL     1       0.316  -5.452  -6.899  0.00  0.00    +0.017 C 
ATOM      4  C   UNL     1       0.180  -5.481  -8.418  0.00  0.00    +0.112 C 
ATOM      5  C   UNL     1      -0.017  -4.070  -8.963  0.00  0.00    +0.017 C 
ATOM      6  C   UNL     1       1.138  -3.180  -8.491  0.00  0.00    -0.076 C 
ATOM      7  C   UNL     1      -0.968  -6.372  -8.830  0.00  0.00    +0.246 C 
ATOM      8  O   UNL     1      -2.140  -6.236  -8.550  0.00  0.00    -0.273 OA
ATOM      9  N   UNL     1      -0.415  -7.351  -9.575  0.00  0.00    -0.227 N 
ATOM     10  C   UNL     1       0.911  -7.198  -9.686  0.00  0.00    +0.312 C 
ATOM     11  O   UNL     1       1.629  -7.955 -10.308  0.00  0.00    -0.252 OA
ATOM     12  N   UNL     1       1.358  -6.110  -9.029  0.00  0.00    -0.271 N 
ATOM     13  C   UNL     1      -1.170  -8.448 -10.186  0.00  0.00    +0.143 C 
ATOM     14  H   UNL     1       0.282  -2.849  -6.671  0.00  0.00    -0.081 HD
ENDROOT
BRANCH   1  15
ATOM     15  C   UNL     1       2.225  -2.237  -6.575  0.00  0.00    -0.021 C 
BRANCH  15  19
ATOM     16  C   UNL     1       1.629  -1.462  -3.095  0.00  0.00    +0.107 A 
ATOM     17  N   UNL     1       1.399  -1.293  -4.368  0.00  0.00    -0.239 NA
ATOM     18  H   UNL     1       2.949  -2.730  -2.111  0.00  0.00    +0.166 HD
ATOM     19  C   UNL     1       2.184  -2.120  -5.073  0.00  0.00    +0.043 A 
ATOM     20  C   UNL     1       2.929  -2.829  -4.204  0.00  0.00    +0.105 A 
ATOM     21  N   UNL     1       2.581  -2.408  -2.949  0.00  0.00    -0.348 N 
BRANCH  16  22
ATOM     22  C   UNL     1       0.948  -0.720  -1.973  0.00  0.00    +0.074 C 
BRANCH  22  23
ATOM     23  C   UNL     1       1.109   0.786  -2.187  0.00  0.00    +0.007 C 
BRANCH  23  25
ATOM     24  C   UNL     1       0.579   3.046  -1.262  0.00  0.00    +0.004 C 
ATOM     25  C   UNL     1       0.418   1.540  -1.049  0.00  0.00    -0.003 C 
ENDBRANCH  23  25
ENDBRANCH  22  23
ENDBRANCH  16  22
ENDBRANCH  15  19
ENDBRANCH   1  15
BRANCH  12  26
ATOM     26  C   UNL     1       2.745  -5.646  -8.943  0.00  0.00    +0.115 C 
BRANCH  26  27
ATOM     27  C   UNL     1       3.222  -5.203 -10.327  0.00  0.00    +0.054 C 
BRANCH  27  28
ATOM     28  C   UNL     1       4.636  -4.691 -10.231  0.00  0.00    -0.046 A 
ATOM     29  C   UNL     1       4.869  -3.353  -9.972  0.00  0.00    +0.007 A 
ATOM     30  C   UNL     1       6.164  -2.880  -9.884  0.00  0.00    +0.046 A 
ATOM     31  C   UNL     1       7.231  -3.749 -10.056  0.00  0.00    +0.120 A 
ATOM     32  C   UNL     1       6.995  -5.091 -10.315  0.00  0.00    +0.046 A 
ATOM     33  C   UNL     1       5.698  -5.560 -10.397  0.00  0.00    +0.007 A 
BRANCH  31  34
ATOM     34  O   UNL     1       8.506  -3.286  -9.970  0.00  0.00    -0.495 OA
ATOM     35  C   UNL     1       9.556  -4.238 -10.158  0.00  0.00    +0.277 C 
ENDBRANCH  31  34
ENDBRANCH  27  28
ENDBRANCH  26  27
ENDBRANCH  12  26
TORSDOF 9
