REMARK  Name = ZINC04538374
REMARK  8 active torsions:
REMARK  status: ('A' for Active; 'I' for Inactive)
REMARK    1  A    between atoms: C_3  and  C_6
REMARK    2  A    between atoms: C_9  and  S_12
REMARK    3  A    between atoms: N_10  and  N_11
REMARK    4  A    between atoms: S_12  and  C_13
REMARK    5  A    between atoms: C_13  and  C_14
REMARK    6  A    between atoms: N_16  and  C_17
REMARK    7  A    between atoms: C_20  and  S_23
REMARK    8  A    between atoms: S_23  and  C_24
REMARK                            x       y       z     vdW  Elec       q    Type
REMARK                         _______ _______ _______ _____ _____    ______ ____
ROOT
ATOM      1  C   UNL     1       2.414  -4.244  -0.256  0.00  0.00    +0.173 C 
ENDROOT
BRANCH   1   2
ATOM      2  C   UNL     1       2.403  -2.741  -0.136  0.00  0.00    +0.227 C 
ATOM      3  O   UNL     1       3.447  -2.124  -0.143  0.00  0.00    -0.275 OA
ATOM      4  N   UNL     1       1.232  -2.083  -0.019  0.00  0.00    -0.285 N 
ATOM      5  H   UNL     1       0.403  -2.580   0.063  0.00  0.00    +0.155 HD
BRANCH   4   6
ATOM      6  C   UNL     1       1.213  -0.682  -0.018  0.00  0.00    +0.033 A 
ATOM      7  C   UNL     1       2.139   0.025  -0.775  0.00  0.00    +0.024 A 
ATOM      8  C   UNL     1       2.119   1.405  -0.775  0.00  0.00    +0.017 A 
ATOM      9  C   UNL     1       1.175   2.087  -0.018  0.00  0.00    +0.013 A 
ATOM     10  C   UNL     1       0.249   1.379   0.739  0.00  0.00    +0.017 A 
ATOM     11  C   UNL     1       0.269  -0.001   0.738  0.00  0.00    +0.024 A 
BRANCH   9  12
ATOM     12  S   UNL     1       1.150   3.849  -0.017  0.00  0.00    -0.056 S 
BRANCH  12  13
ATOM     13  C   UNL     1      -0.224   4.268   1.091  0.00  0.00    +0.404 C 
ATOM     14  F   UNL     1      -1.411   3.725   0.587  0.00  0.00    -0.197 F 
ATOM     15  F   UNL     1       0.026   3.744   2.363  0.00  0.00    -0.197 F 
ENDBRANCH  12  13
ENDBRANCH   9  12
ENDBRANCH   4   6
ENDBRANCH   1   2
BRANCH   1  16
ATOM     16  S   UNL     1       4.123  -4.825  -0.395  0.00  0.00    -0.075 S 
BRANCH  16  20
ATOM     17  C   UNL     1       4.121  -8.721  -0.707  0.00  0.00    +0.217 A 
ATOM     18  N   UNL     1       2.841  -8.437  -0.615  0.00  0.00    -0.123 NA
ATOM     19  N   UNL     1       2.680  -7.167  -0.505  0.00  0.00    -0.120 NA
ATOM     20  C   UNL     1       3.846  -6.561  -0.519  0.00  0.00    +0.209 A 
ATOM     21  N   UNL     1       4.804  -7.526  -0.654  0.00  0.00    -0.221 N 
BRANCH  17  24
ATOM     22  C   UNL     1       4.995 -12.238  -1.202  0.00  0.00    +0.042 A 
ATOM     23  C   UNL     1       4.043 -11.200  -1.183  0.00  0.00    +0.053 A 
ATOM     24  C   UNL     1       4.712 -10.061  -0.847  0.00  0.00    +0.173 A 
ATOM     25  O   UNL     1       6.009 -10.378  -0.658  0.00  0.00    -0.460 OA
ATOM     26  C   UNL     1       6.182 -11.693  -0.872  0.00  0.00    +0.196 A 
ENDBRANCH  17  24
BRANCH  21  27
ATOM     27  N   UNL     1       6.157  -7.344  -0.719  0.00  0.00    -0.294 N 
ATOM     28  H   UNL     1       6.570  -7.372   0.202  0.00  0.00    +0.163 HD
ATOM     29  H   UNL     1       6.584  -8.025  -1.328  0.00  0.00    +0.163 HD
ENDBRANCH  21  27
ENDBRANCH  16  20
ENDBRANCH   1  16
TORSDOF 8
