REMARK  Name = ZINC61089461
REMARK  5 active torsions:
REMARK  status: ('A' for Active; 'I' for Inactive)
REMARK    1  A    between atoms: C_1  and  C_2
REMARK    2  A    between atoms: C_8  and  O_10
REMARK    3  A    between atoms: O_10  and  C_11
REMARK    4  A    between atoms: C_11  and  C_13
REMARK    5  A    between atoms: C_15  and  N_21
REMARK                            x       y       z     vdW  Elec       q    Type
REMARK                         _______ _______ _______ _____ _____    ______ ____
ROOT
ATOM      1  C   UNL     1       0.210   0.634   4.761  0.00  0.00    +0.075 A 
ATOM      2  C   UNL     1      -1.167   0.864   4.815  0.00  0.00    +0.041 A 
ATOM      3  C   UNL     1      -1.745   1.310   5.991  0.00  0.00    +0.061 A 
ATOM      4  C   UNL     1      -0.954   1.529   7.117  0.00  0.00    +0.145 A 
ATOM      5  C   UNL     1       0.411   1.302   7.064  0.00  0.00    +0.056 A 
ATOM      6  C   UNL     1       0.995   0.851   5.897  0.00  0.00    +0.035 A 
ATOM      7 BR   UNL     1       2.858   0.533   5.833  0.00  0.00    -0.049 Br
ATOM      8  F   UNL     1      -1.520   1.965   8.263  0.00  0.00    -0.204 F 
ENDROOT
BRANCH   3   9
ATOM      9  N   UNL     1      -3.123   1.542   6.049  0.00  0.00    -0.356 N 
ATOM     10  H   UNL     1      -3.674   1.390   5.266  0.00  0.00    +0.142 HD
ATOM     11  H   UNL     1      -3.528   1.855   6.873  0.00  0.00    +0.142 HD
ENDBRANCH   3   9
BRANCH   1  12
ATOM     12  C   UNL     1       0.832   0.158   3.511  0.00  0.00    +0.341 C 
ATOM     13  O   UNL     1       2.029  -0.046   3.468  0.00  0.00    -0.245 OA
BRANCH  12  14
ATOM     14  O   UNL     1       0.073  -0.050   2.417  0.00  0.00    -0.458 OA
BRANCH  14  21
ATOM     15  C   UNL     1      -0.019   1.526   0.010  0.00  0.00    +0.011 C 
ATOM     16  C   UNL     1       0.002  -0.004   0.002  0.00  0.00    +0.027 C 
ATOM     17  C   UNL     1      -1.433  -0.534   0.013  0.00  0.00    +0.007 C 
ATOM     18  C   UNL     1      -1.413  -2.063   0.004  0.00  0.00    +0.000 C 
ATOM     19  C   UNL     1      -0.673  -2.570   1.244  0.00  0.00    +0.004 C 
ATOM     20  C   UNL     1       0.763  -2.041   1.233  0.00  0.00    +0.045 C 
ATOM     21  C   UNL     1       0.742  -0.511   1.242  0.00  0.00    +0.180 C 
ENDBRANCH  14  21
ENDBRANCH  12  14
ENDBRANCH   1  12
TORSDOF 4
