REMARK  Name = ZINC06437861
REMARK  4 active torsions:
REMARK  status: ('A' for Active; 'I' for Inactive)
REMARK    1  A    between atoms: C_1  and  C_2
REMARK    2  A    between atoms: C_11  and  N_15
REMARK    3  A    between atoms: N_15  and  N_16
REMARK    4  A    between atoms: C_17  and  C_18
REMARK                            x       y       z     vdW  Elec       q    Type
REMARK                         _______ _______ _______ _____ _____    ______ ____
ROOT
ATOM      1  C   UNL     1      -6.653   0.263  -1.071  0.00  0.00    +0.008 C 
ATOM      2  C   UNL     1      -5.183   0.679  -1.141  0.00  0.00    -0.009 C 
ATOM      3  C   UNL     1      -4.358  -0.183  -0.180  0.00  0.00    +0.008 C 
ATOM      4  C   UNL     1      -2.867   0.049  -0.424  0.00  0.00    +0.037 C 
ATOM      5  C   UNL     1      -2.586   1.548  -0.370  0.00  0.00    -0.025 A 
ATOM      6  C   UNL     1      -3.586   2.442  -0.510  0.00  0.00    -0.004 A 
ATOM      7  S   UNL     1      -2.811   4.030  -0.368  0.00  0.00    -0.073 S 
ATOM      8  C   UNL     1      -1.137   3.490  -0.135  0.00  0.00    +0.114 A 
ATOM      9  C   UNL     1      -1.240   2.084  -0.166  0.00  0.00    +0.052 A 
ATOM     10  C   UNL     1      -0.017   1.379   0.010  0.00  0.00    +0.150 A 
ATOM     11  N   UNL     1       1.104   2.064   0.175  0.00  0.00    -0.219 NA
ATOM     12  C   UNL     1       1.126   3.385   0.188  0.00  0.00    +0.224 A 
ATOM     13  N   UNL     1       0.023   4.093   0.035  0.00  0.00    -0.228 NA
ATOM     14  C   UNL     1      -5.040   2.151  -0.728  0.00  0.00    +0.046 C 
ENDROOT
BRANCH  10  15
ATOM     15  N   UNL     1       0.002  -0.004   0.002  0.00  0.00    -0.220 N 
ATOM     16  H   UNL     1      -0.756  -0.497  -0.348  0.00  0.00    +0.176 HD
BRANCH  15  17
ATOM     17  N   UNL     1       1.116  -0.692   0.500  0.00  0.00    -0.189 NA
ATOM     18  C   UNL     1       1.133  -1.990   0.493  0.00  0.00    +0.138 C 
BRANCH  18  19
ATOM     19  C   UNL     1       2.306  -2.715   1.018  0.00  0.00    -0.005 A 
ATOM     20  C   UNL     1       3.402  -2.007   1.518  0.00  0.00    +0.011 A 
ATOM     21  C   UNL     1       4.493  -2.691   2.012  0.00  0.00    +0.020 A 
ATOM     22  C   UNL     1       4.508  -4.075   2.003  0.00  0.00    +0.041 A 
ATOM     23  C   UNL     1       3.428  -4.783   1.504  0.00  0.00    +0.020 A 
ATOM     24  C   UNL     1       2.328  -4.111   1.012  0.00  0.00    +0.011 A 
ATOM     25 CL   UNL     1       5.888  -4.928   2.621  0.00  0.00    -0.084 Cl
ENDBRANCH  18  19
ENDBRANCH  15  17
ENDBRANCH  10  15
TORSDOF 3
