REMARK  Name = ZINC64892399
REMARK  5 active torsions:
REMARK  status: ('A' for Active; 'I' for Inactive)
REMARK    1  A    between atoms: C_1  and  C_2
REMARK    2  A    between atoms: N_5  and  S_8
REMARK    3  A    between atoms: S_8  and  C_11
REMARK    4  A    between atoms: C_14  and  C_16
REMARK    5  A    between atoms: N_18  and  C_19
REMARK                            x       y       z     vdW  Elec       q    Type
REMARK                         _______ _______ _______ _____ _____    ______ ____
ROOT
ATOM      1  C   UNL     1      -0.808  -5.279   1.533  0.00  0.00    +0.143 A 
ATOM      2  C   UNL     1       0.301  -6.025   1.757  0.00  0.00    +0.037 A 
ATOM      3  C   UNL     1       0.414  -7.254   1.151  0.00  0.00    +0.023 A 
ATOM      4  C   UNL     1      -0.648  -7.626   0.342  0.00  0.00    +0.076 A 
ATOM      5  S   UNL     1      -1.736  -6.222   0.498  0.00  0.00    -0.064 S 
ENDROOT
BRANCH   4   6
ATOM      6  C   UNL     1      -0.832  -8.856  -0.434  0.00  0.00    +0.255 C 
ATOM      7  O   UNL     1       0.025  -9.720  -0.417  0.00  0.00    -0.269 OA
ATOM      8  N   UNL     1      -1.950  -9.030  -1.166  0.00  0.00    -0.281 N 
ATOM      9  H   UNL     1      -2.662  -8.372  -1.128  0.00  0.00    +0.155 HD
BRANCH   8  10
ATOM     10  C   UNL     1      -2.084 -10.158  -1.980  0.00  0.00    +0.037 A 
ATOM     11  C   UNL     1      -1.546 -11.370  -1.573  0.00  0.00    +0.023 A 
ATOM     12  C   UNL     1      -1.679 -12.483  -2.380  0.00  0.00    +0.002 A 
ATOM     13  C   UNL     1      -2.343 -12.382  -3.586  0.00  0.00    +0.004 A 
ATOM     14  C   UNL     1      -2.882 -11.170  -3.999  0.00  0.00    -0.042 A 
ATOM     15  C   UNL     1      -2.762 -10.060  -3.196  0.00  0.00    -0.023 A 
ATOM     16  C   UNL     1      -3.341  -8.721  -3.570  0.00  0.00    +0.037 C 
ATOM     17  C   UNL     1      -3.653  -8.669  -5.064  0.00  0.00    +0.005 C 
ATOM     18  C   UNL     1      -4.489  -9.903  -5.426  0.00  0.00    +0.005 C 
ATOM     19  C   UNL     1      -3.586 -11.134  -5.331  0.00  0.00    +0.035 C 
ENDBRANCH   8  10
ENDBRANCH   4   6
BRANCH   1  20
ATOM     20  S   UNL     1      -1.192  -3.687   2.183  0.00  0.00    +0.067 S 
ATOM     21  O   UNL     1      -0.441  -3.546   3.381  0.00  0.00    -0.152 OA
ATOM     22  O   UNL     1      -2.607  -3.566   2.152  0.00  0.00    -0.152 OA
BRANCH  20  27
ATOM     23  C   UNL     1      -0.047   1.523   0.080  0.00  0.00    +0.007 C 
ATOM     24  C   UNL     1      -0.022  -0.007   0.062  0.00  0.00    -0.012 C 
ATOM     25  C   UNL     1      -1.457  -0.540   0.066  0.00  0.00    +0.020 C 
ATOM     26  C   UNL     1      -1.429  -2.071   0.012  0.00  0.00    +0.110 C 
ATOM     27  N   UNL     1      -0.598  -2.567   1.118  0.00  0.00    -0.176 NA
ATOM     28  C   UNL     1       0.770  -2.050   1.260  0.00  0.00    +0.110 C 
ATOM     29  C   UNL     1       0.717  -0.519   1.300  0.00  0.00    +0.020 C 
ENDBRANCH  20  27
ENDBRANCH   1  20
TORSDOF 4
