REMARK  Name = ZINC08636549
REMARK  10 active torsions:
REMARK  status: ('A' for Active; 'I' for Inactive)
REMARK    1  A    between atoms: C_1  and  C_2
REMARK    2  A    between atoms: C_2  and  C_4
REMARK    3  A    between atoms: C_4  and  N_5
REMARK    4  A    between atoms: C_6  and  C_8
REMARK    5  A    between atoms: C_8  and  C_9
REMARK    6  A    between atoms: C_20  and  C_30
REMARK    7  A    between atoms: C_23  and  O_29
REMARK    8  A    between atoms: C_25  and  C_26
REMARK    9  A    between atoms: C_25  and  C_27
REMARK   10  A    between atoms: C_27  and  O_28
REMARK                            x       y       z     vdW  Elec       q    Type
REMARK                         _______ _______ _______ _____ _____    ______ ____
ROOT
ATOM      1  C   UNL     1      -0.436   0.334   2.328  0.00  0.00    +0.054 C 
ATOM      2  C   UNL     1      -0.991  -1.054   2.046  0.00  0.00    +0.058 A 
ATOM      3  C   UNL     1      -2.087  -1.202   1.261  0.00  0.00    +0.015 A 
ATOM      4  S   UNL     1      -2.322  -2.959   1.247  0.00  0.00    -0.057 S 
ATOM      5  C   UNL     1      -0.973  -3.362   2.266  0.00  0.00    +0.156 A 
ATOM      6  N   UNL     1      -0.463  -2.177   2.531  0.00  0.00    -0.230 NA
ATOM      7  N   UNL     1      -0.543  -4.610   2.691  0.00  0.00    -0.338 N 
ATOM      8  C   UNL     1      -2.876  -0.135   0.588  0.00  0.00    +0.049 C 
ATOM      9  C   UNL     1      -2.490   1.223   1.184  0.00  0.00    +0.011 C 
ATOM     10  C   UNL     1      -0.965   1.321   1.279  0.00  0.00    -0.019 C 
ATOM     11  C   UNL     1      -0.546   2.728   1.719  0.00  0.00    +0.010 C 
ATOM     12  C   UNL     1      -1.091   3.770   0.731  0.00  0.00    +0.032 C 
ATOM     13  C   UNL     1      -2.620   3.687   0.714  0.00  0.00    +0.123 C 
ATOM     14  C   UNL     1      -3.031   2.296   0.234  0.00  0.00    +0.021 C 
ATOM     15  C   UNL     1      -4.558   2.210   0.190  0.00  0.00    +0.016 C 
ATOM     16  C   UNL     1      -0.345   1.004  -0.083  0.00  0.00    +0.012 C 
ATOM     17  H   UNL     1       0.236  -4.686   3.264  0.00  0.00    +0.144 HD
ATOM     18  H   UNL     1      -1.021  -5.407   2.414  0.00  0.00    +0.144 HD
ENDROOT
BRANCH  13  19
ATOM     19  O   UNL     1      -3.143   4.675  -0.176  0.00  0.00    -0.391 OA
ATOM     20  H   UNL     1      -2.920   5.583   0.070  0.00  0.00    +0.210 HD
ENDBRANCH  13  19
BRANCH   1  21
ATOM     21  C   UNL     1       1.092   0.295   2.265  0.00  0.00    +0.106 C 
BRANCH  21  23
ATOM     22  N   UNL     1       2.950  -0.689   3.569  0.00  0.00    -0.308 N 
ATOM     23  C   UNL     1       1.622  -0.516   3.420  0.00  0.00    +0.214 C 
ATOM     24  O   UNL     1       0.852  -1.013   4.215  0.00  0.00    -0.276 OA
ATOM     25  H   UNL     1       3.565  -0.291   2.933  0.00  0.00    +0.149 HD
BRANCH  22  26
ATOM     26  C   UNL     1       3.465  -1.477   4.691  0.00  0.00    +0.178 C 
BRANCH  26  28
ATOM     27  C   UNL     1       5.748  -2.268   5.678  0.00  0.00    +0.087 C 
ATOM     28  C   UNL     1       4.970  -1.516   4.630  0.00  0.00    +0.147 C 
ATOM     29  O   UNL     1       5.553  -0.944   3.740  0.00  0.00    -0.296 OA
ENDBRANCH  26  28
ENDBRANCH  22  26
ENDBRANCH  21  23
ENDBRANCH   1  21
BRANCH  14  30
ATOM     30  C   UNL     1      -2.470   2.059  -1.170  0.00  0.00    +0.165 C 
BRANCH  30  31
ATOM     31  O   UNL     1      -3.097   2.955  -2.091  0.00  0.00    -0.394 OA
ATOM     32  H   UNL     1      -2.789   2.860  -3.002  0.00  0.00    +0.209 HD
ENDBRANCH  30  31
ENDBRANCH  14  30
TORSDOF 7
