REMARK  Name = ZINC44188954
REMARK  4 active torsions:
REMARK  status: ('A' for Active; 'I' for Inactive)
REMARK    1  A    between atoms: C_1  and  C_2
REMARK    2  A    between atoms: C_4  and  C_22
REMARK    3  A    between atoms: N_5  and  C_7
REMARK    4  A    between atoms: C_19  and  O_21
REMARK                            x       y       z     vdW  Elec       q    Type
REMARK                         _______ _______ _______ _____ _____    ______ ____
ROOT
ATOM      1  C   UNL     1       0.053  -3.309   1.425  0.00  0.00    +0.138 C 
ATOM      2  C   UNL     1      -1.192  -3.344   2.313  0.00  0.00    +0.029 C 
ATOM      3  C   UNL     1      -2.093  -4.504   1.884  0.00  0.00    +0.002 C 
ATOM      4  C   UNL     1      -2.411  -5.379   3.099  0.00  0.00    +0.000 C 
ATOM      5  C   UNL     1      -2.058  -6.834   2.785  0.00  0.00    +0.000 C 
ATOM      6  C   UNL     1      -1.131  -7.380   3.873  0.00  0.00    +0.000 C 
ATOM      7  C   UNL     1       0.123  -7.970   3.226  0.00  0.00    +0.000 C 
ATOM      8  C   UNL     1       1.367  -7.346   3.863  0.00  0.00    +0.000 C 
ATOM      9  C   UNL     1       2.269  -6.775   2.767  0.00  0.00    +0.000 C 
ATOM     10  C   UNL     1       2.585  -5.311   3.078  0.00  0.00    +0.003 C 
ATOM     11  C   UNL     1       2.234  -4.445   1.867  0.00  0.00    +0.033 C 
ATOM     12  C   UNL     1       1.306  -3.310   2.303  0.00  0.00    +0.139 C 
ENDROOT
BRANCH   1  17
ATOM     13  C   UNL     1      -0.018   1.503   0.010  0.00  0.00    +0.090 C 
ATOM     14  C   UNL     1       0.002  -0.004   0.002  0.00  0.00    +0.148 A 
ATOM     15  N   UNL     1       0.008  -0.772  -1.087  0.00  0.00    -0.217 NA
ATOM     16  C   UNL     1       0.027  -2.034  -0.740  0.00  0.00    +0.125 A 
ATOM     17  N   UNL     1       0.033  -2.097   0.603  0.00  0.00    -0.244 N 
ATOM     18  N   UNL     1       0.022  -0.769   1.062  0.00  0.00    -0.155 NA
ATOM     19  C   UNL     1       0.038  -3.210  -1.681  0.00  0.00    +0.088 C 
ENDBRANCH   1  17
BRANCH  12  20
ATOM     20  O   UNL     1       1.985  -2.060   2.165  0.00  0.00    -0.390 OA
ATOM     21  H   UNL     1       2.790  -1.989   2.695  0.00  0.00    +0.210 HD
ENDBRANCH  12  20
TORSDOF 2
