REMARK  Name = ZINC11919407
REMARK  1 active torsions:
REMARK  status: ('A' for Active; 'I' for Inactive)
REMARK    1  A    between atoms: C_1  and  C_2
REMARK                            x       y       z     vdW  Elec       q    Type
REMARK                         _______ _______ _______ _____ _____    ______ ____
ROOT
ATOM      1  C   UNL     1       3.774   0.803   0.456  0.00  0.00    +0.040 C 
ATOM      2  C   UNL     1       2.277   0.956   0.366  0.00  0.00    -0.052 C 
ATOM      3  C   UNL     1       1.744   2.110  -0.003  0.00  0.00    +0.042 C 
ATOM      4  S   UNL     1      -0.023   1.844   0.012  0.00  0.00    -0.109 S 
ATOM      5  C   UNL     1       0.002  -0.004   0.002  0.00  0.00    +0.152 C 
ATOM      6  C   UNL     1       1.378  -0.195   0.693  0.00  0.00    +0.132 C 
ATOM      7  C   UNL     1       1.993  -1.498   0.242  0.00  0.00    +0.230 C 
ATOM      8  O   UNL     1       2.732  -2.088   1.001  0.00  0.00    -0.275 OA
ATOM      9  N   UNL     1       1.734  -2.024  -0.966  0.00  0.00    -0.240 N 
ATOM     10  C   UNL     1       0.849  -1.446  -1.794  0.00  0.00    +0.307 C 
ATOM     11  O   UNL     1       0.765  -1.840  -2.941  0.00  0.00    -0.252 OA
ATOM     12  N   UNL     1       0.055  -0.446  -1.387  0.00  0.00    -0.286 N 
ATOM     13  H   UNL     1       2.192  -2.832  -1.244  0.00  0.00    +0.159 HD
ATOM     14  H   UNL     1      -0.505   0.001  -2.041  0.00  0.00    +0.151 HD
ENDROOT
TORSDOF 0
