REMARK  Name = ZINC04624844
REMARK  5 active torsions:
REMARK  status: ('A' for Active; 'I' for Inactive)
REMARK    1  A    between atoms: C_1  and  C_2
REMARK    2  A    between atoms: C_3  and  C_24
REMARK    3  A    between atoms: C_4  and  C_17
REMARK    4  A    between atoms: C_24  and  O_26
REMARK    5  A    between atoms: O_26  and  C_27
REMARK                            x       y       z     vdW  Elec       q    Type
REMARK                         _______ _______ _______ _____ _____    ______ ____
ROOT
ATOM      1  C   UNL     1       5.846   4.891   0.558  0.00  0.00    +0.061 C 
ATOM      2  C   UNL     1       4.383   5.113   0.269  0.00  0.00    +0.016 C 
ATOM      3  C   UNL     1       3.909   6.366   0.291  0.00  0.00    +0.065 C 
ATOM      4  C   UNL     1       2.471   6.707   0.006  0.00  0.00    +0.094 C 
ATOM      5  C   UNL     1       1.655   5.437   0.012  0.00  0.00    +0.034 C 
ATOM      6  C   UNL     1       2.230   4.196   0.004  0.00  0.00    +0.047 C 
ATOM      7  N   UNL     1       3.597   4.024  -0.004  0.00  0.00    -0.317 N 
ATOM      8  C   UNL     1       1.169   3.168   0.008  0.00  0.00    +0.007 A 
ATOM      9  C   UNL     1       1.184   1.784   0.000  0.00  0.00    +0.010 A 
ATOM     10  C   UNL     1      -0.013   1.076   0.008  0.00  0.00    +0.001 A 
ATOM     11  C   UNL     1      -1.217   1.745   0.017  0.00  0.00    +0.001 A 
ATOM     12  C   UNL     1      -1.246   3.136   0.032  0.00  0.00    +0.012 A 
ATOM     13  C   UNL     1      -0.064   3.848   0.023  0.00  0.00    +0.031 A 
ATOM     14  C   UNL     1       0.253   5.306   0.026  0.00  0.00    +0.193 C 
ATOM     15  O   UNL     1      -0.554   6.215   0.039  0.00  0.00    -0.287 OA
ATOM     16  H   UNL     1       4.061   3.050  -0.221  0.00  0.00    +0.152 HD
ENDROOT
BRANCH   4  17
ATOM     17  C   UNL     1       2.367   7.367  -1.345  0.00  0.00    -0.017 A 
ATOM     18  C   UNL     1       2.784   6.693  -2.478  0.00  0.00    +0.006 A 
ATOM     19  C   UNL     1       2.684   7.297  -3.717  0.00  0.00    +0.000 A 
ATOM     20  C   UNL     1       2.177   8.578  -3.824  0.00  0.00    +0.001 A 
ATOM     21  C   UNL     1       1.764   9.255  -2.692  0.00  0.00    +0.020 A 
ATOM     22  C   UNL     1       1.859   8.649  -1.451  0.00  0.00    +0.045 A 
ATOM     23 CL   UNL     1       1.341   9.499  -0.029  0.00  0.00    -0.083 Cl
ENDBRANCH   4  17
BRANCH   3  24
ATOM     24  C   UNL     1       4.804   7.419   0.595  0.00  0.00    +0.337 C 
ATOM     25  O   UNL     1       5.973   7.176   0.829  0.00  0.00    -0.245 OA
BRANCH  24  26
ATOM     26  O   UNL     1       4.360   8.693   0.625  0.00  0.00    -0.465 OA
ATOM     27  C   UNL     1       5.318   9.706   0.940  0.00  0.00    +0.280 C 
ENDBRANCH  24  26
ENDBRANCH   3  24
TORSDOF 3
