REMARK  Name = ZINC58887537
REMARK  10 active torsions:
REMARK  status: ('A' for Active; 'I' for Inactive)
REMARK    1  A    between atoms: C_1  and  C_2
REMARK    2  A    between atoms: C_2  and  N_3
REMARK    3  A    between atoms: N_3  and  C_4
REMARK    4  A    between atoms: C_4  and  C_5
REMARK    5  A    between atoms: N_16  and  C_17
REMARK    6  A    between atoms: C_19  and  S_25
REMARK    7  A    between atoms: C_22  and  O_23
REMARK    8  A    between atoms: O_23  and  C_24
REMARK    9  A    between atoms: S_25  and  N_28
REMARK   10  A    between atoms: N_28  and  C_29
REMARK                            x       y       z     vdW  Elec       q    Type
REMARK                         _______ _______ _______ _____ _____    ______ ____
ROOT
ATOM      1  N   UNL     1      -1.367  -0.529   0.012  0.00  0.00    -0.281 N 
ATOM      2  C   UNL     1      -1.991  -0.757   1.185  0.00  0.00    +0.307 C 
ATOM      3  O   UNL     1      -3.134  -1.175   1.194  0.00  0.00    -0.252 OA
ATOM      4  N   UNL     1      -1.350  -0.524   2.347  0.00  0.00    -0.266 N 
ATOM      5  H   UNL     1      -0.419  -0.253   2.341  0.00  0.00    +0.156 HD
ENDROOT
BRANCH   4   6
ATOM      6  C   UNL     1      -2.029  -0.672   3.564  0.00  0.00    +0.079 A 
ATOM      7  C   UNL     1      -2.994  -1.659   3.707  0.00  0.00    +0.055 A 
ATOM      8  C   UNL     1      -3.662  -1.803   4.908  0.00  0.00    +0.107 A 
ATOM      9  C   UNL     1      -3.371  -0.966   5.969  0.00  0.00    +0.032 A 
ATOM     10  C   UNL     1      -2.411   0.019   5.835  0.00  0.00    +0.049 A 
ATOM     11  C   UNL     1      -1.732   0.167   4.636  0.00  0.00    +0.141 A 
BRANCH   8  12
ATOM     12  S   UNL     1      -4.887  -3.056   5.087  0.00  0.00    +0.059 S 
ATOM     13  O   UNL     1      -5.752  -2.633   6.132  0.00  0.00    -0.153 OA
ATOM     14  O   UNL     1      -5.360  -3.352   3.780  0.00  0.00    -0.153 OA
BRANCH  12  15
ATOM     15  N   UNL     1      -4.119  -4.418   5.631  0.00  0.00    -0.187 NA
ATOM     16  H   UNL     1      -4.083  -5.211   5.073  0.00  0.00    +0.148 HD
BRANCH  15  17
ATOM     17  C   UNL     1      -3.492  -4.426   6.955  0.00  0.00    +0.077 C 
ATOM     18  C   UNL     1      -2.220  -5.258   7.130  0.00  0.00    +0.022 C 
ATOM     19  C   UNL     1      -3.536  -5.733   7.750  0.00  0.00    +0.022 C 
ENDBRANCH  15  17
ENDBRANCH  12  15
ENDBRANCH   8  12
BRANCH  11  20
ATOM     20  O   UNL     1      -0.784   1.132   4.503  0.00  0.00    -0.493 OA
ATOM     21  C   UNL     1      -0.532   1.955   5.644  0.00  0.00    +0.277 C 
ENDBRANCH  11  20
ENDBRANCH   4   6
BRANCH   1  23
ATOM     22  C   UNL     1      -0.007   1.504  -0.002  0.00  0.00    +0.024 C 
ATOM     23  C   UNL     1       0.009  -0.026   0.001  0.00  0.00    +0.106 C 
ENDBRANCH   1  23
BRANCH   1  24
ATOM     24  C   UNL     1      -2.064  -0.783  -1.251  0.00  0.00    +0.144 C 
BRANCH  24  25
ATOM     25  C   UNL     1      -1.816  -2.205  -1.685  0.00  0.00    -0.026 A 
ATOM     26  C   UNL     1      -0.729  -2.502  -2.485  0.00  0.00    +0.009 A 
ATOM     27  C   UNL     1      -0.496  -3.804  -2.885  0.00  0.00    +0.050 A 
ATOM     28  C   UNL     1      -1.354  -4.816  -2.485  0.00  0.00    +0.166 A 
ATOM     29  C   UNL     1      -2.449  -4.517  -1.678  0.00  0.00    +0.167 A 
ATOM     30  C   UNL     1      -2.672  -3.210  -1.276  0.00  0.00    +0.054 A 
ATOM     31  O   UNL     1      -3.132  -5.671  -1.424  0.00  0.00    -0.453 OA
ATOM     32  C   UNL     1      -2.678  -6.612  -2.415  0.00  0.00    +0.466 C 
ATOM     33  O   UNL     1      -1.350  -6.158  -2.736  0.00  0.00    -0.453 OA
ENDBRANCH  24  25
ENDBRANCH   1  24
TORSDOF 8
