REMARK  Name = ZINC65527790
REMARK  6 active torsions:
REMARK  status: ('A' for Active; 'I' for Inactive)
REMARK    1  A    between atoms: C_1  and  C_2
REMARK    2  A    between atoms: C_5  and  C_7
REMARK    3  A    between atoms: C_7  and  C_8
REMARK    4  A    between atoms: C_7  and  N_9
REMARK    5  A    between atoms: N_12  and  N_13
REMARK    6  A    between atoms: C_14  and  C_16
REMARK                            x       y       z     vdW  Elec       q    Type
REMARK                         _______ _______ _______ _____ _____    ______ ____
ROOT
ATOM      1  N   UNL     1       4.385  -4.261   2.488  0.00  0.00    -0.228 N 
ATOM      2  C   UNL     1       5.458  -4.340   3.299  0.00  0.00    +0.281 C 
ATOM      3  O   UNL     1       5.768  -5.405   3.796  0.00  0.00    -0.267 OA
ATOM      4  H   UNL     1       4.138  -3.411   2.091  0.00  0.00    +0.173 HD
ENDROOT
BRANCH   2   5
ATOM      5  C   UNL     1       6.258  -3.132   3.584  0.00  0.00    +0.155 A 
ATOM      6  C   UNL     1       7.436  -3.209   4.464  0.00  0.00    +0.020 A 
ATOM      7  C   UNL     1       7.852  -4.394   5.063  0.00  0.00    +0.011 A 
ATOM      8  C   UNL     1       8.966  -4.386   5.876  0.00  0.00    +0.001 A 
ATOM      9  C   UNL     1       9.673  -3.212   6.102  0.00  0.00    +0.001 A 
ATOM     10  C   UNL     1       9.277  -2.027   5.518  0.00  0.00    +0.014 A 
ATOM     11  C   UNL     1       8.156  -2.014   4.694  0.00  0.00    +0.050 A 
ATOM     12  C   UNL     1       7.665  -0.797   4.033  0.00  0.00    +0.272 A 
ATOM     13  O   UNL     1       8.235   0.267   4.185  0.00  0.00    -0.266 OA
ATOM     14  N   UNL     1       6.568  -0.888   3.253  0.00  0.00    -0.242 N 
ATOM     15  H   UNL     1       6.246  -0.083   2.819  0.00  0.00    +0.192 HD
ATOM     16  N   UNL     1       5.932  -1.980   3.053  0.00  0.00    -0.166 NA
ENDBRANCH   2   5
BRANCH   1  20
ATOM     17  N   UNL     1       2.210  -4.147   0.855  0.00  0.00    -0.291 N 
ATOM     18  C   UNL     1       2.553  -5.328   1.406  0.00  0.00    +0.316 C 
ATOM     19  O   UNL     1       1.894  -6.323   1.171  0.00  0.00    -0.251 OA
ATOM     20  N   UNL     1       3.626  -5.407   2.217  0.00  0.00    -0.218 N 
ATOM     21  H   UNL     1       2.735  -3.354   1.042  0.00  0.00    +0.151 HD
ATOM     22  H   UNL     1       3.873  -6.257   2.614  0.00  0.00    +0.174 HD
BRANCH  17  23
ATOM     23  C   UNL     1       1.043  -4.062  -0.027  0.00  0.00    +0.108 C 
ATOM     24  C   UNL     1       1.452  -4.441  -1.452  0.00  0.00    +0.033 C 
BRANCH  23  29
ATOM     25  C   UNL     1      -0.018   1.503   0.010  0.00  0.00    +0.051 C 
ATOM     26  C   UNL     1       0.002  -0.004   0.002  0.00  0.00    -0.013 A 
ATOM     27  C   UNL     1      -1.039  -0.872   0.002  0.00  0.00    +0.011 A 
ATOM     28  C   UNL     1      -0.780  -2.230  -0.007  0.00  0.00    +0.013 A 
ATOM     29  C   UNL     1       0.507  -2.653  -0.016  0.00  0.00    +0.010 A 
ATOM     30  S   UNL     1       1.404  -1.109  -0.018  0.00  0.00    -0.097 S 
ENDBRANCH  23  29
ENDBRANCH  17  23
ENDBRANCH   1  20
TORSDOF 4
