REMARK  Name = ZINC14018651
REMARK  4 active torsions:
REMARK  status: ('A' for Active; 'I' for Inactive)
REMARK    1  A    between atoms: C_8  and  C_10
REMARK    2  A    between atoms: C_16  and  C_18
REMARK    3  A    between atoms: N_23  and  S_25
REMARK    4  A    between atoms: S_25  and  C_28
REMARK                            x       y       z     vdW  Elec       q    Type
REMARK                         _______ _______ _______ _____ _____    ______ ____
ROOT
ATOM      1  C   UNL     1      -5.193  -4.841   6.581  0.00  0.00    +0.115 A 
ATOM      2  C   UNL     1      -5.993  -3.730   6.596  0.00  0.00    +0.080 A 
ATOM      3  S   UNL     1      -5.058  -2.632   5.538  0.00  0.00    -0.060 S 
ATOM      4  C   UNL     1      -3.714  -3.754   5.179  0.00  0.00    +0.165 A 
ATOM      5  N   UNL     1      -4.068  -4.822   5.868  0.00  0.00    -0.221 NA
ATOM      6  N   UNL     1      -2.590  -3.553   4.388  0.00  0.00    -0.264 N 
ATOM      7  C   UNL     1      -2.411  -2.374   3.759  0.00  0.00    +0.223 C 
ATOM      8  O   UNL     1      -3.231  -1.489   3.885  0.00  0.00    -0.275 OA
ATOM      9  H   UNL     1      -1.935  -4.261   4.287  0.00  0.00    +0.157 HD
ENDROOT
BRANCH   1  17
ATOM     10  C   UNL     1      -6.321  -9.991   9.546  0.00  0.00    +0.001 A 
ATOM     11  C   UNL     1      -7.449  -9.290   9.946  0.00  0.00    +0.004 A 
ATOM     12  C   UNL     1      -7.665  -7.997   9.516  0.00  0.00    +0.047 A 
ATOM     13  C   UNL     1      -6.746  -7.388   8.671  0.00  0.00    +0.136 A 
ATOM     14  C   UNL     1      -5.604  -8.103   8.268  0.00  0.00    +0.021 A 
ATOM     15  C   UNL     1      -5.403  -9.410   8.715  0.00  0.00    +0.011 A 
ATOM     16  C   UNL     1      -4.854  -7.194   7.399  0.00  0.00    +0.060 A 
ATOM     17  C   UNL     1      -5.572  -6.046   7.346  0.00  0.00    +0.155 A 
ATOM     18  O   UNL     1      -6.681  -6.166   8.102  0.00  0.00    -0.453 OA
ENDBRANCH   1  17
BRANCH   7  19
ATOM     19  C   UNL     1      -1.192  -2.156   2.901  0.00  0.00    +0.091 C 
ATOM     20  C   UNL     1       0.069  -2.312   3.755  0.00  0.00    +0.015 C 
ATOM     21  C   UNL     1       1.308  -2.123   2.877  0.00  0.00    +0.018 C 
ATOM     22  C   UNL     1       1.298  -0.716   2.281  0.00  0.00    +0.109 C 
ATOM     23  N   UNL     1       0.024  -0.502   1.581  0.00  0.00    -0.176 NA
ATOM     24  C   UNL     1      -1.230  -0.745   2.307  0.00  0.00    +0.122 C 
BRANCH  23  25
ATOM     25  S   UNL     1       0.002  -0.004   0.002  0.00  0.00    +0.061 S 
ATOM     26  O   UNL     1      -1.243  -0.424  -0.539  0.00  0.00    -0.153 OA
ATOM     27  O   UNL     1       1.248  -0.390  -0.563  0.00  0.00    -0.153 OA
BRANCH  25  28
ATOM     28  C   UNL     1      -0.022   1.758   0.012  0.00  0.00    +0.106 A 
ATOM     29  C   UNL     1      -1.229   2.432   0.021  0.00  0.00    +0.031 A 
ATOM     30  C   UNL     1      -1.248   3.814   0.035  0.00  0.00    +0.040 A 
ATOM     31  C   UNL     1      -0.059   4.523   0.026  0.00  0.00    +0.124 A 
ATOM     32  C   UNL     1       1.149   3.846   0.011  0.00  0.00    +0.040 A 
ATOM     33  C   UNL     1       1.166   2.465   0.004  0.00  0.00    +0.031 A 
ATOM     34  F   UNL     1      -0.078   5.874   0.033  0.00  0.00    -0.205 F 
ENDBRANCH  25  28
ENDBRANCH  23  25
ENDBRANCH   7  19
TORSDOF 4
