REMARK  Name = ZINC12551006
REMARK  10 active torsions:
REMARK  status: ('A' for Active; 'I' for Inactive)
REMARK    1  A    between atoms: N_5  and  C_7
REMARK    2  A    between atoms: C_7  and  C_8
REMARK    3  A    between atoms: C_8  and  C_9
REMARK    4  A    between atoms: C_9  and  N_86
REMARK    5  A    between atoms: C_10  and  C_11
REMARK    6  A    between atoms: C_10  and  N_86
REMARK    7  A    between atoms: N_13  and  C_14
REMARK    8  A    between atoms: C_24  and  C_25
REMARK    9  A    between atoms: C_24  and  N_86
REMARK   10  A    between atoms: N_27  and  C_28
REMARK                            x       y       z     vdW  Elec       q    Type
REMARK                         _______ _______ _______ _____ _____    ______ ____
ROOT
ATOM      1  N   UNL     1      -7.357   1.319   2.356  0.00  0.00    +0.391 N 
ATOM      2  H   UNL     1      -6.949   1.196   3.290  0.00  0.00    -0.080 HD
ENDROOT
BRANCH   1   3
ATOM      3  C   UNL     1      -7.350   2.758   2.014  0.00  0.00    -0.076 C 
BRANCH   3   4
ATOM      4  C   UNL     1      -7.885   2.975   0.597  0.00  0.00    +0.000 C 
BRANCH   4   5
ATOM      5  C   UNL     1      -7.876   4.470   0.273  0.00  0.00    +0.106 C 
BRANCH   5  10
ATOM      6  C   UNL     1      -8.534   4.504  -3.471  0.00  0.00    +0.028 C 
ATOM      7  C   UNL     1      -9.853   5.048  -2.876  0.00  0.00    +0.097 C 
ATOM      8  C   UNL     1      -9.683   4.881  -1.382  0.00  0.00    +0.216 C 
ATOM      9  O   UNL     1     -10.585   4.924  -0.572  0.00  0.00    -0.276 OA
ATOM     10  N   UNL     1      -8.389   4.679  -1.084  0.00  0.00    -0.302 N 
ATOM     11  C   UNL     1      -7.554   4.700  -2.290  0.00  0.00    +0.108 C 
ENDBRANCH   5  10
ENDBRANCH   4   5
ENDBRANCH   3   4
ENDBRANCH   1   3
BRANCH   1  12
ATOM     12  C   UNL     1      -6.551   0.563   1.375  0.00  0.00    +0.019 C 
BRANCH  12  13
ATOM     13  C   UNL     1      -5.102   0.947   1.539  0.00  0.00    +0.197 C 
ATOM     14  O   UNL     1      -4.783   1.772   2.368  0.00  0.00    -0.278 OA
ATOM     15  N   UNL     1      -4.162   0.373   0.763  0.00  0.00    -0.311 N 
ATOM     16  H   UNL     1      -4.417  -0.287   0.099  0.00  0.00    +0.149 HD
BRANCH  15  17
ATOM     17  C   UNL     1      -2.754   0.746   0.921  0.00  0.00    +0.035 C 
ATOM     18  C   UNL     1      -1.901  -0.046  -0.072  0.00  0.00    +0.029 C 
ATOM     19  C   UNL     1      -0.431   0.344   0.093  0.00  0.00    -0.008 C 
ATOM     20  C   UNL     1       0.023   0.027   1.520  0.00  0.00    +0.007 C 
ATOM     21  C   UNL     1      -0.830   0.819   2.514  0.00  0.00    -0.008 C 
ATOM     22  C   UNL     1      -2.300   0.429   2.348  0.00  0.00    +0.029 C 
ATOM     23  C   UNL     1      -0.665   2.316   2.247  0.00  0.00    +0.007 C 
ATOM     24  C   UNL     1      -1.119   2.633   0.820  0.00  0.00    -0.008 C 
ATOM     25  C   UNL     1      -0.267   1.841  -0.174  0.00  0.00    +0.007 C 
ATOM     26  C   UNL     1      -2.590   2.243   0.654  0.00  0.00    +0.029 C 
ENDBRANCH  15  17
ENDBRANCH  12  13
ENDBRANCH   1  12
BRANCH   1  27
ATOM     27  C   UNL     1      -8.745   0.811   2.368  0.00  0.00    +0.019 C 
BRANCH  27  28
ATOM     28  C   UNL     1      -9.441   1.332   3.598  0.00  0.00    +0.197 C 
ATOM     29  O   UNL     1      -8.821   1.973   4.420  0.00  0.00    -0.278 OA
ATOM     30  N   UNL     1     -10.753   1.086   3.786  0.00  0.00    -0.311 N 
ATOM     31  H   UNL     1     -11.249   0.574   3.128  0.00  0.00    +0.149 HD
BRANCH  30  32
ATOM     32  C   UNL     1     -11.430   1.593   4.982  0.00  0.00    +0.035 C 
ATOM     33  C   UNL     1     -10.763   1.011   6.230  0.00  0.00    +0.029 C 
ATOM     34  C   UNL     1     -11.470   1.540   7.480  0.00  0.00    -0.008 C 
ATOM     35  C   UNL     1     -12.942   1.125   7.448  0.00  0.00    +0.007 C 
ATOM     36  C   UNL     1     -13.609   1.706   6.199  0.00  0.00    -0.008 C 
ATOM     37  C   UNL     1     -12.902   1.177   4.950  0.00  0.00    +0.029 C 
ATOM     38  C   UNL     1     -13.511   3.233   6.233  0.00  0.00    +0.007 C 
ATOM     39  C   UNL     1     -12.038   3.648   6.265  0.00  0.00    -0.008 C 
ATOM     40  C   UNL     1     -11.371   3.067   7.513  0.00  0.00    +0.007 C 
ATOM     41  C   UNL     1     -11.332   3.119   5.016  0.00  0.00    +0.029 C 
ENDBRANCH  30  32
ENDBRANCH  27  28
ENDBRANCH   1  27
TORSDOF 10
