REMARK  Name = ZINC32198356
REMARK  4 active torsions:
REMARK  status: ('A' for Active; 'I' for Inactive)
REMARK    1  A    between atoms: C_6  and  C_7
REMARK    2  A    between atoms: C_7  and  N_8
REMARK    3  A    between atoms: N_8  and  C_9
REMARK    4  A    between atoms: C_14  and  N_15
REMARK                            x       y       z     vdW  Elec       q    Type
REMARK                         _______ _______ _______ _____ _____    ______ ____
ROOT
ATOM      1  N   UNL     1      -2.595   1.377   0.077  0.00  0.00    -0.338 N 
ATOM      2  H   UNL     1      -3.473   2.036   0.013  0.00  0.00    +0.146 HD
ENDROOT
BRANCH   1   3
ATOM      3  C   UNL     1      -1.309   1.922   0.046  0.00  0.00    +0.058 A 
ATOM      4  C   UNL     1      -0.200   1.086   0.004  0.00  0.00    +0.026 A 
ATOM      5  C   UNL     1       1.070   1.627  -0.032  0.00  0.00    +0.022 A 
ATOM      6  C   UNL     1       1.239   3.001  -0.021  0.00  0.00    +0.043 A 
ATOM      7  C   UNL     1       0.136   3.836   0.026  0.00  0.00    +0.054 A 
ATOM      8  C   UNL     1      -1.136   3.300   0.062  0.00  0.00    +0.148 A 
ATOM      9 CL   UNL     1       2.837   3.678  -0.067  0.00  0.00    -0.083 Cl
BRANCH   8  10
ATOM     10  N   UNL     1      -2.315   4.193   0.113  0.00  0.00    +0.058 N 
ATOM     11  O   UNL     1      -2.163   5.396   0.233  0.00  0.00    -0.126 OA
ATOM     12  O   UNL     1      -3.437   3.726   0.034  0.00  0.00    -0.126 OA
ENDBRANCH   8  10
ENDBRANCH   1   3
BRANCH   1  13
ATOM     13  C   UNL     1      -2.774  -0.072   0.195  0.00  0.00    +0.137 C 
BRANCH  13  19
ATOM     14  C   UNL     1      -4.932  -0.453   1.405  0.00  0.00    +0.007 A 
ATOM     15  C   UNL     1      -6.283  -0.747   1.415  0.00  0.00    +0.022 A 
ATOM     16  C   UNL     1      -6.946  -0.995   0.227  0.00  0.00    +0.059 A 
ATOM     17  C   UNL     1      -6.257  -0.945  -0.973  0.00  0.00    +0.060 A 
ATOM     18  C   UNL     1      -4.907  -0.646  -0.982  0.00  0.00    +0.026 A 
ATOM     19  C   UNL     1      -4.245  -0.398   0.206  0.00  0.00    -0.029 A 
ATOM     20 CL   UNL     1      -7.088  -1.256  -2.465  0.00  0.00    -0.082 Cl
ATOM     21 CL   UNL     1      -8.641  -1.370   0.241  0.00  0.00    -0.082 Cl
ENDBRANCH  13  19
ENDBRANCH   1  13
TORSDOF 4
