REMARK  Name = ZINC12548767
REMARK  7 active torsions:
REMARK  status: ('A' for Active; 'I' for Inactive)
REMARK    1  A    between atoms: C_1  and  C_2
REMARK    2  A    between atoms: C_2  and  O_3
REMARK    3  A    between atoms: O_3  and  C_4
REMARK    4  A    between atoms: C_4  and  C_6
REMARK    5  A    between atoms: C_9  and  N_12
REMARK    6  A    between atoms: C_22  and  N_23
REMARK    7  A    between atoms: C_25  and  C_30
REMARK                            x       y       z     vdW  Elec       q    Type
REMARK                         _______ _______ _______ _____ _____    ______ ____
ROOT
ATOM      1  N   UNL     1       3.462  -3.889  -5.837  0.00  0.00    -0.202 N 
ATOM      2  C   UNL     1       3.829  -3.040  -6.811  0.00  0.00    +0.258 C 
ATOM      3  O   UNL     1       3.656  -1.845  -6.660  0.00  0.00    -0.269 OA
ATOM      4  C   UNL     1       4.436  -3.530  -8.055  0.00  0.00    +0.046 A 
ATOM      5  C   UNL     1       4.821  -2.654  -9.071  0.00  0.00    +0.014 A 
ATOM      6  C   UNL     1       5.388  -3.152 -10.224  0.00  0.00    +0.001 A 
ATOM      7  C   UNL     1       5.581  -4.517 -10.386  0.00  0.00    +0.001 A 
ATOM      8  C   UNL     1       5.208  -5.400  -9.394  0.00  0.00    +0.009 A 
ATOM      9  C   UNL     1       4.634  -4.916  -8.224  0.00  0.00    +0.000 A 
ATOM     10  C   UNL     1       4.217  -5.819  -7.130  0.00  0.00    +0.059 C 
ATOM     11  C   UNL     1       4.384  -7.182  -7.234  0.00  0.00    +0.087 C 
ATOM     12  C   UNL     1       3.626  -5.218  -5.929  0.00  0.00    +0.259 C 
ATOM     13  O   UNL     1       3.276  -5.933  -5.007  0.00  0.00    -0.269 OA
ENDROOT
BRANCH  11  14
ATOM     14  N   UNL     1       3.848  -8.006  -6.293  0.00  0.00    -0.306 N 
ATOM     15  C   UNL     1       4.113  -9.372  -6.331  0.00  0.00    +0.103 A 
ATOM     16  C   UNL     1       3.557 -10.209  -5.370  0.00  0.00    -0.012 A 
ATOM     17  C   UNL     1       3.829 -11.565  -5.420  0.00  0.00    +0.008 A 
ATOM     18  C   UNL     1       4.651 -12.039  -6.434  0.00  0.00    +0.018 A 
ATOM     19  C   UNL     1       5.168 -11.150  -7.356  0.00  0.00    +0.084 A 
ATOM     20  N   UNL     1       4.888  -9.863  -7.286  0.00  0.00    -0.349 N 
ATOM     21  C   UNL     1       2.671  -9.648  -4.288  0.00  0.00    +0.047 C 
ATOM     22  H   UNL     1       3.281  -7.641  -5.595  0.00  0.00    +0.153 HD
ATOM     23  H   UNL     1       5.261  -9.261  -7.949  0.00  0.00    +0.167 HD
ENDBRANCH  11  14
BRANCH   1  27
ATOM     24  C   UNL     1       1.754  -2.325  -2.372  0.00  0.00    +0.059 A 
ATOM     25  C   UNL     1       2.921  -3.090  -2.294  0.00  0.00    +0.017 A 
ATOM     26  C   UNL     1       3.482  -3.606  -3.441  0.00  0.00    +0.025 A 
ATOM     27  C   UNL     1       2.889  -3.365  -4.676  0.00  0.00    +0.045 A 
ATOM     28  C   UNL     1       1.728  -2.603  -4.758  0.00  0.00    +0.025 A 
ATOM     29  C   UNL     1       1.158  -2.089  -3.615  0.00  0.00    +0.017 A 
BRANCH  24  30
ATOM     30  C   UNL     1       1.149  -1.771  -1.146  0.00  0.00    +0.339 C 
ATOM     31  O   UNL     1       0.132  -1.110  -1.215  0.00  0.00    -0.245 OA
BRANCH  30  32
ATOM     32  O   UNL     1       1.724  -1.999   0.051  0.00  0.00    -0.461 OA
BRANCH  32  34
ATOM     33  C   UNL     1       1.877  -1.796   2.454  0.00  0.00    +0.048 C 
ATOM     34  C   UNL     1       1.085  -1.433   1.196  0.00  0.00    +0.229 C 
ENDBRANCH  32  34
ENDBRANCH  30  32
ENDBRANCH  24  30
ENDBRANCH   1  27
TORSDOF 5
