REMARK  Name = ZINC01900270
REMARK  14 active torsions:
REMARK  status: ('A' for Active; 'I' for Inactive)
REMARK    1  A    between atoms: C_1  and  C_2
REMARK    2  A    between atoms: C_2  and  C_4
REMARK    3  A    between atoms: C_2  and  N_12
REMARK    4  A    between atoms: C_4  and  C_5
REMARK    5  A    between atoms: C_5  and  C_6
REMARK    6  A    between atoms: C_13  and  C_15
REMARK    7  A    between atoms: C_15  and  S_16
REMARK    8  A    between atoms: S_16  and  C_17
REMARK    9  A    between atoms: C_26  and  C_29
REMARK   10  A    between atoms: C_29  and  C_30
REMARK   11  A    between atoms: C_29  and  C_31
REMARK   12  A    between atoms: N_34  and  C_35
REMARK   13  A    between atoms: C_35  and  C_36
REMARK   14  A    between atoms: C_36  and  C_37
REMARK                            x       y       z     vdW  Elec       q    Type
REMARK                         _______ _______ _______ _____ _____    ______ ____
ROOT
ATOM      1  C   UNL     1      -5.687  -1.875   2.746  0.00  0.00    +0.173 A 
ATOM      2  N   UNL     1      -6.165  -2.159   1.551  0.00  0.00    -0.216 NA
ATOM      3  C   UNL     1      -7.398  -2.628   1.405  0.00  0.00    +0.117 A 
ATOM      4  C   UNL     1      -8.251  -2.845   2.502  0.00  0.00    +0.076 A 
ATOM      5  C   UNL     1      -9.578  -3.365   2.182  0.00  0.00    -0.018 A 
ATOM      6  C   UNL     1      -9.855  -3.584   0.878  0.00  0.00    +0.021 A 
ATOM      7  S   UNL     1      -8.384  -3.117   0.011  0.00  0.00    -0.071 S 
ATOM      8  C   UNL     1     -11.143  -4.109   0.322  0.00  0.00    +0.203 C 
ATOM      9  O   UNL     1     -12.133  -4.041   1.361  0.00  0.00    -0.371 OA
ATOM     10  C   UNL     1     -11.690  -4.583   2.607  0.00  0.00    +0.126 C 
ATOM     11  C   UNL     1     -10.639  -3.665   3.238  0.00  0.00    +0.068 C 
ATOM     12  C   UNL     1      -7.705  -2.528   3.786  0.00  0.00    +0.263 A 
ATOM     13  O   UNL     1      -8.370  -2.684   4.795  0.00  0.00    -0.267 OA
ATOM     14  N   UNL     1      -6.445  -2.061   3.865  0.00  0.00    -0.287 N 
ENDROOT
BRANCH  10  15
ATOM     15  C   UNL     1     -12.882  -4.712   3.557  0.00  0.00    +0.012 C 
ATOM     16  C   UNL     1     -13.929  -5.641   2.938  0.00  0.00    +0.010 C 
ATOM     17  C   UNL     1     -12.411  -5.292   4.892  0.00  0.00    +0.010 C 
ENDBRANCH  10  15
BRANCH   1  18
ATOM     18  S   UNL     1      -4.045  -1.255   2.901  0.00  0.00    -0.078 S 
BRANCH  18  19
ATOM     19  C   UNL     1      -3.442  -1.177   1.191  0.00  0.00    +0.173 C 
BRANCH  19  21
ATOM     20  N   UNL     1      -1.372  -0.511   0.012  0.00  0.00    -0.312 N 
ATOM     21  C   UNL     1      -2.029  -0.655   1.181  0.00  0.00    +0.224 C 
ATOM     22  O   UNL     1      -1.481  -0.365   2.224  0.00  0.00    -0.275 OA
ATOM     23  H   UNL     1      -1.810  -0.743  -0.822  0.00  0.00    +0.149 HD
BRANCH  20  25
ATOM     24  C   UNL     1      -0.019   1.526   0.010  0.00  0.00    +0.028 C 
ATOM     25  C   UNL     1       0.002  -0.004   0.002  0.00  0.00    +0.070 C 
BRANCH  25  26
ATOM     26  C   UNL     1       0.718  -0.497  -1.257  0.00  0.00    +0.026 C 
BRANCH  26  27
ATOM     27  C   UNL     1       0.849  -2.021  -1.205  0.00  0.00    +0.037 C 
BRANCH  27  28
ATOM     28  C   UNL     1       1.555  -2.507  -2.445  0.00  0.00    -0.047 A 
ATOM     29  C   UNL     1       0.824  -2.834  -3.572  0.00  0.00    +0.003 A 
ATOM     30  C   UNL     1       1.472  -3.280  -4.709  0.00  0.00    +0.000 A 
ATOM     31  C   UNL     1       2.849  -3.398  -4.720  0.00  0.00    +0.000 A 
ATOM     32  C   UNL     1       3.579  -3.070  -3.593  0.00  0.00    +0.000 A 
ATOM     33  C   UNL     1       2.932  -2.620  -2.457  0.00  0.00    +0.003 A 
ENDBRANCH  27  28
ENDBRANCH  26  27
ENDBRANCH  25  26
ENDBRANCH  20  25
ENDBRANCH  19  21
ENDBRANCH  18  19
ENDBRANCH   1  18
BRANCH  14  34
ATOM     34  C   UNL     1      -5.879  -1.741   5.178  0.00  0.00    +0.132 C 
BRANCH  34  35
ATOM     35  C   UNL     1      -6.180  -0.281   5.521  0.00  0.00    +0.057 C 
BRANCH  35  36
ATOM     36  C   UNL     1      -5.597   0.049   6.871  0.00  0.00    -0.046 A 
ATOM     37  C   UNL     1      -6.352  -0.140   8.014  0.00  0.00    +0.004 A 
ATOM     38  C   UNL     1      -5.817   0.162   9.253  0.00  0.00    +0.000 A 
ATOM     39  C   UNL     1      -4.528   0.652   9.348  0.00  0.00    +0.000 A 
ATOM     40  C   UNL     1      -3.773   0.840   8.205  0.00  0.00    +0.000 A 
ATOM     41  C   UNL     1      -4.306   0.534   6.967  0.00  0.00    +0.004 A 
ENDBRANCH  35  36
ENDBRANCH  34  35
ENDBRANCH  14  34
TORSDOF 11
