REMARK  Name = ZINC20836866
REMARK  9 active torsions:
REMARK  status: ('A' for Active; 'I' for Inactive)
REMARK    1  A    between atoms: C_1  and  C_2
REMARK    2  A    between atoms: C_2  and  C_22
REMARK    3  A    between atoms: N_3  and  N_4
REMARK    4  A    between atoms: C_7  and  S_10
REMARK    5  A    between atoms: S_10  and  C_11
REMARK    6  A    between atoms: C_11  and  C_12
REMARK    7  A    between atoms: N_14  and  N_15
REMARK    8  A    between atoms: C_16  and  C_18
REMARK    9  A    between atoms: C_25  and  N_28
REMARK                            x       y       z     vdW  Elec       q    Type
REMARK                         _______ _______ _______ _____ _____    ______ ____
ROOT
ATOM      1  N   UNL     1      -2.442   1.308   0.019  0.00  0.00    -0.205 N 
ATOM      2  C   UNL     1      -1.128   1.754   0.016  0.00  0.00    +0.232 A 
ATOM      3  N   UNL     1      -0.011   0.966   0.007  0.00  0.00    -0.186 NA
ATOM      4  C   UNL     1       1.083   1.784   0.001  0.00  0.00    +0.211 A 
ATOM      5  N   UNL     1       0.661   3.026   0.012  0.00  0.00    -0.144 NA
ATOM      6  N   UNL     1      -0.740   3.007   0.025  0.00  0.00    -0.245 N 
ATOM      7  H   UNL     1      -2.656   0.229   0.013  0.00  0.00    +0.177 HD
ATOM      8  H   UNL     1      -1.487   3.814   0.041  0.00  0.00    +0.192 HD
ENDROOT
BRANCH   1  11
ATOM      9  C   UNL     1      -5.018   0.335   0.023  0.00  0.00    +0.068 C 
ATOM     10  C   UNL     1      -4.725   1.813   0.030  0.00  0.00    +0.063 C 
ATOM     11  N   UNL     1      -3.495   2.231   0.028  0.00  0.00    -0.184 NA
BRANCH  10  12
ATOM     12  C   UNL     1      -5.833   2.784   0.040  0.00  0.00    -0.002 A 
ATOM     13  C   UNL     1      -7.157   2.336   0.037  0.00  0.00    +0.011 A 
ATOM     14  C   UNL     1      -8.191   3.247   0.052  0.00  0.00    +0.023 A 
ATOM     15  C   UNL     1      -7.918   4.611   0.060  0.00  0.00    +0.025 A 
ATOM     16  C   UNL     1      -6.602   5.060   0.057  0.00  0.00    +0.023 A 
ATOM     17  C   UNL     1      -5.563   4.155   0.047  0.00  0.00    +0.011 A 
BRANCH  15  18
ATOM     18  N   UNL     1      -8.968   5.530   0.070  0.00  0.00    -0.358 N 
ATOM     19  H   UNL     1      -8.754   6.609   0.076  0.00  0.00    +0.142 HD
ATOM     20  H   UNL     1     -10.009   5.176   0.071  0.00  0.00    +0.142 HD
ENDBRANCH  15  18
ENDBRANCH  10  12
ENDBRANCH   1  11
BRANCH   4  21
ATOM     21  S   UNL     1       2.766   1.262  -0.017  0.00  0.00    -0.075 S 
BRANCH  21  22
ATOM     22  C   UNL     1       3.706   2.813  -0.018  0.00  0.00    +0.174 C 
BRANCH  22  23
ATOM     23  C   UNL     1       5.182   2.506  -0.033  0.00  0.00    +0.239 C 
ATOM     24  O   UNL     1       5.561   1.354  -0.043  0.00  0.00    -0.273 OA
ATOM     25  N   UNL     1       6.079   3.512  -0.037  0.00  0.00    -0.233 N 
ATOM     26  H   UNL     1       5.735   4.556  -0.028  0.00  0.00    +0.173 HD
BRANCH  25  27
ATOM     27  N   UNL     1       7.451   3.226  -0.051  0.00  0.00    -0.227 N 
ATOM     28  C   UNL     1       8.348   4.232  -0.054  0.00  0.00    +0.333 C 
ATOM     29  O   UNL     1       7.968   5.384  -0.045  0.00  0.00    -0.264 OA
ATOM     30  H   UNL     1       7.795   2.182  -0.059  0.00  0.00    +0.173 HD
BRANCH  28  31
ATOM     31  C   UNL     1       9.823   3.925  -0.069  0.00  0.00    +0.471 C 
ATOM     32  F   UNL     1      10.549   5.121  -0.070  0.00  0.00    -0.162 F 
ATOM     33  F   UNL     1      10.156   3.178   1.066  0.00  0.00    -0.162 F 
ATOM     34  F   UNL     1      10.135   3.190  -1.218  0.00  0.00    -0.162 F 
ENDBRANCH  28  31
ENDBRANCH  25  27
ENDBRANCH  22  23
ENDBRANCH  21  22
ENDBRANCH   4  21
TORSDOF 8
