REMARK  Name = ZINC19526691
REMARK  6 active torsions:
REMARK  status: ('A' for Active; 'I' for Inactive)
REMARK    1  A    between atoms: C_1  and  C_2
REMARK    2  A    between atoms: C_2  and  N_3
REMARK    3  A    between atoms: N_15  and  C_16
REMARK    4  A    between atoms: C_17  and  C_19
REMARK    5  A    between atoms: C_24  and  O_27
REMARK    6  A    between atoms: O_27  and  C_28
REMARK                            x       y       z     vdW  Elec       q    Type
REMARK                         _______ _______ _______ _____ _____    ______ ____
ROOT
ATOM      1  N   UNL     1      -1.863   3.208   8.085  0.00  0.00    -0.250 N 
ATOM      2  C   UNL     1      -1.143   2.792   6.971  0.00  0.00    +0.168 A 
ATOM      3  N   UNL     1      -1.594   2.424   5.787  0.00  0.00    -0.224 NA
ATOM      4  C   UNL     1      -0.778   2.043   4.817  0.00  0.00    +0.087 A 
ATOM      5  C   UNL     1       0.572   2.072   5.107  0.00  0.00    +0.019 A 
ATOM      6  S   UNL     1       0.578   2.627   6.787  0.00  0.00    -0.056 S 
ATOM      7  C   UNL     1       1.681   1.714   4.186  0.00  0.00    +0.051 C 
ATOM      8  C   UNL     1       1.237   0.662   3.163  0.00  0.00    +0.061 C 
ATOM      9  C   UNL     1      -0.162   0.940   2.681  0.00  0.00    +0.048 A 
ATOM     10  C   UNL     1      -1.123   1.564   3.443  0.00  0.00    +0.042 A 
ATOM     11  C   UNL     1      -2.299   1.625   2.710  0.00  0.00    +0.144 A 
ATOM     12  N   UNL     1      -2.067   1.079   1.539  0.00  0.00    -0.179 NA
ATOM     13  N   UNL     1      -0.733   0.644   1.504  0.00  0.00    -0.271 N 
ATOM     14  C   UNL     1      -0.074  -0.015   0.373  0.00  0.00    +0.172 C 
ATOM     15  C   UNL     1      -3.196   3.382   8.000  0.00  0.00    +0.224 C 
ATOM     16  O   UNL     1      -3.812   3.826   8.946  0.00  0.00    -0.275 OA
ENDROOT
BRANCH  15  17
ATOM     17  C   UNL     1      -3.923   3.025   6.729  0.00  0.00    +0.078 C 
ATOM     18  C   UNL     1      -3.632   4.081   5.661  0.00  0.00    +0.013 C 
ATOM     19  C   UNL     1      -4.108   5.449   6.154  0.00  0.00    +0.003 C 
ATOM     20  C   UNL     1      -5.614   5.398   6.424  0.00  0.00    +0.031 C 
ATOM     21  C   UNL     1      -5.904   4.342   7.492  0.00  0.00    +0.119 C 
ATOM     22  C   UNL     1      -5.428   2.974   6.999  0.00  0.00    +0.044 C 
BRANCH  21  23
ATOM     23  O   UNL     1      -7.310   4.294   7.744  0.00  0.00    -0.380 OA
ATOM     24  C   UNL     1      -7.745   5.179   8.778  0.00  0.00    +0.194 C 
ENDBRANCH  21  23
ENDBRANCH  15  17
BRANCH   1  26
ATOM     25  C   UNL     1      -0.833   4.944   9.466  0.00  0.00    +0.025 C 
ATOM     26  C   UNL     1      -1.171   3.456   9.353  0.00  0.00    +0.112 C 
ENDBRANCH   1  26
TORSDOF 3
