REMARK  Name = ZINC20207802
REMARK  10 active torsions:
REMARK  status: ('A' for Active; 'I' for Inactive)
REMARK    1  A    between atoms: C_1  and  C_2
REMARK    2  A    between atoms: C_3  and  C_26
REMARK    3  A    between atoms: N_9  and  C_12
REMARK    4  A    between atoms: C_12  and  C_13
REMARK    5  A    between atoms: C_18  and  C_19
REMARK    6  A    between atoms: C_26  and  N_27
REMARK    7  A    between atoms: C_28  and  C_30
REMARK    8  A    between atoms: C_33  and  C_35
REMARK    9  A    between atoms: C_35  and  O_36
REMARK   10  A    between atoms: O_36  and  C_37
REMARK                            x       y       z     vdW  Elec       q    Type
REMARK                         _______ _______ _______ _____ _____    ______ ____
ROOT
ATOM      1  C   UNL     1      -2.165   5.459   3.203  0.00  0.00    +0.063 C 
ATOM      2  C   UNL     1      -2.410   6.029   1.830  0.00  0.00    +0.018 A 
ATOM      3  C   UNL     1      -1.537   5.733   0.800  0.00  0.00    -0.008 A 
ATOM      4  C   UNL     1      -1.770   6.269  -0.459  0.00  0.00    -0.034 A 
ATOM      5  C   UNL     1      -2.878   7.072  -0.641  0.00  0.00    -0.014 A 
ATOM      6  C   UNL     1      -3.708   7.326   0.438  0.00  0.00    +0.087 A 
ATOM      7  N   UNL     1      -3.454   6.807   1.622  0.00  0.00    -0.364 N 
ATOM      8  C   UNL     1      -3.205   7.680  -1.978  0.00  0.00    +0.121 C 
ATOM      9  N   UNL     1      -2.030   7.647  -2.856  0.00  0.00    -0.294 NA
ATOM     10  C   UNL     1      -1.480   6.284  -2.925  0.00  0.00    +0.090 C 
ATOM     11  C   UNL     1      -0.823   5.955  -1.584  0.00  0.00    +0.051 C 
ATOM     12  H   UNL     1      -4.141   7.037   2.450  0.00  0.00    +0.165 HD
ENDROOT
BRANCH   9  13
ATOM     13  C   UNL     1      -2.360   8.150  -4.196  0.00  0.00    +0.123 C 
BRANCH  13  14
ATOM     14  C   UNL     1      -3.363   7.232  -4.845  0.00  0.00    +0.012 A 
ATOM     15  C   UNL     1      -4.702   7.408  -4.870  0.00  0.00    +0.110 A 
ATOM     16  N   UNL     1      -5.246   6.374  -5.548  0.00  0.00    -0.284 N 
ATOM     17  H   UNL     1      -6.335   6.324  -5.694  0.00  0.00    +0.188 HD
ATOM     18  N   UNL     1      -4.209   5.522  -5.949  0.00  0.00    -0.174 NA
ATOM     19  C   UNL     1      -3.072   6.035  -5.528  0.00  0.00    +0.097 A 
BRANCH  19  20
ATOM     20  C   UNL     1      -1.722   5.455  -5.736  0.00  0.00    +0.003 A 
ATOM     21  C   UNL     1      -0.659   6.274  -6.111  0.00  0.00    +0.013 A 
ATOM     22  C   UNL     1       0.595   5.731  -6.298  0.00  0.00    +0.039 A 
ATOM     23  C   UNL     1       0.797   4.372  -6.123  0.00  0.00    +0.123 A 
ATOM     24  C   UNL     1      -0.258   3.552  -5.756  0.00  0.00    +0.039 A 
ATOM     25  C   UNL     1      -1.515   4.088  -5.562  0.00  0.00    +0.013 A 
ATOM     26  F   UNL     1       2.026   3.843  -6.312  0.00  0.00    -0.205 F 
ENDBRANCH  19  20
ENDBRANCH  13  14
ENDBRANCH   9  13
BRANCH   3  27
ATOM     27  C   UNL     1      -0.344   4.844   1.042  0.00  0.00    +0.142 C 
BRANCH  27  28
ATOM     28  N   UNL     1      -0.717   3.449   0.796  0.00  0.00    -0.305 N 
ATOM     29  C   UNL     1       0.196   2.470   0.951  0.00  0.00    +0.280 C 
ATOM     30  O   UNL     1       1.331   2.745   1.295  0.00  0.00    -0.267 OA
ATOM     31  H   UNL     1      -1.742   3.200   0.485  0.00  0.00    +0.149 HD
BRANCH  29  32
ATOM     32  C   UNL     1      -0.177   1.073   0.705  0.00  0.00    +0.190 A 
ATOM     33  C   UNL     1       0.646  -0.010   0.823  0.00  0.00    +0.055 A 
ATOM     34  C   UNL     1      -0.122  -1.138   0.494  0.00  0.00    +0.048 A 
ATOM     35  C   UNL     1      -1.364  -0.699   0.192  0.00  0.00    +0.131 A 
ATOM     36  O   UNL     1      -1.393   0.634   0.320  0.00  0.00    -0.453 OA
BRANCH  35  37
ATOM     37  C   UNL     1      -2.525  -1.567  -0.221  0.00  0.00    +0.233 C 
BRANCH  37  38
ATOM     38  O   UNL     1      -3.252  -1.973   0.940  0.00  0.00    -0.375 OA
ATOM     39  C   UNL     1      -4.380  -2.804   0.658  0.00  0.00    +0.194 C 
ENDBRANCH  37  38
ENDBRANCH  35  37
ENDBRANCH  29  32
ENDBRANCH  27  28
ENDBRANCH   3  27
TORSDOF 8
