REMARK  Name = ZINC19808240
REMARK  7 active torsions:
REMARK  status: ('A' for Active; 'I' for Inactive)
REMARK    1  A    between atoms: C_1  and  C_2
REMARK    2  A    between atoms: C_2  and  C_25
REMARK    3  A    between atoms: N_3  and  N_4
REMARK    4  A    between atoms: C_5  and  C_7
REMARK    5  A    between atoms: C_8  and  C_18
REMARK    6  A    between atoms: C_18  and  N_19
REMARK    7  A    between atoms: C_29  and  N_31
REMARK                            x       y       z     vdW  Elec       q    Type
REMARK                         _______ _______ _______ _____ _____    ______ ____
ROOT
ATOM      1  C   UNL     1      -2.445   9.056  -0.643  0.00  0.00    +0.154 A 
ATOM      2  C   UNL     1      -3.540   9.879  -0.593  0.00  0.00    +0.079 A 
ATOM      3  N   UNL     1      -3.104  11.104  -0.888  0.00  0.00    -0.135 NA
ATOM      4  N   UNL     1      -1.838  11.067  -1.108  0.00  0.00    -0.058 NA
ATOM      5  N   UNL     1      -1.388   9.869  -0.971  0.00  0.00    -0.183 N 
ATOM      6  C   UNL     1      -0.058   9.467  -1.131  0.00  0.00    +0.241 A 
ATOM      7  C   UNL     1       1.083  10.353  -1.373  0.00  0.00    +0.206 A 
ATOM      8  N   UNL     1       2.159   9.621  -1.467  0.00  0.00    -0.032 NA
ATOM      9  O   UNL     1       1.778   8.267  -1.296  0.00  0.00    -0.239 OA
ATOM     10  N   UNL     1       0.378   8.239  -1.084  0.00  0.00    -0.027 NA
ATOM     11  N   UNL     1       1.030  11.738  -1.483  0.00  0.00    -0.337 N 
ATOM     12  H   UNL     1       1.950  12.312  -1.666  0.00  0.00    +0.144 HD
ATOM     13  H   UNL     1       0.066  12.261  -1.387  0.00  0.00    +0.144 HD
ENDROOT
BRANCH   1  15
ATOM     14  N   UNL     1      -1.971   7.139   0.793  0.00  0.00    -0.201 N 
ATOM     15  C   UNL     1      -2.409   7.607  -0.393  0.00  0.00    +0.284 C 
ATOM     16  O   UNL     1      -2.773   6.831  -1.256  0.00  0.00    -0.267 OA
ATOM     17  H   UNL     1      -1.573   7.835   1.546  0.00  0.00    +0.178 HD
BRANCH  14  20
ATOM     18  C   UNL     1      -1.393   6.299   3.354  0.00  0.00    +0.068 C 
ATOM     19  C   UNL     1      -1.701   5.326   2.244  0.00  0.00    +0.063 C 
ATOM     20  N   UNL     1      -2.024   5.766   1.067  0.00  0.00    -0.184 NA
BRANCH  19  21
ATOM     21  C   UNL     1      -1.634   3.875   2.497  0.00  0.00    -0.000 A 
ATOM     22  C   UNL     1      -1.287   3.398   3.763  0.00  0.00    +0.010 A 
ATOM     23  C   UNL     1      -1.226   2.039   3.991  0.00  0.00    +0.003 A 
ATOM     24  C   UNL     1      -1.510   1.149   2.970  0.00  0.00    +0.033 A 
ATOM     25  C   UNL     1      -1.849   1.614   1.712  0.00  0.00    +0.127 A 
ATOM     26  C   UNL     1      -1.919   2.970   1.471  0.00  0.00    +0.042 A 
BRANCH  25  27
ATOM     27  N   UNL     1      -2.145   0.654   0.625  0.00  0.00    +0.056 N 
ATOM     28  O   UNL     1      -2.088  -0.544   0.838  0.00  0.00    -0.126 OA
ATOM     29  O   UNL     1      -2.444   1.062  -0.483  0.00  0.00    -0.126 OA
ENDBRANCH  25  27
ENDBRANCH  19  21
ENDBRANCH  14  20
ENDBRANCH   1  15
BRANCH   2  30
ATOM     30  C   UNL     1      -4.956   9.479  -0.268  0.00  0.00    -0.018 C 
BRANCH  30  31
ATOM     31  N   UNL     1      -5.176   9.587   1.180  0.00  0.00    +0.383 N 
ATOM     32  C   UNL     1      -4.356   8.612   1.911  0.00  0.00    -0.078 C 
ATOM     33  C   UNL     1      -4.499   8.850   3.416  0.00  0.00    -0.019 C 
ATOM     34  C   UNL     1      -5.971   8.705   3.813  0.00  0.00    -0.004 C 
ATOM     35  C   UNL     1      -6.809   9.697   3.002  0.00  0.00    -0.019 C 
ATOM     36  C   UNL     1      -6.599   9.436   1.509  0.00  0.00    -0.078 C 
ATOM     37  H   UNL     1      -4.864  10.592   1.497  0.00  0.00    -0.081 HD
ENDBRANCH  30  31
ENDBRANCH   2  30
TORSDOF 6
