REMARK  Name = ZINC13079116
REMARK  9 active torsions:
REMARK  status: ('A' for Active; 'I' for Inactive)
REMARK    1  A    between atoms: C_1  and  C_2
REMARK    2  A    between atoms: C_4  and  C_26
REMARK    3  A    between atoms: C_6  and  S_9
REMARK    4  A    between atoms: C_7  and  C_8
REMARK    5  A    between atoms: S_9  and  N_12
REMARK    6  A    between atoms: N_12  and  N_13
REMARK    7  A    between atoms: C_14  and  C_16
REMARK    8  A    between atoms: C_16  and  S_17
REMARK    9  A    between atoms: S_17  and  C_18
REMARK                            x       y       z     vdW  Elec       q    Type
REMARK                         _______ _______ _______ _____ _____    ______ ____
ROOT
ATOM      1  N   UNL     1      -0.042   0.843  -0.038  0.00  0.00    -0.108 NA
ATOM      2  H   UNL     1      -0.160  -0.107   0.117  0.00  0.00    +0.172 HD
ENDROOT
BRANCH   1   3
ATOM      3  N   UNL     1       1.244   1.372  -0.201  0.00  0.00    -0.231 N 
ATOM      4  C   UNL     1       2.180   1.176   0.749  0.00  0.00    +0.238 C 
ATOM      5  O   UNL     1       1.907   0.541   1.746  0.00  0.00    -0.274 OA
ATOM      6  H   UNL     1       1.462   1.880  -0.999  0.00  0.00    +0.171 HD
BRANCH   4   7
ATOM      7  C   UNL     1       3.564   1.745   0.574  0.00  0.00    +0.171 C 
BRANCH   7   8
ATOM      8  S   UNL     1       4.582   1.313   2.011  0.00  0.00    -0.114 S 
BRANCH   8   9
ATOM      9  C   UNL     1       6.148   2.041   1.658  0.00  0.00    +0.028 A 
ATOM     10  C   UNL     1       6.339   2.742   0.474  0.00  0.00    +0.036 A 
ATOM     11  C   UNL     1       7.567   3.315   0.203  0.00  0.00    +0.042 A 
ATOM     12  C   UNL     1       8.609   3.182   1.105  0.00  0.00    +0.021 A 
ATOM     13  C   UNL     1       8.424   2.480   2.282  0.00  0.00    +0.022 A 
ATOM     14  C   UNL     1       7.197   1.909   2.562  0.00  0.00    +0.054 A 
ATOM     15 CL   UNL     1       6.966   1.028   4.040  0.00  0.00    -0.082 Cl
ATOM     16 CL   UNL     1       7.805   4.198  -1.272  0.00  0.00    -0.084 Cl
ENDBRANCH   8   9
ENDBRANCH   7   8
ENDBRANCH   4   7
ENDBRANCH   1   3
BRANCH   1  17
ATOM     17  S   UNL     1      -1.363   1.839  -0.116  0.00  0.00    +0.074 S 
ATOM     18  O   UNL     1      -2.508   0.998  -0.087  0.00  0.00    -0.152 OA
ATOM     19  O   UNL     1      -1.151   2.871   0.838  0.00  0.00    -0.152 OA
BRANCH  17  25
ATOM     20  C   UNL     1      -1.674   1.593  -5.328  0.00  0.00    +0.044 C 
ATOM     21  C   UNL     1      -1.494   2.436  -4.091  0.00  0.00    -0.045 A 
ATOM     22  C   UNL     1      -1.314   3.799  -4.207  0.00  0.00    +0.018 A 
ATOM     23  C   UNL     1      -1.147   4.578  -3.061  0.00  0.00    +0.065 A 
ATOM     24  C   UNL     1      -1.163   3.971  -1.803  0.00  0.00    +0.044 A 
ATOM     25  C   UNL     1      -1.343   2.607  -1.702  0.00  0.00    +0.111 A 
ATOM     26  C   UNL     1      -1.503   1.840  -2.843  0.00  0.00    -0.021 A 
ATOM     27  C   UNL     1      -1.693   0.350  -2.724  0.00  0.00    +0.046 C 
BRANCH  23  28
ATOM     28  C   UNL     1      -0.953   6.038  -3.178  0.00  0.00    +0.387 C 
ATOM     29  O   UNL     1      -0.808   6.713  -2.178  0.00  0.00    -0.241 OA
ATOM     30  O   UNL     1      -0.939   6.620  -4.392  0.00  0.00    -0.241 OA
ENDBRANCH  23  28
ENDBRANCH  17  25
ENDBRANCH   1  17
TORSDOF 7
