REMARK  Name = ZINC66675119
REMARK  9 active torsions:
REMARK  status: ('A' for Active; 'I' for Inactive)
REMARK    1  A    between atoms: C_1  and  C_2
REMARK    2  A    between atoms: C_2  and  N_3
REMARK    3  A    between atoms: N_3  and  C_4
REMARK    4  A    between atoms: C_10  and  C_12
REMARK    5  A    between atoms: C_13  and  C_15
REMARK    6  A    between atoms: C_15  and  S_16
REMARK    7  A    between atoms: S_16  and  C_17
REMARK    8  A    between atoms: C_19  and  C_24
REMARK    9  A    between atoms: C_21  and  C_23
REMARK                            x       y       z     vdW  Elec       q    Type
REMARK                         _______ _______ _______ _____ _____    ______ ____
ROOT
ATOM      1  N   UNL     1       0.775  -0.579  -1.390  0.00  0.00    -0.298 N 
ATOM      2  C   UNL     1       0.027  -0.676  -2.507  0.00  0.00    +0.226 C 
ATOM      3  O   UNL     1       0.561  -0.859  -3.581  0.00  0.00    -0.275 OA
ENDROOT
BRANCH   1   4
ATOM      4  C   UNL     1       2.234  -0.676  -1.475  0.00  0.00    +0.079 C 
ATOM      5  C   UNL     1       2.822  -0.756  -0.065  0.00  0.00    +0.023 C 
ATOM      6  C   UNL     1       2.440   0.500   0.719  0.00  0.00    +0.002 C 
ATOM      7  C   UNL     1       2.992   1.735   0.005  0.00  0.00    +0.000 C 
ATOM      8  C   UNL     1       2.404   1.815  -1.405  0.00  0.00    +0.005 C 
ATOM      9  C   UNL     1       2.787   0.559  -2.189  0.00  0.00    +0.006 C 
ATOM     10  C   UNL     1       2.198   0.638  -3.599  0.00  0.00    +0.009 C 
ENDBRANCH   1   4
BRANCH   1  12
ATOM     11  C   UNL     1      -0.223   1.102   0.079  0.00  0.00    +0.024 C 
ATOM     12  C   UNL     1       0.128  -0.378  -0.091  0.00  0.00    +0.105 C 
ENDBRANCH   1  12
BRANCH   2  13
ATOM     13  C   UNL     1      -1.473  -0.556  -2.423  0.00  0.00    +0.173 C 
BRANCH  13  14
ATOM     14  S   UNL     1      -2.188  -0.728  -4.081  0.00  0.00    -0.077 S 
BRANCH  14  15
ATOM     15  C   UNL     1      -3.922  -0.567  -3.817  0.00  0.00    +0.189 A 
ATOM     16  N   UNL     1      -4.373  -0.364  -2.587  0.00  0.00    -0.227 NA
ATOM     17  C   UNL     1      -5.669  -0.238  -2.354  0.00  0.00    +0.043 A 
ATOM     18  C   UNL     1      -6.558  -0.322  -3.415  0.00  0.00    +0.046 A 
ATOM     19  C   UNL     1      -6.053  -0.535  -4.688  0.00  0.00    +0.043 A 
ATOM     20  N   UNL     1      -4.745  -0.647  -4.853  0.00  0.00    -0.227 NA
ATOM     21  C   UNL     1      -6.982  -0.634  -5.870  0.00  0.00    +0.066 C 
ATOM     22  C   UNL     1      -6.173  -0.008  -0.953  0.00  0.00    +0.066 C 
ENDBRANCH  14  15
ENDBRANCH  13  14
ENDBRANCH   2  13
TORSDOF 5
