REMARK  Name = ZINC14867951
REMARK  12 active torsions:
REMARK  status: ('A' for Active; 'I' for Inactive)
REMARK    1  A    between atoms: C_1  and  C_2
REMARK    2  A    between atoms: C_2  and  O_3
REMARK    3  A    between atoms: O_3  and  C_4
REMARK    4  A    between atoms: C_7  and  S_13
REMARK    5  A    between atoms: C_9  and  O_10
REMARK    6  A    between atoms: O_10  and  C_11
REMARK    7  A    between atoms: C_11  and  C_12
REMARK    8  A    between atoms: S_13  and  N_16
REMARK    9  A    between atoms: N_16  and  C_17
REMARK   10  A    between atoms: C_20  and  S_23
REMARK   11  A    between atoms: S_23  and  N_26
REMARK   12  A    between atoms: N_29  and  C_32
REMARK                            x       y       z     vdW  Elec       q    Type
REMARK                         _______ _______ _______ _____ _____    ______ ____
ROOT
ATOM      1  N   UNL     1      -2.075  -6.844   1.568  0.00  0.00    -0.098 NA
ENDROOT
BRANCH   1   2
ATOM      2  C   UNL     1      -2.230  -8.198   1.871  0.00  0.00    +0.074 A 
ATOM      3  C   UNL     1      -2.337  -9.133   0.850  0.00  0.00    +0.028 A 
ATOM      4  C   UNL     1      -2.490 -10.472   1.153  0.00  0.00    +0.030 A 
ATOM      5  C   UNL     1      -2.537 -10.882   2.473  0.00  0.00    +0.106 A 
ATOM      6  C   UNL     1      -2.430  -9.954   3.493  0.00  0.00    +0.030 A 
ATOM      7  C   UNL     1      -2.271  -8.614   3.196  0.00  0.00    +0.028 A 
BRANCH   5   8
ATOM      8  S   UNL     1      -2.733 -12.590   2.856  0.00  0.00    +0.061 S 
ATOM      9  O   UNL     1      -3.294 -12.652   4.161  0.00  0.00    -0.153 OA
ATOM     10  O   UNL     1      -3.357 -13.190   1.730  0.00  0.00    -0.153 OA
BRANCH   8  11
ATOM     11  N   UNL     1      -1.216 -13.246   2.962  0.00  0.00    -0.174 NA
ATOM     12  C   UNL     1      -0.554 -13.812   1.776  0.00  0.00    +0.125 C 
ATOM     13  C   UNL     1       0.845 -13.198   1.661  0.00  0.00    +0.101 C 
ATOM     14  N   UNL     1       1.567 -13.390   2.926  0.00  0.00    -0.303 NA
ATOM     15  C   UNL     1       0.902 -12.685   4.030  0.00  0.00    +0.101 C 
ATOM     16  C   UNL     1      -0.492 -13.272   4.242  0.00  0.00    +0.125 C 
ATOM     17  C   UNL     1       2.969 -12.970   2.801  0.00  0.00    +0.105 C 
ENDBRANCH   8  11
ENDBRANCH   5   8
ENDBRANCH   1   2
BRANCH   1  18
ATOM     18  S   UNL     1      -2.026  -6.350  -0.012  0.00  0.00    +0.092 S 
ATOM     19  O   UNL     1      -3.312  -6.607  -0.558  0.00  0.00    -0.148 OA
ATOM     20  O   UNL     1      -0.838  -6.894  -0.571  0.00  0.00    -0.148 OA
BRANCH  18  24
ATOM     21  C   UNL     1      -1.498  -1.849   0.006  0.00  0.00    +0.162 A 
ATOM     22  C   UNL     1      -0.389  -2.680  -0.003  0.00  0.00    +0.051 A 
ATOM     23  C   UNL     1      -0.553  -4.052  -0.008  0.00  0.00    +0.033 A 
ATOM     24  C   UNL     1      -1.823  -4.600  -0.005  0.00  0.00    +0.114 A 
ATOM     25  C   UNL     1      -2.934  -3.777   0.004  0.00  0.00    +0.078 A 
ATOM     26  C   UNL     1      -2.776  -2.400   0.016  0.00  0.00    +0.164 A 
BRANCH  21  27
ATOM     27  O   UNL     1      -1.339  -0.499   0.012  0.00  0.00    -0.489 OA
BRANCH  27  29
ATOM     28  C   UNL     1      -0.019   1.526   0.010  0.00  0.00    +0.048 C 
ATOM     29  C   UNL     1       0.002  -0.004   0.002  0.00  0.00    +0.226 C 
ENDBRANCH  27  29
ENDBRANCH  21  27
BRANCH  26  30
ATOM     30  O   UNL     1      -3.868  -1.589   0.030  0.00  0.00    -0.489 OA
BRANCH  30  31
ATOM     31  C   UNL     1      -5.148  -2.225   0.039  0.00  0.00    +0.226 C 
ATOM     32  C   UNL     1      -6.246  -1.159   0.055  0.00  0.00    +0.048 C 
ENDBRANCH  30  31
ENDBRANCH  26  30
ENDBRANCH  18  24
ENDBRANCH   1  18
TORSDOF 9
