REMARK  Name = ZINC11855546
REMARK  9 active torsions:
REMARK  status: ('A' for Active; 'I' for Inactive)
REMARK    1  A    between atoms: C_1  and  C_2
REMARK    2  A    between atoms: C_2  and  C_3
REMARK    3  A    between atoms: C_2  and  C_4
REMARK    4  A    between atoms: C_13  and  N_22
REMARK    5  A    between atoms: C_15  and  C_17
REMARK    6  A    between atoms: C_23  and  C_25
REMARK    7  A    between atoms: C_25  and  C_26
REMARK    8  A    between atoms: C_25  and  C_27
REMARK    9  A    between atoms: C_25  and  C_28
REMARK                            x       y       z     vdW  Elec       q    Type
REMARK                         _______ _______ _______ _____ _____    ______ ____
ROOT
ATOM      1  C   UNL     1      -3.567  -0.505   0.057  0.00  0.00    +0.053 A 
ATOM      2  C   UNL     1      -4.723   0.212  -0.036  0.00  0.00    +0.093 A 
ATOM      3  C   UNL     1      -4.648   1.615  -0.121  0.00  0.00    +0.253 A 
ATOM      4  O   UNL     1      -5.662   2.288  -0.206  0.00  0.00    -0.268 OA
ATOM      5  N   UNL     1      -3.432   2.201  -0.101  0.00  0.00    -0.291 N 
ATOM      6  H   UNL     1      -3.356   3.166  -0.155  0.00  0.00    +0.172 HD
ATOM      7  C   UNL     1      -2.313   1.433  -0.011  0.00  0.00    +0.234 A 
ATOM      8  N   UNL     1      -2.392   0.122   0.067  0.00  0.00    -0.217 NA
ATOM      9  N   UNL     1      -1.073   2.040   0.003  0.00  0.00    -0.185 N 
ATOM     10  C   UNL     1       0.134   1.401  -0.012  0.00  0.00    +0.132 A 
ATOM     11  C   UNL     1       1.103   2.351   0.005  0.00  0.00    +0.074 A 
ATOM     12  C   UNL     1       0.471   3.612   0.038  0.00  0.00    +0.102 A 
ATOM     13  N   UNL     1      -0.832   3.419   0.040  0.00  0.00    -0.162 NA
ENDROOT
BRANCH  12  14
ATOM     14  C   UNL     1       1.154   4.923   0.065  0.00  0.00    +0.039 A 
ATOM     15  C   UNL     1       0.609   6.179   0.098  0.00  0.00    +0.018 A 
ATOM     16  C   UNL     1       1.454   7.267   0.118  0.00  0.00    +0.008 A 
ATOM     17  C   UNL     1       2.796   7.063   0.106  0.00  0.00    +0.046 A 
ATOM     18  S   UNL     1       2.903   5.281   0.072  0.00  0.00    -0.095 S 
ENDBRANCH  12  14
BRANCH  10  19
ATOM     19  N   UNL     1       0.335   0.023  -0.046  0.00  0.00    -0.270 N 
ATOM     20  C   UNL     1       1.581  -0.474  -0.179  0.00  0.00    +0.225 C 
ATOM     21  O   UNL     1       2.527   0.279  -0.270  0.00  0.00    -0.275 OA
ATOM     22  H   UNL     1      -0.422  -0.579   0.026  0.00  0.00    +0.156 HD
BRANCH  20  23
ATOM     23  C   UNL     1       1.797  -1.965  -0.216  0.00  0.00    +0.055 C 
ATOM     24  C   UNL     1       1.289  -2.586   1.086  0.00  0.00    +0.022 C 
ATOM     25  C   UNL     1       1.032  -2.562  -1.399  0.00  0.00    +0.022 C 
BRANCH  23  26
ATOM     26  C   UNL     1       3.290  -2.259  -0.373  0.00  0.00    +0.124 C 
ATOM     27 CL   UNL     1       3.550  -4.043  -0.417  0.00  0.00    -0.124 Cl
ENDBRANCH  23  26
ENDBRANCH  20  23
ENDBRANCH  10  19
BRANCH   1  29
ATOM     28  C   UNL     1      -2.863  -2.618  -1.033  0.00  0.00    +0.014 C 
ATOM     29  C   UNL     1      -3.618  -2.008   0.149  0.00  0.00    +0.032 C 
ATOM     30  C   UNL     1      -2.968  -2.462   1.458  0.00  0.00    +0.014 C 
ENDBRANCH   1  29
TORSDOF 5
