REMARK  Name = ZINC34979190
REMARK  13 active torsions:
REMARK  status: ('A' for Active; 'I' for Inactive)
REMARK    1  A    between atoms: C_1  and  C_2
REMARK    2  A    between atoms: C_2  and  C_3
REMARK    3  A    between atoms: C_3  and  C_5
REMARK    4  A    between atoms: C_3  and  C_6
REMARK    5  A    between atoms: C_6  and  C_8
REMARK    6  A    between atoms: C_6  and  N_27
REMARK    7  A    between atoms: C_14  and  C_17
REMARK    8  A    between atoms: C_18  and  C_20
REMARK    9  A    between atoms: C_20  and  C_21
REMARK   10  A    between atoms: C_21  and  C_22
REMARK   11  A    between atoms: C_28  and  C_30
REMARK   12  A    between atoms: C_30  and  C_31
REMARK   13  A    between atoms: C_30  and  C_37
REMARK                            x       y       z     vdW  Elec       q    Type
REMARK                         _______ _______ _______ _____ _____    ______ ____
ROOT
ATOM      1  C   UNL     1      -0.125  -1.122  -0.139  0.00  0.00    +0.162 C 
ENDROOT
BRANCH   1   2
ATOM      2  C   UNL     1       0.079  -1.207  -1.629  0.00  0.00    +0.236 C 
ATOM      3  O   UNL     1      -0.824  -1.586  -2.344  0.00  0.00    -0.274 OA
ATOM      4  N   UNL     1       1.266  -0.862  -2.168  0.00  0.00    -0.297 N 
ATOM      5  C   UNL     1       2.402  -0.505  -1.308  0.00  0.00    +0.127 C 
ATOM      6  C   UNL     1       2.908   0.885  -1.714  0.00  0.00    +0.127 C 
ATOM      7  N   UNL     1       3.088   0.911  -3.172  0.00  0.00    -0.296 N 
ATOM      8  C   UNL     1       1.951   0.554  -4.033  0.00  0.00    +0.090 C 
ATOM      9  C   UNL     1       1.447  -0.841  -3.626  0.00  0.00    +0.130 C 
ATOM     10  C   UNL     1       0.832   1.583  -3.858  0.00  0.00    +0.029 C 
ATOM     11  C   UNL     1       4.274   1.256  -3.711  0.00  0.00    +0.216 C 
ATOM     12  O   UNL     1       4.410   1.274  -4.916  0.00  0.00    -0.276 OA
BRANCH  11  13
ATOM     13  C   UNL     1       5.431   1.620  -2.816  0.00  0.00    +0.096 C 
BRANCH  13  14
ATOM     14  C   UNL     1       6.649   1.969  -3.674  0.00  0.00    +0.013 C 
BRANCH  14  15
ATOM     15  C   UNL     1       7.823   2.338  -2.765  0.00  0.00    -0.011 C 
ATOM     16  C   UNL     1       7.530   3.666  -2.036  0.00  0.00    +0.003 C 
ATOM     17  C   UNL     1       8.902   4.383  -1.987  0.00  0.00    +0.000 C 
ATOM     18  C   UNL     1       9.521   4.030  -3.362  0.00  0.00    +0.000 C 
ATOM     19  C   UNL     1       9.089   2.570  -3.608  0.00  0.00    +0.003 C 
ENDBRANCH  14  15
ENDBRANCH  13  14
ENDBRANCH  11  13
ENDBRANCH   1   2
BRANCH   1  20
ATOM     20  N   UNL     1      -1.267  -1.954   0.246  0.00  0.00    -0.303 N 
ATOM     21  C   UNL     1      -1.351  -2.446   1.498  0.00  0.00    +0.225 C 
ATOM     22  O   UNL     1      -0.480  -2.200   2.306  0.00  0.00    -0.275 OA
ATOM     23  H   UNL     1      -1.963  -2.152  -0.400  0.00  0.00    +0.149 HD
BRANCH  21  24
ATOM     24  C   UNL     1      -2.525  -3.303   1.894  0.00  0.00    +0.135 C 
BRANCH  24  25
ATOM     25  C   UNL     1      -2.572  -4.528   1.018  0.00  0.00    -0.031 A 
ATOM     26  C   UNL     1      -1.450  -5.324   0.882  0.00  0.00    +0.005 A 
ATOM     27  C   UNL     1      -1.492  -6.447   0.078  0.00  0.00    +0.000 A 
ATOM     28  C   UNL     1      -2.657  -6.776  -0.589  0.00  0.00    +0.000 A 
ATOM     29  C   UNL     1      -3.780  -5.981  -0.453  0.00  0.00    +0.000 A 
ATOM     30  C   UNL     1      -3.738  -4.859   0.354  0.00  0.00    +0.005 A 
ENDBRANCH  24  25
BRANCH  24  31
ATOM     31  C   UNL     1      -2.380  -3.721   3.335  0.00  0.00    -0.031 A 
ATOM     32  C   UNL     1      -1.218  -4.338   3.761  0.00  0.00    +0.005 A 
ATOM     33  C   UNL     1      -1.084  -4.721   5.082  0.00  0.00    +0.000 A 
ATOM     34  C   UNL     1      -2.111  -4.487   5.978  0.00  0.00    +0.000 A 
ATOM     35  C   UNL     1      -3.272  -3.869   5.551  0.00  0.00    +0.000 A 
ATOM     36  C   UNL     1      -3.405  -3.482   4.231  0.00  0.00    +0.005 A 
ENDBRANCH  24  31
ENDBRANCH  21  24
ENDBRANCH   1  20
BRANCH   1  37
ATOM     37  C   UNL     1      -0.397   0.331   0.257  0.00  0.00    +0.015 C 
ATOM     38  C   UNL     1      -0.452   0.443   1.782  0.00  0.00    +0.010 C 
BRANCH  37  40
ATOM     39  C   UNL     1      -1.947   2.267  -0.047  0.00  0.00    +0.004 C 
ATOM     40  C   UNL     1      -1.734   0.779  -0.336  0.00  0.00    +0.002 C 
ENDBRANCH  37  40
ENDBRANCH   1  37
TORSDOF 10
