REMARK  Name = ZINC21603791
REMARK  10 active torsions:
REMARK  status: ('A' for Active; 'I' for Inactive)
REMARK    1  A    between atoms: C_1  and  C_2
REMARK    2  A    between atoms: C_2  and  C_4
REMARK    3  A    between atoms: C_2  and  S_16
REMARK    4  A    between atoms: N_6  and  C_7
REMARK    5  A    between atoms: C_12  and  C_13
REMARK    6  A    between atoms: C_13  and  C_15
REMARK    7  A    between atoms: S_16  and  C_17
REMARK    8  A    between atoms: C_20  and  C_29
REMARK    9  A    between atoms: N_21  and  C_22
REMARK   10  A    between atoms: C_22  and  C_23
REMARK                            x       y       z     vdW  Elec       q    Type
REMARK                         _______ _______ _______ _____ _____    ______ ____
ROOT
ATOM      1  C   UNL     1       4.722   1.213   1.349  0.00  0.00    +0.193 A 
ATOM      2  N   UNL     1       4.508   0.006   0.880  0.00  0.00    -0.122 NA
ATOM      3  N   UNL     1       5.521  -0.748   1.117  0.00  0.00    -0.128 NA
ATOM      4  C   UNL     1       6.447  -0.067   1.753  0.00  0.00    +0.167 A 
ATOM      5  N   UNL     1       5.967   1.212   1.917  0.00  0.00    -0.300 N 
ENDROOT
BRANCH   4   6
ATOM      6  C   UNL     1       7.759  -0.576   2.202  0.00  0.00    +0.044 A 
ATOM      7  C   UNL     1       8.964   0.025   2.031  0.00  0.00    +0.095 A 
ATOM      8  N   UNL     1       9.947  -0.747   2.581  0.00  0.00    -0.360 N 
ATOM      9  H   UNL     1      10.995  -0.417   2.537  0.00  0.00    +0.165 HD
ATOM     10  C   UNL     1       9.403  -1.887   3.132  0.00  0.00    +0.047 A 
ATOM     11  C   UNL     1       8.014  -1.832   2.928  0.00  0.00    +0.010 A 
ATOM     12  C   UNL     1       7.199  -2.862   3.393  0.00  0.00    +0.011 A 
ATOM     13  C   UNL     1       7.761  -3.931   4.055  0.00  0.00    +0.001 A 
ATOM     14  C   UNL     1       9.132  -3.985   4.261  0.00  0.00    +0.002 A 
ATOM     15  C   UNL     1       9.952  -2.978   3.799  0.00  0.00    +0.026 A 
ENDBRANCH   4   6
BRANCH   1  16
ATOM     16  S   UNL     1       3.616   2.581   1.258  0.00  0.00    -0.074 S 
BRANCH  16  18
ATOM     17  C   UNL     1       2.677   1.415  -1.027  0.00  0.00    +0.029 C 
ATOM     18  C   UNL     1       2.232   1.809   0.383  0.00  0.00    +0.137 C 
BRANCH  18  19
ATOM     19  C   UNL     1       1.087   2.785   0.294  0.00  0.00    +0.230 C 
ATOM     20  O   UNL     1       1.302   3.977   0.341  0.00  0.00    -0.274 OA
ATOM     21  N   UNL     1      -0.175   2.332   0.162  0.00  0.00    -0.284 N 
ATOM     22  H   UNL     1      -0.363   1.254   0.043  0.00  0.00    +0.155 HD
BRANCH  21  23
ATOM     23  C   UNL     1      -1.241   3.226   0.178  0.00  0.00    +0.044 A 
ATOM     24  C   UNL     1      -1.111   4.477  -0.410  0.00  0.00    +0.024 A 
ATOM     25  C   UNL     1      -2.170   5.361  -0.398  0.00  0.00    +0.002 A 
ATOM     26  C   UNL     1      -3.368   5.015   0.209  0.00  0.00    +0.001 A 
ATOM     27  C   UNL     1      -3.516   3.782   0.803  0.00  0.00    +0.013 A 
ATOM     28  C   UNL     1      -2.453   2.871   0.795  0.00  0.00    +0.038 A 
BRANCH  28  29
ATOM     29  C   UNL     1      -2.603   1.555   1.426  0.00  0.00    +0.162 C 
ATOM     30  O   UNL     1      -1.652   0.805   1.498  0.00  0.00    -0.292 OA
ATOM     31  C   UNL     1      -3.938   1.135   1.986  0.00  0.00    +0.091 C 
ENDBRANCH  28  29
ENDBRANCH  21  23
ENDBRANCH  18  19
ENDBRANCH  16  18
ENDBRANCH   1  16
BRANCH   5  32
ATOM     32  C   UNL     1       6.645   2.336   2.567  0.00  0.00    +0.157 C 
BRANCH  32  33
ATOM     33  C   UNL     1       6.254   2.382   4.045  0.00  0.00    +0.138 C 
ATOM     34  C   UNL     1       7.003   3.533   4.764  0.00  0.00    +0.035 C 
ATOM     35  C   UNL     1       6.043   3.812   5.953  0.00  0.00    +0.031 C 
ATOM     36  C   UNL     1       4.659   3.536   5.328  0.00  0.00    +0.160 C 
ATOM     37  O   UNL     1       4.860   2.699   4.183  0.00  0.00    -0.375 OA
ENDBRANCH  32  33
ENDBRANCH   5  32
TORSDOF 8
