REMARK  Name = ZINC19283837
REMARK  10 active torsions:
REMARK  status: ('A' for Active; 'I' for Inactive)
REMARK    1  A    between atoms: C_1  and  C_2
REMARK    2  A    between atoms: C_2  and  C_3
REMARK    3  A    between atoms: C_3  and  C_4
REMARK    4  A    between atoms: C_3  and  C_6
REMARK    5  A    between atoms: C_3  and  N_8
REMARK    6  A    between atoms: C_4  and  C_5
REMARK    7  A    between atoms: C_9  and  C_11
REMARK    8  A    between atoms: C_11  and  S_12
REMARK    9  A    between atoms: S_12  and  C_13
REMARK   10  A    between atoms: N_17  and  C_18
REMARK                            x       y       z     vdW  Elec       q    Type
REMARK                         _______ _______ _______ _____ _____    ______ ____
ROOT
ATOM      1  C   UNL     1      -3.131   0.638  -1.086  0.00  0.00    +0.198 A 
ATOM      2  N   UNL     1      -4.198  -0.005  -0.677  0.00  0.00    -0.120 NA
ATOM      3  N   UNL     1      -4.191  -0.012   0.724  0.00  0.00    -0.112 NA
ATOM      4  C   UNL     1      -3.117   0.622   1.127  0.00  0.00    +0.225 A 
ATOM      5  N   UNL     1      -2.430   1.038   0.020  0.00  0.00    -0.257 N 
ATOM      6  N   UNL     1      -2.742   0.833   2.448  0.00  0.00    -0.299 N 
ATOM      7  C   UNL     1      -2.704   2.283   2.765  0.00  0.00    +0.108 C 
ATOM      8  C   UNL     1      -2.801   2.311   4.311  0.00  0.00    +0.020 C 
ATOM      9  C   UNL     1      -3.785   1.157   4.617  0.00  0.00    +0.020 C 
ATOM     10  C   UNL     1      -3.726   0.241   3.380  0.00  0.00    +0.108 C 
ENDROOT
BRANCH   5  11
ATOM     11  C   UNL     1      -1.224   1.754   0.017  0.00  0.00    +0.070 A 
ATOM     12  C   UNL     1      -0.013   1.076   0.008  0.00  0.00    +0.028 A 
ATOM     13  C   UNL     1       1.174   1.783   0.000  0.00  0.00    +0.002 A 
ATOM     14  C   UNL     1       1.157   3.166   0.007  0.00  0.00    +0.002 A 
ATOM     15  C   UNL     1      -0.048   3.845   0.022  0.00  0.00    +0.022 A 
ATOM     16  C   UNL     1      -1.238   3.143   0.030  0.00  0.00    +0.065 A 
ATOM     17 CL   UNL     1      -2.750   3.996   0.049  0.00  0.00    -0.081 Cl
ENDBRANCH   5  11
BRANCH   1  18
ATOM     18  S   UNL     1      -2.677   0.931  -2.763  0.00  0.00    -0.076 S 
BRANCH  18  19
ATOM     19  C   UNL     1      -4.008   0.155  -3.720  0.00  0.00    +0.173 C 
BRANCH  19  21
ATOM     20  N   UNL     1      -4.602  -0.164  -6.100  0.00  0.00    -0.298 N 
ATOM     21  C   UNL     1      -3.740   0.335  -5.192  0.00  0.00    +0.224 C 
ATOM     22  O   UNL     1      -2.748   0.928  -5.559  0.00  0.00    -0.275 OA
ATOM     23  H   UNL     1      -5.501  -0.702  -5.767  0.00  0.00    +0.150 HD
BRANCH  20  24
ATOM     24  C   UNL     1      -4.340   0.011  -7.531  0.00  0.00    +0.095 C 
BRANCH  24  26
ATOM     25  C   UNL     1      -3.066  -2.138  -7.561  0.00  0.00    +0.007 C 
ATOM     26  C   UNL     1      -3.006  -0.644  -7.890  0.00  0.00    +0.035 C 
ENDBRANCH  24  26
BRANCH  24  27
ATOM     27  C   UNL     1      -5.463  -0.643  -8.338  0.00  0.00    +0.035 C 
ATOM     28  C   UNL     1      -5.191  -0.460  -9.833  0.00  0.00    +0.007 C 
ENDBRANCH  24  27
BRANCH  24  29
ATOM     29  C   UNL     1      -4.282   1.448  -7.847  0.00  0.00    -0.080 C 
ATOM     30  C   UNL     1      -4.235   2.594  -8.099  0.00  0.00    +0.006 C 
ENDBRANCH  24  29
ENDBRANCH  20  24
ENDBRANCH  19  21
ENDBRANCH  18  19
ENDBRANCH   1  18
TORSDOF 8
