REMARK  Name = ZINC53074758
REMARK  7 active torsions:
REMARK  status: ('A' for Active; 'I' for Inactive)
REMARK    1  A    between atoms: C_1  and  N_2
REMARK    2  A    between atoms: C_4  and  S_18
REMARK    3  A    between atoms: C_6  and  C_7
REMARK    4  A    between atoms: N_9  and  C_10
REMARK    5  A    between atoms: C_10  and  C_16
REMARK    6  A    between atoms: C_16  and  O_17
REMARK    7  A    between atoms: S_18  and  N_21
REMARK                            x       y       z     vdW  Elec       q    Type
REMARK                         _______ _______ _______ _____ _____    ______ ____
ROOT
ATOM      1  C   UNL     1      -0.293  -0.248   2.374  0.00  0.00    +0.261 C 
ATOM      2  O   UNL     1      -0.384  -1.131   3.207  0.00  0.00    -0.269 OA
ATOM      3  N   UNL     1      -0.339   1.044   2.754  0.00  0.00    -0.302 N 
ATOM      4  H   UNL     1      -0.333   1.747   2.085  0.00  0.00    +0.150 HD
ENDROOT
BRANCH   1  10
ATOM      5  C   UNL     1      -0.363  -3.100   1.167  0.00  0.00    +0.149 C 
ATOM      6  N   UNL     1      -0.164  -1.857   0.418  0.00  0.00    -0.344 N 
ATOM      7  C   UNL     1       0.016  -1.762  -0.922  0.00  0.00    +0.114 A 
ATOM      8  C   UNL     1       0.166  -0.457  -1.253  0.00  0.00    +0.123 A 
ATOM      9  C   UNL     1       0.078   0.296  -0.077  0.00  0.00    +0.061 A 
ATOM     10  C   UNL     1      -0.133  -0.591   0.957  0.00  0.00    +0.106 A 
BRANCH   8  11
ATOM     11  S   UNL     1       0.426   0.179  -2.875  0.00  0.00    +0.057 S 
ATOM     12  O   UNL     1       1.068   1.437  -2.720  0.00  0.00    -0.153 OA
ATOM     13  O   UNL     1       0.993  -0.876  -3.639  0.00  0.00    -0.153 OA
BRANCH  11  14
ATOM     14  N   UNL     1      -1.066   0.486  -3.526  0.00  0.00    -0.203 NA
ATOM     15  H   UNL     1      -1.175   1.199  -4.174  0.00  0.00    +0.144 HD
ATOM     16  H   UNL     1      -1.831  -0.048  -3.258  0.00  0.00    +0.144 HD
ENDBRANCH  11  14
ENDBRANCH   8  11
ENDBRANCH   1  10
BRANCH   3  17
ATOM     17  C   UNL     1      -0.398   1.388   4.176  0.00  0.00    +0.058 C 
ATOM     18  C   UNL     1      -1.572   0.656   4.830  0.00  0.00    +0.028 C 
ATOM     19  C   UNL     1      -2.877   1.074   4.150  0.00  0.00    +0.002 C 
ATOM     20  C   UNL     1      -3.070   2.584   4.302  0.00  0.00    +0.000 C 
ATOM     21  C   UNL     1      -1.896   3.317   3.648  0.00  0.00    +0.002 C 
ATOM     22  C   UNL     1      -0.591   2.898   4.329  0.00  0.00    +0.028 C 
BRANCH  17  23
ATOM     23  C   UNL     1       0.907   0.970   4.857  0.00  0.00    +0.181 C 
BRANCH  23  24
ATOM     24  O   UNL     1       1.141  -0.421   4.624  0.00  0.00    -0.393 OA
ATOM     25  H   UNL     1       1.953  -0.756   5.028  0.00  0.00    +0.209 HD
ENDBRANCH  23  24
ENDBRANCH  17  23
ENDBRANCH   3  17
TORSDOF 6
