REMARK  Name = ZINC12899034
REMARK  6 active torsions:
REMARK  status: ('A' for Active; 'I' for Inactive)
REMARK    1  A    between atoms: C_1  and  C_2
REMARK    2  A    between atoms: C_5  and  C_34
REMARK    3  A    between atoms: N_8  and  S_10
REMARK    4  A    between atoms: S_10  and  C_13
REMARK    5  A    between atoms: C_17  and  C_19
REMARK    6  A    between atoms: C_26  and  C_28
REMARK                            x       y       z     vdW  Elec       q    Type
REMARK                         _______ _______ _______ _____ _____    ______ ____
ROOT
ATOM      1  C   UNL     1       2.547  -3.268  -0.217  0.00  0.00    +0.106 A 
ATOM      2  C   UNL     1       2.078  -4.392  -0.874  0.00  0.00    +0.028 A 
ATOM      3  C   UNL     1       2.503  -4.677  -2.160  0.00  0.00    +0.003 A 
ATOM      4  C   UNL     1       3.398  -3.842  -2.795  0.00  0.00    +0.013 A 
ATOM      5  C   UNL     1       3.876  -2.706  -2.138  0.00  0.00    +0.039 A 
ATOM      6  C   UNL     1       3.438  -2.421  -0.843  0.00  0.00    +0.041 A 
ENDROOT
BRANCH   5   7
ATOM      7  C   UNL     1       4.835  -1.807  -2.812  0.00  0.00    +0.250 C 
ATOM      8  O   UNL     1       5.249  -0.819  -2.237  0.00  0.00    -0.270 OA
ATOM      9  N   UNL     1       5.252  -2.082  -4.064  0.00  0.00    -0.251 N 
ATOM     10  C   UNL     1       6.152  -1.238  -4.696  0.00  0.00    +0.218 A 
ATOM     11  N   UNL     1       6.691  -0.117  -4.171  0.00  0.00    -0.246 N 
ATOM     12  H   UNL     1       6.524   0.249  -3.289  0.00  0.00    +0.192 HD
ATOM     13  N   UNL     1       7.541   0.415  -5.154  0.00  0.00    -0.151 NA
ATOM     14  C   UNL     1       7.474  -0.388  -6.192  0.00  0.00    +0.183 A 
ATOM     15  N   UNL     1       6.634  -1.393  -5.909  0.00  0.00    -0.193 NA
ATOM     16  H   UNL     1       4.921  -2.871  -4.522  0.00  0.00    +0.158 HD
BRANCH  14  17
ATOM     17  C   UNL     1       8.213  -0.214  -7.467  0.00  0.00    +0.021 A 
ATOM     18  C   UNL     1       8.052  -1.136  -8.500  0.00  0.00    +0.011 A 
ATOM     19  C   UNL     1       8.741  -0.969  -9.684  0.00  0.00    +0.001 A 
ATOM     20  C   UNL     1       9.590   0.111  -9.847  0.00  0.00    +0.000 A 
ATOM     21  C   UNL     1       9.754   1.029  -8.825  0.00  0.00    +0.001 A 
ATOM     22  C   UNL     1       9.065   0.875  -7.639  0.00  0.00    +0.011 A 
ENDBRANCH  14  17
ENDBRANCH   5   7
BRANCH   1  23
ATOM     23  S   UNL     1       1.999  -2.914   1.419  0.00  0.00    +0.061 S 
ATOM     24  O   UNL     1       2.998  -2.098   2.015  0.00  0.00    -0.153 OA
ATOM     25  O   UNL     1       1.587  -4.150   1.986  0.00  0.00    -0.153 OA
BRANCH  23  31
ATOM     26  C   UNL     1      -0.019   1.526   0.010  0.00  0.00    +0.009 C 
ATOM     27  C   UNL     1       0.002  -0.004   0.002  0.00  0.00    +0.002 C 
ATOM     28  C   UNL     1      -1.433  -0.534   0.015  0.00  0.00    +0.009 C 
ATOM     29  C   UNL     1      -1.414  -2.064  -0.027  0.00  0.00    +0.002 C 
ATOM     30  C   UNL     1      -0.692  -2.596   1.215  0.00  0.00    +0.112 C 
ATOM     31  N   UNL     1       0.639  -1.977   1.288  0.00  0.00    -0.176 NA
ATOM     32  C   UNL     1       0.742  -0.512   1.244  0.00  0.00    +0.112 C 
ATOM     33  C   UNL     1      -2.850  -2.592  -0.049  0.00  0.00    +0.009 C 
ENDBRANCH  23  31
ENDBRANCH   1  23
TORSDOF 4
