REMARK  Name = ZINC39358211
REMARK  5 active torsions:
REMARK  status: ('A' for Active; 'I' for Inactive)
REMARK    1  A    between atoms: C_1  and  C_2
REMARK    2  A    between atoms: C_8  and  C_18
REMARK    3  A    between atoms: C_9  and  C_17
REMARK    4  A    between atoms: C_10  and  C_12
REMARK    5  A    between atoms: N_20  and  C_21
REMARK                            x       y       z     vdW  Elec       q    Type
REMARK                         _______ _______ _______ _____ _____    ______ ____
ROOT
ATOM      1  C   UNL     1      -0.011   1.242  -0.668  0.00  0.00    +0.044 C 
ATOM      2  C   UNL     1       0.002  -0.250  -0.457  0.00  0.00    -0.050 A 
ATOM      3  C   UNL     1       0.059  -1.101  -1.559  0.00  0.00    +0.005 A 
ATOM      4  C   UNL     1       0.072  -2.452  -1.403  0.00  0.00    +0.028 A 
ATOM      5  C   UNL     1       0.027  -3.006  -0.109  0.00  0.00    +0.072 A 
ATOM      6  C   UNL     1      -0.032  -2.135   1.009  0.00  0.00    +0.013 A 
ATOM      7  C   UNL     1      -0.038  -0.750   0.811  0.00  0.00    +0.014 A 
ATOM      8  C   UNL     1      -0.079  -2.715   2.351  0.00  0.00    +0.051 A 
ATOM      9  C   UNL     1      -0.062  -4.099   2.448  0.00  0.00    -0.012 A 
ATOM     10  C   UNL     1      -0.003  -4.872   1.274  0.00  0.00    +0.075 A 
ATOM     11  N   UNL     1       0.039  -4.326   0.074  0.00  0.00    -0.247 NA
ATOM     12  C   UNL     1      -0.108  -4.768   3.797  0.00  0.00    +0.047 C 
ENDROOT
BRANCH  10  13
ATOM     13  C   UNL     1       0.014  -6.340   1.389  0.00  0.00    +0.021 C 
ATOM     14  C   UNL     1      -0.915  -7.145   1.953  0.00  0.00    +0.142 C 
ATOM     15  N   UNL     1      -0.542  -8.430   1.862  0.00  0.00    -0.162 NA
ATOM     16  N   UNL     1       0.539  -8.618   1.301  0.00  0.00    -0.183 NA
ATOM     17  C   UNL     1       1.076  -7.308   0.897  0.00  0.00    +0.205 C 
ENDBRANCH  10  13
BRANCH   8  18
ATOM     18  C   UNL     1      -0.140  -1.861   3.557  0.00  0.00    +0.245 C 
ATOM     19  O   UNL     1      -1.217  -1.525   4.009  0.00  0.00    -0.270 OA
ATOM     20  N   UNL     1       0.998  -1.455   4.154  0.00  0.00    -0.308 N 
ATOM     21  H   UNL     1       1.857  -1.723   3.793  0.00  0.00    +0.149 HD
BRANCH  20  22
ATOM     22  C   UNL     1       0.937  -0.609   5.348  0.00  0.00    +0.077 C 
ATOM     23  C   UNL     1       2.258   0.175   5.521  0.00  0.00    +0.026 C 
ATOM     24  C   UNL     1       2.823  -0.304   6.893  0.00  0.00    -0.009 C 
ATOM     25  C   UNL     1       3.288  -1.769   6.634  0.00  0.00    +0.004 C 
ATOM     26  C   UNL     1       1.978  -2.568   6.451  0.00  0.00    +0.005 C 
ATOM     27  C   UNL     1       0.825  -1.487   6.632  0.00  0.00    +0.010 C 
ATOM     28  C   UNL     1       1.492  -0.537   7.690  0.00  0.00    +0.009 C 
ENDBRANCH  20  22
ENDBRANCH   8  18
TORSDOF 3
