REMARK  Name = ZINC38826874
REMARK  15 active torsions:
REMARK  status: ('A' for Active; 'I' for Inactive)
REMARK    1  A    between atoms: C_1  and  C_2
REMARK    2  A    between atoms: C_2  and  O_4
REMARK    3  A    between atoms: O_4  and  C_5
REMARK    4  A    between atoms: C_5  and  C_6
REMARK    5  A    between atoms: C_8  and  O_35
REMARK    6  A    between atoms: C_10  and  O_31
REMARK    7  A    between atoms: C_12  and  O_27
REMARK    8  A    between atoms: C_14  and  S_17
REMARK    9  A    between atoms: S_17  and  C_18
REMARK   10  A    between atoms: O_27  and  C_28
REMARK   11  A    between atoms: C_28  and  C_30
REMARK   12  A    between atoms: O_31  and  C_32
REMARK   13  A    between atoms: C_32  and  C_34
REMARK   14  A    between atoms: O_35  and  C_36
REMARK   15  A    between atoms: C_36  and  C_38
REMARK                            x       y       z     vdW  Elec       q    Type
REMARK                         _______ _______ _______ _____ _____    ______ ____
ROOT
ATOM      1  C   UNL     1       0.015  -2.673  -2.514  0.00  0.00    +0.202 C 
ATOM      2  C   UNL     1       0.161  -4.196  -2.446  0.00  0.00    +0.252 C 
ATOM      3  C   UNL     1      -1.040  -4.784  -1.700  0.00  0.00    +0.263 C 
ATOM      4  C   UNL     1      -2.328  -4.355  -2.410  0.00  0.00    +0.259 C 
ATOM      5  C   UNL     1      -2.379  -2.826  -2.480  0.00  0.00    +0.223 C 
ATOM      6  O   UNL     1      -1.217  -2.343  -3.158  0.00  0.00    -0.352 OA
ENDROOT
BRANCH   1   7
ATOM      7  C   UNL     1       0.020  -2.096  -1.097  0.00  0.00    +0.267 C 
BRANCH   7   8
ATOM      8  O   UNL     1       0.000  -0.669  -1.164  0.00  0.00    -0.462 OA
BRANCH   8  10
ATOM      9  C   UNL     1      -0.018   1.503   0.010  0.00  0.00    +0.136 C 
ATOM     10  C   UNL     1       0.002  -0.004   0.002  0.00  0.00    +0.304 C 
ATOM     11  O   UNL     1       0.020  -0.614   1.045  0.00  0.00    -0.251 OA
ENDBRANCH   8  10
ENDBRANCH   7   8
ENDBRANCH   1   7
BRANCH   5  12
ATOM     12  S   UNL     1      -3.865  -2.311  -3.382  0.00  0.00    -0.089 S 
BRANCH  12  13
ATOM     13  C   UNL     1      -3.857  -0.502  -3.244  0.00  0.00    +0.271 C 
ATOM     14  C   UNL     1      -4.257   0.074  -4.591  0.00  0.00    +0.257 C 
ATOM     15  O   UNL     1      -5.316  -0.201  -5.113  0.00  0.00    -0.272 OA
ATOM     16  N   UNL     1      -3.368   0.910  -5.177  0.00  0.00    -0.235 N 
ATOM     17  C   UNL     1      -2.206   1.188  -4.564  0.00  0.00    +0.347 C 
ATOM     18  O   UNL     1      -1.434   1.942  -5.121  0.00  0.00    -0.249 OA
ATOM     19  N   UNL     1      -1.846   0.685  -3.380  0.00  0.00    -0.066 NA
ATOM     20  N   UNL     1      -2.545  -0.091  -2.718  0.00  0.00    -0.170 NA
ATOM     21  H   UNL     1      -3.570   1.308  -6.038  0.00  0.00    +0.159 HD
ENDBRANCH  12  13
ENDBRANCH   5  12
BRANCH   4  22
ATOM     22  O   UNL     1      -2.346  -4.895  -3.733  0.00  0.00    -0.454 OA
BRANCH  22  23
ATOM     23  C   UNL     1      -3.549  -5.169  -4.263  0.00  0.00    +0.304 C 
ATOM     24  O   UNL     1      -4.553  -4.957  -3.624  0.00  0.00    -0.251 OA
ATOM     25  C   UNL     1      -3.647  -5.741  -5.653  0.00  0.00    +0.136 C 
ENDBRANCH  22  23
ENDBRANCH   4  22
BRANCH   3  26
ATOM     26  O   UNL     1      -0.948  -6.210  -1.693  0.00  0.00    -0.454 OA
BRANCH  26  27
ATOM     27  C   UNL     1      -1.487  -6.851  -0.644  0.00  0.00    +0.304 C 
ATOM     28  O   UNL     1      -2.020  -6.222   0.239  0.00  0.00    -0.251 OA
ATOM     29  C   UNL     1      -1.428  -8.354  -0.569  0.00  0.00    +0.136 C 
ENDBRANCH  26  27
ENDBRANCH   3  26
BRANCH   2  30
ATOM     30  O   UNL     1       1.365  -4.529  -1.752  0.00  0.00    -0.455 OA
BRANCH  30  31
ATOM     31  C   UNL     1       2.478  -4.660  -2.491  0.00  0.00    +0.304 C 
ATOM     32  O   UNL     1       2.432  -4.497  -3.687  0.00  0.00    -0.251 OA
ATOM     33  C   UNL     1       3.786  -5.010  -1.829  0.00  0.00    +0.136 C 
ENDBRANCH  30  31
ENDBRANCH   2  30
TORSDOF 11
