REMARK  Name = ZINC36500605
REMARK  10 active torsions:
REMARK  status: ('A' for Active; 'I' for Inactive)
REMARK    1  A    between atoms: C_3  and  O_37
REMARK    2  A    between atoms: C_4  and  C_8
REMARK    3  A    between atoms: C_5  and  O_7
REMARK    4  A    between atoms: N_10  and  C_11
REMARK    5  A    between atoms: N_10  and  C_17
REMARK    6  A    between atoms: C_11  and  C_12
REMARK    7  A    between atoms: C_17  and  C_19
REMARK    8  A    between atoms: C_17  and  C_28
REMARK    9  A    between atoms: C_22  and  N_25
REMARK   10  A    between atoms: N_30  and  C_31
REMARK                            x       y       z     vdW  Elec       q    Type
REMARK                         _______ _______ _______ _____ _____    ______ ____
ROOT
ATOM      1  C   UNL     1       5.813  -1.688  -0.695  0.00  0.00    +0.193 C 
ENDROOT
BRANCH   1   2
ATOM      2  C   UNL     1       6.199  -0.750  -1.810  0.00  0.00    -0.018 A 
ATOM      3  C   UNL     1       5.367  -0.597  -2.903  0.00  0.00    +0.008 A 
ATOM      4  C   UNL     1       5.721   0.264  -3.925  0.00  0.00    +0.033 A 
ATOM      5  C   UNL     1       6.907   0.971  -3.854  0.00  0.00    +0.126 A 
ATOM      6  C   UNL     1       7.738   0.819  -2.760  0.00  0.00    +0.033 A 
ATOM      7  C   UNL     1       7.382  -0.039  -1.736  0.00  0.00    +0.008 A 
BRANCH   5   8
ATOM      8  N   UNL     1       7.286   1.892  -4.949  0.00  0.00    +0.056 N 
ATOM      9  O   UNL     1       6.559   2.025  -5.906  0.00  0.00    -0.126 OA
ATOM     10  O   UNL     1       8.323   2.511  -4.886  0.00  0.00    -0.126 OA
ENDBRANCH   5   8
ENDBRANCH   1   2
BRANCH   1  11
ATOM     11  C   UNL     1       5.959  -3.113  -1.165  0.00  0.00    +0.238 C 
ATOM     12  O   UNL     1       5.153  -3.581  -1.941  0.00  0.00    -0.273 OA
ATOM     13  N   UNL     1       6.985  -3.867  -0.723  0.00  0.00    -0.311 N 
ATOM     14  H   UNL     1       7.629  -3.493  -0.102  0.00  0.00    +0.149 HD
BRANCH  13  15
ATOM     15  C   UNL     1       7.126  -5.252  -1.179  0.00  0.00    +0.073 C 
ATOM     16  C   UNL     1       6.268  -6.167  -0.304  0.00  0.00    +0.022 C 
ATOM     17  C   UNL     1       6.416  -7.614  -0.781  0.00  0.00    +0.002 C 
ATOM     18  C   UNL     1       7.882  -8.037  -0.678  0.00  0.00    +0.000 C 
ATOM     19  C   UNL     1       8.740  -7.122  -1.553  0.00  0.00    +0.002 C 
ATOM     20  C   UNL     1       8.593  -5.675  -1.076  0.00  0.00    +0.022 C 
ENDBRANCH  13  15
ENDBRANCH   1  11
BRANCH   1  23
ATOM     21  C   UNL     1       4.072  -0.256   0.228  0.00  0.00    +0.255 C 
ATOM     22  O   UNL     1       4.911   0.610   0.391  0.00  0.00    -0.270 OA
ATOM     23  N   UNL     1       4.422  -1.441  -0.309  0.00  0.00    -0.274 N 
BRANCH  21  27
ATOM     24  C   UNL     1       0.035   0.460   1.349  0.00  0.00    +0.007 A 
ATOM     25  C   UNL     1       0.458   0.774   0.070  0.00  0.00    +0.046 A 
ATOM     26  C   UNL     1       1.772   0.545  -0.305  0.00  0.00    +0.133 A 
ATOM     27  C   UNL     1       2.673  -0.007   0.616  0.00  0.00    +0.119 A 
ATOM     28  C   UNL     1       2.233  -0.322   1.910  0.00  0.00    +0.133 A 
ATOM     29  C   UNL     1       0.915  -0.084   2.265  0.00  0.00    +0.046 A 
BRANCH  28  30
ATOM     30  O   UNL     1       3.095  -0.857   2.811  0.00  0.00    -0.506 OA
ATOM     31  H   UNL     1       3.565  -0.200   3.344  0.00  0.00    +0.292 HD
ENDBRANCH  28  30
BRANCH  26  32
ATOM     32  O   UNL     1       2.184   0.853  -1.561  0.00  0.00    -0.506 OA
ATOM     33  H   UNL     1       2.523   1.754  -1.653  0.00  0.00    +0.292 HD
ENDBRANCH  26  32
ENDBRANCH  21  27
BRANCH  23  34
ATOM     34  C   UNL     1       3.411  -2.483  -0.505  0.00  0.00    +0.183 C 
BRANCH  34  35
ATOM     35  C   UNL     1       2.610  -2.179  -1.745  0.00  0.00    +0.122 A 
ATOM     36  C   UNL     1       2.807  -2.719  -2.961  0.00  0.00    +0.046 A 
ATOM     37  C   UNL     1       1.837  -2.155  -3.821  0.00  0.00    +0.041 A 
ATOM     38  C   UNL     1       1.106  -1.303  -3.080  0.00  0.00    +0.195 A 
ATOM     39  O   UNL     1       1.575  -1.327  -1.821  0.00  0.00    -0.466 OA
ENDBRANCH  34  35
ENDBRANCH  23  34
ENDBRANCH   1  23
TORSDOF 10
