REMARK  Name = ZINC07662511
REMARK  6 active torsions:
REMARK  status: ('A' for Active; 'I' for Inactive)
REMARK    1  A    between atoms: C_1  and  C_2
REMARK    2  A    between atoms: C_2  and  C_4
REMARK    3  A    between atoms: C_2  and  S_18
REMARK    4  A    between atoms: C_7  and  C_9
REMARK    5  A    between atoms: C_12  and  N_15
REMARK    6  A    between atoms: S_18  and  C_19
REMARK                            x       y       z     vdW  Elec       q    Type
REMARK                         _______ _______ _______ _____ _____    ______ ____
ROOT
ATOM      1  C   UNL     1       3.191   6.693   0.056  0.00  0.00    +0.231 A 
ATOM      2  N   UNL     1       4.249   6.582  -0.699  0.00  0.00    -0.111 NA
ATOM      3  N   UNL     1       5.063   7.545  -0.442  0.00  0.00    -0.107 NA
ATOM      4  C   UNL     1       4.548   8.309   0.492  0.00  0.00    +0.248 A 
ATOM      5  O   UNL     1       3.350   7.786   0.821  0.00  0.00    -0.419 OA
ENDROOT
BRANCH   4   6
ATOM      6  C   UNL     1       5.166   9.520   1.073  0.00  0.00    +0.039 A 
ATOM      7  C   UNL     1       4.497  10.242   2.063  0.00  0.00    +0.015 A 
ATOM      8  C   UNL     1       5.081  11.369   2.604  0.00  0.00    +0.033 A 
ATOM      9  C   UNL     1       6.322  11.790   2.160  0.00  0.00    +0.126 A 
ATOM     10  C   UNL     1       6.987  11.082   1.175  0.00  0.00    +0.033 A 
ATOM     11  C   UNL     1       6.417   9.951   0.629  0.00  0.00    +0.015 A 
BRANCH   9  12
ATOM     12  N   UNL     1       6.939  13.004   2.740  0.00  0.00    +0.056 N 
ATOM     13  O   UNL     1       8.031  13.377   2.351  0.00  0.00    -0.126 OA
ATOM     14  O   UNL     1       6.355  13.629   3.607  0.00  0.00    -0.126 OA
ENDBRANCH   9  12
ENDBRANCH   4   6
BRANCH   1  16
ATOM     15  C   UNL     1       1.146   6.026  -1.177  0.00  0.00    +0.029 C 
ATOM     16  C   UNL     1       2.003   5.766   0.063  0.00  0.00    +0.136 C 
BRANCH  16  17
ATOM     17  S   UNL     1       2.577   4.045   0.052  0.00  0.00    -0.110 S 
BRANCH  17  18
ATOM     18  C   UNL     1       3.309   3.830   1.641  0.00  0.00    +0.044 A 
ATOM     19  C   UNL     1       3.229   4.844   2.586  0.00  0.00    +0.020 A 
ATOM     20  C   UNL     1       3.803   4.673   3.831  0.00  0.00    +0.039 A 
ATOM     21  C   UNL     1       4.453   3.489   4.139  0.00  0.00    +0.126 A 
ATOM     22  C   UNL     1       4.539   2.478   3.197  0.00  0.00    +0.077 A 
ATOM     23  C   UNL     1       3.967   2.644   1.950  0.00  0.00    +0.139 A 
ATOM     24  F   UNL     1       4.045   1.655   1.032  0.00  0.00    -0.204 F 
ATOM     25  F   UNL     1       5.009   3.323   5.359  0.00  0.00    -0.205 F 
ENDBRANCH  17  18
ENDBRANCH  16  17
ENDBRANCH   1  16
TORSDOF 5
