REMARK  Name = ZINC07318726
REMARK  9 active torsions:
REMARK  status: ('A' for Active; 'I' for Inactive)
REMARK    1  A    between atoms: C_1  and  C_2
REMARK    2  A    between atoms: C_2  and  C_4
REMARK    3  A    between atoms: C_2  and  N_9
REMARK    4  A    between atoms: C_10  and  C_12
REMARK    5  A    between atoms: C_12  and  S_13
REMARK    6  A    between atoms: S_13  and  C_14
REMARK    7  A    between atoms: C_17  and  C_25
REMARK    8  A    between atoms: N_18  and  C_19
REMARK    9  A    between atoms: C_25  and  N_57
REMARK                            x       y       z     vdW  Elec       q    Type
REMARK                         _______ _______ _______ _____ _____    ______ ____
ROOT
ATOM      1  C   UNL     1      -5.218   0.872   0.032  0.00  0.00    +0.197 A 
ATOM      2  N   UNL     1      -5.133  -0.439   0.018  0.00  0.00    -0.122 NA
ATOM      3  N   UNL     1      -6.310  -0.955   0.027  0.00  0.00    -0.135 NA
ATOM      4  C   UNL     1      -7.212  -0.014   0.036  0.00  0.00    +0.122 A 
ATOM      5  N   UNL     1      -6.550   1.185   0.040  0.00  0.00    -0.276 N 
ENDROOT
BRANCH   5   6
ATOM      6  C   UNL     1      -7.119   2.467   0.049  0.00  0.00    +0.050 A 
ATOM      7  C   UNL     1      -7.865   2.889   1.140  0.00  0.00    +0.026 A 
ATOM      8  C   UNL     1      -8.420   4.154   1.148  0.00  0.00    +0.002 A 
ATOM      9  C   UNL     1      -8.242   4.995   0.066  0.00  0.00    +0.000 A 
ATOM     10  C   UNL     1      -7.503   4.576  -1.025  0.00  0.00    +0.002 A 
ATOM     11  C   UNL     1      -6.942   3.314  -1.037  0.00  0.00    +0.026 A 
ENDBRANCH   5   6
BRANCH   1  12
ATOM     12  S   UNL     1      -3.874   2.010   0.031  0.00  0.00    -0.076 S 
BRANCH  12  13
ATOM     13  C   UNL     1      -2.482   0.853   0.018  0.00  0.00    +0.173 C 
BRANCH  13  15
ATOM     14  N   UNL     1      -0.011   0.966   0.007  0.00  0.00    -0.305 N 
ATOM     15  C   UNL     1      -1.187   1.624   0.017  0.00  0.00    +0.224 C 
ATOM     16  O   UNL     1      -1.204   2.837   0.023  0.00  0.00    -0.275 OA
ATOM     17  H   UNL     1       0.002  -0.004   0.002  0.00  0.00    +0.149 HD
BRANCH  14  19
ATOM     18  C   UNL     1       1.635   2.077   1.435  0.00  0.00    +0.036 C 
ATOM     19  C   UNL     1       1.248   1.716  -0.001  0.00  0.00    +0.136 C 
BRANCH  19  20
ATOM     20  C   UNL     1       2.332   0.870  -0.616  0.00  0.00    +0.125 A 
ATOM     21  C   UNL     1       3.290   1.306  -1.454  0.00  0.00    +0.046 A 
ATOM     22  C   UNL     1       4.088   0.186  -1.783  0.00  0.00    +0.041 A 
ATOM     23  C   UNL     1       3.570  -0.868  -1.126  0.00  0.00    +0.195 A 
ATOM     24  O   UNL     1       2.510  -0.447  -0.416  0.00  0.00    -0.466 OA
ENDBRANCH  19  20
ENDBRANCH  14  19
ENDBRANCH  13  15
ENDBRANCH  12  13
ENDBRANCH   1  12
BRANCH   4  25
ATOM     25  C   UNL     1      -8.706  -0.210   0.042  0.00  0.00    -0.001 C 
BRANCH  25  31
ATOM     26  C   UNL     1      -9.011   1.023  -2.019  0.00  0.00    -0.078 C 
ATOM     27  C   UNL     1      -9.398   0.887  -3.493  0.00  0.00    -0.019 C 
ATOM     28  C   UNL     1     -10.860   0.443  -3.594  0.00  0.00    -0.004 C 
ATOM     29  C   UNL     1     -11.037  -0.878  -2.839  0.00  0.00    -0.019 C 
ATOM     30  C   UNL     1     -10.603  -0.690  -1.383  0.00  0.00    -0.078 C 
ATOM     31  N   UNL     1      -9.181  -0.287  -1.355  0.00  0.00    +0.384 N 
ATOM     32  H   UNL     1      -8.626  -0.989  -1.858  0.00  0.00    -0.081 HD
ENDBRANCH  25  31
ENDBRANCH   4  25
TORSDOF 8
