REMARK  Name = ZINC45781136
REMARK  10 active torsions:
REMARK  status: ('A' for Active; 'I' for Inactive)
REMARK    1  A    between atoms: C_1  and  C_2
REMARK    2  A    between atoms: C_2  and  O_3
REMARK    3  A    between atoms: O_3  and  C_4
REMARK    4  A    between atoms: C_9  and  C_10
REMARK    5  A    between atoms: C_12  and  C_15
REMARK    6  A    between atoms: C_15  and  C_16
REMARK    7  A    between atoms: N_18  and  C_19
REMARK    8  A    between atoms: C_19  and  C_20
REMARK    9  A    between atoms: C_20  and  C_22
REMARK   10  A    between atoms: C_20  and  N_27
REMARK                            x       y       z     vdW  Elec       q    Type
REMARK                         _______ _______ _______ _____ _____    ______ ____
ROOT
ATOM      1  C   UNL     1       5.069  -1.661  -6.598  0.00  0.00    +0.219 C 
ATOM      2  O   UNL     1       5.180  -1.961  -5.428  0.00  0.00    -0.275 OA
ATOM      3  N   UNL     1       5.858  -2.247  -7.521  0.00  0.00    -0.316 N 
ATOM      4  H   UNL     1       5.769  -2.007  -8.457  0.00  0.00    +0.149 HD
ENDROOT
BRANCH   1   5
ATOM      5  C   UNL     1       4.051  -0.633  -7.019  0.00  0.00    +0.151 C 
BRANCH   5   8
ATOM      6  C   UNL     1       2.041  -0.580  -3.938  0.00  0.00    +0.112 A 
ATOM      7  N   UNL     1       2.703  -0.990  -5.011  0.00  0.00    -0.243 NA
ATOM      8  C   UNL     1       3.306  -0.138  -5.806  0.00  0.00    +0.058 A 
ATOM      9  C   UNL     1       3.259   1.193  -5.534  0.00  0.00    +0.071 A 
ATOM     10  S   UNL     1       2.275   1.189  -4.040  0.00  0.00    -0.075 S 
BRANCH   6  16
ATOM     11  C   UNL     1       0.662  -0.732  -1.864  0.00  0.00    +0.130 A 
ATOM     12  C   UNL     1      -0.031  -1.482  -0.928  0.00  0.00    +0.046 A 
ATOM     13  C   UNL     1      -0.083  -2.858  -1.045  0.00  0.00    +0.004 A 
ATOM     14  C   UNL     1       0.555  -3.496  -2.095  0.00  0.00    +0.001 A 
ATOM     15  C   UNL     1       1.250  -2.763  -3.035  0.00  0.00    +0.014 A 
ATOM     16  C   UNL     1       1.304  -1.372  -2.931  0.00  0.00    +0.049 A 
BRANCH  11  17
ATOM     17  O   UNL     1       0.715   0.621  -1.750  0.00  0.00    -0.492 OA
BRANCH  17  19
ATOM     18  C   UNL     1       0.205   2.724  -0.675  0.00  0.00    +0.048 C 
ATOM     19  C   UNL     1       0.036   1.204  -0.636  0.00  0.00    +0.226 C 
ENDBRANCH  17  19
ENDBRANCH  11  17
ENDBRANCH   6  16
ENDBRANCH   5   8
ENDBRANCH   1   5
BRANCH   3  20
ATOM     20  C   UNL     1       6.848  -3.246  -7.111  0.00  0.00    +0.096 C 
BRANCH  20  21
ATOM     21  C   UNL     1       7.512  -3.844  -8.353  0.00  0.00    +0.016 C 
BRANCH  21  22
ATOM     22  N   UNL     1       6.479  -4.363  -9.259  0.00  0.00    +0.387 N 
ATOM     23  C   UNL     1       5.707  -5.407  -8.573  0.00  0.00    -0.078 C 
ATOM     24  C   UNL     1       4.578  -5.893  -9.484  0.00  0.00    -0.019 C 
ATOM     25  C   UNL     1       5.179  -6.463 -10.773  0.00  0.00    -0.004 C 
ATOM     26  C   UNL     1       6.042  -5.389 -11.441  0.00  0.00    -0.019 C 
ATOM     27  C   UNL     1       7.117  -4.921 -10.458  0.00  0.00    -0.078 C 
ATOM     28  H   UNL     1       5.860  -3.612  -9.527  0.00  0.00    -0.081 HD
ENDBRANCH  21  22
BRANCH  21  29
ATOM     29  C   UNL     1       8.310  -2.779  -9.058  0.00  0.00    +0.093 A 
ATOM     30  C   UNL     1       9.642  -2.610  -8.976  0.00  0.00    +0.043 A 
ATOM     31  C   UNL     1       9.966  -1.501  -9.792  0.00  0.00    +0.041 A 
ATOM     32  C   UNL     1       8.812  -1.059 -10.323  0.00  0.00    +0.195 A 
ATOM     33  O   UNL     1       7.814  -1.840  -9.880  0.00  0.00    -0.469 OA
ENDBRANCH  21  29
ENDBRANCH  20  21
ENDBRANCH   3  20
TORSDOF 9
