REMARK  Name = ZINC19370089
REMARK  6 active torsions:
REMARK  status: ('A' for Active; 'I' for Inactive)
REMARK    1  A    between atoms: C_4  and  C_7
REMARK    2  A    between atoms: C_7  and  C_8
REMARK    3  A    between atoms: C_7  and  N_14
REMARK    4  A    between atoms: N_17  and  C_20
REMARK    5  A    between atoms: C_20  and  C_21
REMARK    6  A    between atoms: C_29  and  O_32
REMARK                            x       y       z     vdW  Elec       q    Type
REMARK                         _______ _______ _______ _____ _____    ______ ____
ROOT
ATOM      1  N   UNL     1      -0.806   3.062  -1.200  0.00  0.00    -0.295 NA
ATOM      2  C   UNL     1      -0.754   1.593  -1.231  0.00  0.00    +0.067 C 
ATOM      3  C   UNL     1      -0.013   1.086   0.008  0.00  0.00    -0.063 C 
ATOM      4  N   UNL     1      -0.701   1.560   1.216  0.00  0.00    +0.384 N 
ATOM      5  C   UNL     1      -0.754   3.029   1.247  0.00  0.00    -0.063 C 
ATOM      6  C   UNL     1      -1.495   3.536   0.008  0.00  0.00    +0.067 C 
ATOM      7  H   UNL     1      -1.735   1.184   1.189  0.00  0.00    -0.081 HD
ENDROOT
BRANCH   1   8
ATOM      8  C   UNL     1      -1.445   3.591  -2.413  0.00  0.00    +0.117 C 
BRANCH   8  12
ATOM      9  C   UNL     1      -1.545   7.857  -2.221  0.00  0.00    +0.000 A 
ATOM     10  C   UNL     1      -2.630   7.162  -2.722  0.00  0.00    +0.000 A 
ATOM     11  C   UNL     1      -2.598   5.782  -2.785  0.00  0.00    +0.005 A 
ATOM     12  C   UNL     1      -1.480   5.096  -2.345  0.00  0.00    -0.026 A 
ATOM     13  C   UNL     1      -0.398   5.791  -1.839  0.00  0.00    +0.005 A 
ATOM     14  C   UNL     1      -0.428   7.172  -1.782  0.00  0.00    +0.000 A 
ENDBRANCH   8  12
BRANCH   8  15
ATOM     15  C   UNL     1      -0.658   3.161  -3.624  0.00  0.00    -0.026 A 
ATOM     16  C   UNL     1       0.724   3.163  -3.587  0.00  0.00    +0.005 A 
ATOM     17  C   UNL     1       1.446   2.764  -4.696  0.00  0.00    +0.000 A 
ATOM     18  C   UNL     1       0.786   2.372  -5.846  0.00  0.00    +0.000 A 
ATOM     19  C   UNL     1      -0.595   2.376  -5.885  0.00  0.00    +0.000 A 
ATOM     20  C   UNL     1      -1.317   2.770  -4.774  0.00  0.00    +0.005 A 
ENDBRANCH   8  15
ENDBRANCH   1   8
BRANCH   4  21
ATOM     21  C   UNL     1      -0.062   1.031   2.429  0.00  0.00    -0.042 C 
BRANCH  21  22
ATOM     22  C   UNL     1      -0.631   1.724   3.640  0.00  0.00    -0.046 A 
ATOM     23  C   UNL     1       0.042   2.734   4.245  0.00  0.00    +0.094 A 
ATOM     24  C   UNL     1      -0.514   3.370   5.376  0.00  0.00    +0.337 A 
ATOM     25  O   UNL     1       0.098   4.279   5.907  0.00  0.00    -0.245 OA
ATOM     26  O   UNL     1      -1.699   2.996   5.883  0.00  0.00    -0.422 OA
ATOM     27  C   UNL     1      -2.418   1.994   5.331  0.00  0.00    +0.139 A 
ATOM     28  C   UNL     1      -1.925   1.320   4.200  0.00  0.00    +0.022 A 
ATOM     29  C   UNL     1      -2.665   0.282   3.627  0.00  0.00    +0.057 A 
ATOM     30  C   UNL     1      -3.880  -0.074   4.179  0.00  0.00    +0.118 A 
ATOM     31  C   UNL     1      -4.365   0.596   5.298  0.00  0.00    +0.049 A 
ATOM     32  C   UNL     1      -3.642   1.621   5.871  0.00  0.00    +0.050 A 
BRANCH  30  33
ATOM     33  O   UNL     1      -4.606  -1.083   3.626  0.00  0.00    -0.507 OA
ATOM     34  H   UNL     1      -5.573  -1.368   4.064  0.00  0.00    +0.292 HD
ENDBRANCH  30  33
ENDBRANCH  21  22
ENDBRANCH   4  21
TORSDOF 6
