REMARK  Name = ZINC38660051
REMARK  14 active torsions:
REMARK  status: ('A' for Active; 'I' for Inactive)
REMARK    1  A    between atoms: C_1  and  C_2
REMARK    2  A    between atoms: C_2  and  C_3
REMARK    3  A    between atoms: C_3  and  C_4
REMARK    4  A    between atoms: C_4  and  O_5
REMARK    5  A    between atoms: O_5  and  C_6
REMARK    6  A    between atoms: C_9  and  C_14
REMARK    7  A    between atoms: C_11  and  O_12
REMARK    8  A    between atoms: O_12  and  C_13
REMARK    9  A    between atoms: C_19  and  O_28
REMARK   10  A    between atoms: C_23  and  N_27
REMARK   11  A    between atoms: C_24  and  C_25
REMARK   12  A    between atoms: O_28  and  C_29
REMARK   13  A    between atoms: C_29  and  C_31
REMARK   14  A    between atoms: C_35  and  C_37
REMARK                            x       y       z     vdW  Elec       q    Type
REMARK                         _______ _______ _______ _____ _____    ______ ____
ROOT
ATOM      1  C   UNL     1       1.910  -8.107   3.057  0.00  0.00    +0.098 C 
ATOM      2  C   UNL     1       0.531  -8.710   3.110  0.00  0.00    +0.008 A 
ATOM      3  C   UNL     1      -0.174  -8.692   4.301  0.00  0.00    +0.012 A 
ATOM      4  C   UNL     1      -1.440  -9.239   4.369  0.00  0.00    +0.047 A 
ATOM      5  C   UNL     1      -2.010  -9.810   3.240  0.00  0.00    +0.135 A 
ATOM      6  C   UNL     1      -1.307  -9.829   2.046  0.00  0.00    +0.093 A 
ATOM      7  C   UNL     1      -0.034  -9.278   1.980  0.00  0.00    +0.138 A 
ATOM      8  O   UNL     1       0.640  -9.305   0.804  0.00  0.00    -0.441 OA
ATOM      9  C   UNL     1       1.974  -9.145   0.792  0.00  0.00    +0.199 C 
ATOM     10  C   UNL     1       2.634  -8.584   1.829  0.00  0.00    +0.098 C 
ENDROOT
BRANCH   1  14
ATOM     11  C   UNL     1       1.587  -3.844   2.944  0.00  0.00    +0.162 A 
ATOM     12  C   UNL     1       1.020  -4.612   1.939  0.00  0.00    +0.050 A 
ATOM     13  C   UNL     1       1.126  -5.990   1.978  0.00  0.00    +0.008 A 
ATOM     14  C   UNL     1       1.797  -6.605   3.019  0.00  0.00    -0.031 A 
ATOM     15  C   UNL     1       2.365  -5.845   4.024  0.00  0.00    +0.054 A 
ATOM     16  C   UNL     1       2.267  -4.463   3.988  0.00  0.00    +0.162 A 
BRANCH  16  17
ATOM     17  O   UNL     1       2.831  -3.714   4.973  0.00  0.00    -0.491 OA
ATOM     18  C   UNL     1       3.513  -4.417   6.013  0.00  0.00    +0.277 C 
ENDBRANCH  16  17
BRANCH  11  19
ATOM     19  O   UNL     1       1.484  -2.489   2.906  0.00  0.00    -0.488 OA
BRANCH  19  20
ATOM     20  C   UNL     1       0.771  -1.923   1.805  0.00  0.00    +0.229 C 
BRANCH  20  21
ATOM     21  C   UNL     1       0.760  -0.398   1.934  0.00  0.00    +0.041 C 
BRANCH  21  23
ATOM     22  C   UNL     1      -0.013   1.733   0.883  0.00  0.00    +0.004 C 
ATOM     23  C   UNL     1      -0.003   0.208   0.754  0.00  0.00    -0.000 C 
ENDBRANCH  21  23
ENDBRANCH  20  21
ENDBRANCH  19  20
ENDBRANCH  11  19
ENDBRANCH   1  14
BRANCH   9  24
ATOM     24  N   UNL     1       2.686  -9.563  -0.304  0.00  0.00    -0.328 N 
ATOM     25  H   UNL     1       2.226  -9.968  -1.056  0.00  0.00    +0.145 HD
ATOM     26  H   UNL     1       3.650  -9.454  -0.327  0.00  0.00    +0.145 HD
ENDBRANCH   9  24
BRANCH  10  27
ATOM     27  C   UNL     1       4.057  -8.441   1.754  0.00  0.00    +0.101 C 
ATOM     28  N   UNL     1       5.185  -8.327   1.694  0.00  0.00    -0.191 NA
ENDBRANCH  10  27
BRANCH   5  29
ATOM     29  O   UNL     1      -3.256 -10.350   3.305  0.00  0.00    -0.422 OA
BRANCH  29  30
ATOM     30  C   UNL     1      -4.299  -9.514   3.468  0.00  0.00    +0.344 C 
ATOM     31  O   UNL     1      -4.124  -8.312   3.447  0.00  0.00    -0.245 OA
BRANCH  30  32
ATOM     32  C   UNL     1      -5.657 -10.059   3.672  0.00  0.00    +0.060 A 
ATOM     33  C   UNL     1      -5.862 -11.440   3.702  0.00  0.00    +0.015 A 
ATOM     34  C   UNL     1      -7.132 -11.942   3.894  0.00  0.00    +0.001 A 
ATOM     35  C   UNL     1      -8.203 -11.080   4.055  0.00  0.00    +0.003 A 
ATOM     36  C   UNL     1      -8.007  -9.711   4.026  0.00  0.00    -0.050 A 
ATOM     37  C   UNL     1      -6.741  -9.195   3.841  0.00  0.00    +0.018 A 
ATOM     38  C   UNL     1      -9.180  -8.780   4.202  0.00  0.00    +0.044 C 
ENDBRANCH  30  32
ENDBRANCH  29  30
ENDBRANCH   5  29
TORSDOF 11
