REMARK  Name = ZINC02434129
REMARK  7 active torsions:
REMARK  status: ('A' for Active; 'I' for Inactive)
REMARK    1  A    between atoms: C_1  and  C_2
REMARK    2  A    between atoms: C_2  and  N_3
REMARK    3  A    between atoms: C_4  and  C_6
REMARK    4  A    between atoms: C_10  and  N_11
REMARK    5  A    between atoms: C_12  and  C_14
REMARK    6  A    between atoms: C_20  and  C_26
REMARK    7  A    between atoms: C_22  and  C_25
REMARK                            x       y       z     vdW  Elec       q    Type
REMARK                         _______ _______ _______ _____ _____    ______ ____
ROOT
ATOM      1  N   UNL     1      -0.011   0.966   0.007  0.00  0.00    -0.273 N 
ATOM      2  C   UNL     1       1.147   1.655   0.000  0.00  0.00    +0.284 C 
ATOM      3  O   UNL     1       1.130   2.871   0.007  0.00  0.00    -0.266 OA
ATOM      4  H   UNL     1       0.002  -0.004   0.002  0.00  0.00    +0.156 HD
ENDROOT
BRANCH   2   5
ATOM      5  C   UNL     1       2.439   0.933  -0.016  0.00  0.00    +0.194 A 
ATOM      6  C   UNL     1       3.588   1.652  -0.023  0.00  0.00    +0.103 A 
ATOM      7  C   UNL     1       4.872   0.935  -0.039  0.00  0.00    +0.193 A 
ATOM      8  O   UNL     1       5.935   1.530  -0.045  0.00  0.00    -0.287 OA
ATOM      9  C   UNL     1       4.811  -0.539  -0.046  0.00  0.00    +0.064 A 
ATOM     10  C   UNL     1       5.971  -1.312  -0.060  0.00  0.00    +0.018 A 
ATOM     11  C   UNL     1       5.875  -2.676  -0.065  0.00  0.00    -0.049 A 
ATOM     12  C   UNL     1       4.632  -3.293  -0.057  0.00  0.00    +0.010 A 
ATOM     13  C   UNL     1       3.475  -2.545  -0.043  0.00  0.00    -0.007 A 
ATOM     14  C   UNL     1       3.548  -1.156  -0.037  0.00  0.00    +0.142 A 
ATOM     15  O   UNL     1       2.428  -0.408  -0.018  0.00  0.00    -0.450 OA
ATOM     16  C   UNL     1       2.133  -3.231  -0.033  0.00  0.00    +0.047 C 
ATOM     17  C   UNL     1       7.128  -3.515  -0.081  0.00  0.00    +0.044 C 
ENDBRANCH   2   5
BRANCH   1  22
ATOM     18  C   UNL     1      -2.503   1.113   0.014  0.00  0.00    +0.069 A 
ATOM     19  C   UNL     1      -3.614   2.049   0.031  0.00  0.00    -0.023 A 
ATOM     20  C   UNL     1      -3.267   3.355   0.035  0.00  0.00    -0.004 A 
ATOM     21  S   UNL     1      -1.496   3.352   0.027  0.00  0.00    -0.077 S 
ATOM     22  C   UNL     1      -1.219   1.642   0.017  0.00  0.00    +0.085 A 
ATOM     23  C   UNL     1      -4.189   4.535   0.045  0.00  0.00    +0.043 C 
ATOM     24  C   UNL     1      -5.597   4.051  -0.329  0.00  0.00    +0.005 C 
ATOM     25  C   UNL     1      -5.929   2.809   0.503  0.00  0.00    +0.005 C 
ATOM     26  C   UNL     1      -5.078   1.627   0.036  0.00  0.00    +0.037 C 
BRANCH  18  28
ATOM     27  N   UNL     1      -2.836  -0.989  -1.173  0.00  0.00    -0.312 N 
ATOM     28  C   UNL     1      -2.730  -0.335   0.000  0.00  0.00    +0.247 C 
ATOM     29  O   UNL     1      -2.822  -0.947   1.048  0.00  0.00    -0.270 OA
ATOM     30  H   UNL     1      -2.762  -0.502  -2.009  0.00  0.00    +0.149 HD
BRANCH  27  32
ATOM     31  C   UNL     1      -3.143  -2.926  -2.635  0.00  0.00    +0.024 C 
ATOM     32  C   UNL     1      -3.062  -2.437  -1.188  0.00  0.00    +0.101 C 
ENDBRANCH  27  32
ENDBRANCH  18  28
ENDBRANCH   1  22
TORSDOF 4
