REMARK  Name = ZINC39534516
REMARK  10 active torsions:
REMARK  status: ('A' for Active; 'I' for Inactive)
REMARK    1  A    between atoms: C_1  and  C_2
REMARK    2  A    between atoms: C_2  and  C_3
REMARK    3  A    between atoms: C_2  and  S_4
REMARK    4  A    between atoms: S_4  and  C_7
REMARK    5  A    between atoms: C_10  and  C_13
REMARK    6  A    between atoms: C_13  and  C_15
REMARK    7  A    between atoms: C_13  and  N_18
REMARK    8  A    between atoms: C_15  and  N_16
REMARK    9  A    between atoms: N_16  and  O_17
REMARK   10  A    between atoms: C_22  and  O_25
REMARK                            x       y       z     vdW  Elec       q    Type
REMARK                         _______ _______ _______ _____ _____    ______ ____
ROOT
ATOM      1  C   UNL     1      -1.140  -6.621   0.486  0.00  0.00    +0.103 C 
ENDROOT
BRANCH   1   2
ATOM      2  N   UNL     1      -0.265  -6.844   1.644  0.00  0.00    -0.295 NA
ATOM      3  C   UNL     1       0.570  -8.039   1.452  0.00  0.00    +0.066 C 
ATOM      4  C   UNL     1       1.506  -8.202   2.651  0.00  0.00    -0.063 C 
ATOM      5  N   UNL     1       0.712  -8.332   3.879  0.00  0.00    +0.398 N 
ATOM      6  C   UNL     1      -0.098  -7.121   4.071  0.00  0.00    +0.073 C 
ATOM      7  C   UNL     1      -1.048  -6.949   2.883  0.00  0.00    +0.096 C 
ATOM      8  H   UNL     1       0.104  -9.133   3.803  0.00  0.00    -0.082 HD
ATOM      9  H   UNL     1       1.329  -8.451   4.668  0.00  0.00    -0.082 HD
BRANCH   6  10
ATOM     10  O   UNL     1      -0.858  -7.242   5.275  0.00  0.00    -0.409 OA
ATOM     11  H   UNL     1      -0.319  -7.354   6.070  0.00  0.00    +0.207 HD
ENDBRANCH   6  10
ENDBRANCH   1   2
BRANCH   1  15
ATOM     12  C   UNL     1      -1.620  -2.425  -0.150  0.00  0.00    +0.088 A 
ATOM     13  C   UNL     1      -1.375  -3.262  -1.222  0.00  0.00    +0.027 A 
ATOM     14  C   UNL     1      -1.219  -4.620  -1.016  0.00  0.00    +0.007 A 
ATOM     15  C   UNL     1      -1.309  -5.141   0.261  0.00  0.00    -0.029 A 
ATOM     16  C   UNL     1      -1.554  -4.303   1.333  0.00  0.00    +0.007 A 
ATOM     17  C   UNL     1      -1.705  -2.944   1.128  0.00  0.00    +0.027 A 
BRANCH  12  18
ATOM     18  S   UNL     1      -1.819  -0.693  -0.413  0.00  0.00    -0.001 S 
ATOM     19  O   UNL     1      -2.621  -0.252   0.674  0.00  0.00    -0.169 OA
ATOM     20  O   UNL     1      -2.286  -0.581  -1.750  0.00  0.00    -0.169 OA
BRANCH  18  22
ATOM     21  C   UNL     1      -0.212   1.520  -0.363  0.00  0.00    +0.032 C 
ATOM     22  C   UNL     1      -0.146  -0.006  -0.275  0.00  0.00    +0.130 C 
ATOM     23  C   UNL     1       0.464  -0.413   1.069  0.00  0.00    +0.032 C 
ENDBRANCH  18  22
ENDBRANCH  12  18
ENDBRANCH   1  15
BRANCH   1  24
ATOM     24  C   UNL     1      -2.507  -7.256   0.749  0.00  0.00    +0.134 C 
BRANCH  24  25
ATOM     25  N   UNL     1      -2.336  -8.688   1.028  0.00  0.00    -0.202 NA
ATOM     26  H   UNL     1      -1.847  -9.148   0.274  0.00  0.00    +0.154 HD
BRANCH  25  27
ATOM     27  O   UNL     1      -3.625  -9.330   1.286  0.00  0.00    -0.315 OA
ATOM     28  H   UNL     1      -3.563 -10.276   1.475  0.00  0.00    +0.236 HD
ENDBRANCH  25  27
ENDBRANCH  24  25
ENDBRANCH   1  24
TORSDOF 8
