REMARK  Name = ZINC39675297
REMARK  10 active torsions:
REMARK  status: ('A' for Active; 'I' for Inactive)
REMARK    1  A    between atoms: C_1  and  C_2
REMARK    2  A    between atoms: C_2  and  C_4
REMARK    3  A    between atoms: C_2  and  N_14
REMARK    4  A    between atoms: C_4  and  C_5
REMARK    5  A    between atoms: C_5  and  C_6
REMARK    6  A    between atoms: C_9  and  O_12
REMARK    7  A    between atoms: O_12  and  C_13
REMARK    8  A    between atoms: C_15  and  C_17
REMARK    9  A    between atoms: C_28  and  C_30
REMARK   10  A    between atoms: C_30  and  C_31
REMARK                            x       y       z     vdW  Elec       q    Type
REMARK                         _______ _______ _______ _____ _____    ______ ____
ROOT
ATOM      1  C   UNL     1      -3.442  -1.177   1.191  0.00  0.00    +0.100 C 
ATOM      2  C   UNL     1      -3.507  -2.570   0.526  0.00  0.00    +0.121 C 
ATOM      3  N   UNL     1      -3.410  -3.528   1.653  0.00  0.00    -0.300 N 
ATOM      4  C   UNL     1      -4.224  -2.915   2.729  0.00  0.00    +0.115 C 
ATOM      5  C   UNL     1      -3.917  -1.407   2.636  0.00  0.00    -0.004 C 
ATOM      6  C   UNL     1      -5.178  -0.593   2.914  0.00  0.00    -0.010 C 
ATOM      7  C   UNL     1      -5.598  -0.792   4.373  0.00  0.00    -0.082 C 
ATOM      8  N   UNL     1      -4.509  -0.364   5.260  0.00  0.00    +0.379 N 
ATOM      9  C   UNL     1      -3.330  -1.213   5.051  0.00  0.00    -0.082 C 
ATOM     10  C   UNL     1      -2.814  -1.032   3.621  0.00  0.00    -0.010 C 
ATOM     11  C   UNL     1      -2.734  -4.693   1.690  0.00  0.00    +0.220 C 
ATOM     12  O   UNL     1      -2.752  -5.372   2.695  0.00  0.00    -0.275 OA
ATOM     13  H   UNL     1      -4.271   0.596   5.059  0.00  0.00    -0.086 HD
ATOM     14  H   UNL     1      -4.810  -0.439   6.220  0.00  0.00    -0.086 HD
ENDROOT
BRANCH   1  16
ATOM     15  N   UNL     1      -1.800   0.673   1.157  0.00  0.00    -0.312 N 
ATOM     16  C   UNL     1      -2.029  -0.655   1.181  0.00  0.00    +0.218 C 
ATOM     17  O   UNL     1      -1.096  -1.431   1.194  0.00  0.00    -0.275 OA
ATOM     18  H   UNL     1      -2.546   1.293   1.146  0.00  0.00    +0.149 HD
BRANCH  15  20
ATOM     19  C   UNL     1       0.097   1.264   2.582  0.00  0.00    +0.028 C 
ATOM     20  C   UNL     1      -0.426   1.180   1.146  0.00  0.00    +0.070 C 
BRANCH  20  21
ATOM     21  C   UNL     1      -0.401   2.572   0.512  0.00  0.00    +0.026 C 
BRANCH  21  22
ATOM     22  C   UNL     1      -0.805   2.469  -0.960  0.00  0.00    +0.037 C 
BRANCH  22  23
ATOM     23  C   UNL     1      -0.780   3.840  -1.585  0.00  0.00    -0.047 A 
ATOM     24  C   UNL     1      -1.915   4.630  -1.562  0.00  0.00    +0.007 A 
ATOM     25  C   UNL     1      -1.895   5.886  -2.135  0.00  0.00    +0.046 A 
ATOM     26  C   UNL     1      -0.735   6.356  -2.733  0.00  0.00    +0.120 A 
ATOM     27  C   UNL     1       0.402   5.562  -2.754  0.00  0.00    +0.046 A 
ATOM     28  C   UNL     1       0.379   4.308  -2.176  0.00  0.00    +0.007 A 
BRANCH  26  29
ATOM     29  O   UNL     1      -0.713   7.593  -3.298  0.00  0.00    -0.495 OA
ATOM     30  C   UNL     1       0.516   8.011  -3.895  0.00  0.00    +0.277 C 
ENDBRANCH  26  29
ENDBRANCH  22  23
ENDBRANCH  21  22
ENDBRANCH  20  21
ENDBRANCH  15  20
ENDBRANCH   1  16
BRANCH  11  31
ATOM     31  C   UNL     1      -1.956  -5.152   0.483  0.00  0.00    +0.131 C 
BRANCH  31  32
ATOM     32  C   UNL     1      -1.298  -6.474   0.783  0.00  0.00    -0.039 A 
ATOM     33  C   UNL     1      -0.029  -6.505   1.332  0.00  0.00    +0.005 A 
ATOM     34  C   UNL     1       0.575  -7.717   1.607  0.00  0.00    +0.020 A 
ATOM     35  C   UNL     1      -0.089  -8.899   1.334  0.00  0.00    +0.041 A 
ATOM     36  C   UNL     1      -1.359  -8.868   0.785  0.00  0.00    +0.020 A 
ATOM     37  C   UNL     1      -1.965  -7.655   0.515  0.00  0.00    +0.005 A 
ATOM     38 CL   UNL     1       0.670 -10.422   1.679  0.00  0.00    -0.084 Cl
ENDBRANCH  31  32
ENDBRANCH  11  31
TORSDOF 8
