REMARK  Name = ZINC50307798
REMARK  9 active torsions:
REMARK  status: ('A' for Active; 'I' for Inactive)
REMARK    1  A    between atoms: C_1  and  C_2
REMARK    2  A    between atoms: C_2  and  C_3
REMARK    3  A    between atoms: C_4  and  N_22
REMARK    4  A    between atoms: C_5  and  C_9
REMARK    5  A    between atoms: N_11  and  C_12
REMARK    6  A    between atoms: C_12  and  C_14
REMARK    7  A    between atoms: C_12  and  C_15
REMARK    8  A    between atoms: C_17  and  C_21
REMARK    9  A    between atoms: C_19  and  C_20
REMARK                            x       y       z     vdW  Elec       q    Type
REMARK                         _______ _______ _______ _____ _____    ______ ____
ROOT
ATOM      1  C   UNL     1       3.499  -1.460  -3.373  0.00  0.00    +0.266 C 
ATOM      2  O   UNL     1       4.543  -1.336  -2.763  0.00  0.00    -0.268 OA
ATOM      3  N   UNL     1       3.510  -1.900  -4.647  0.00  0.00    -0.303 N 
ATOM      4  H   UNL     1       2.677  -1.999  -5.134  0.00  0.00    +0.150 HD
ENDROOT
BRANCH   1   7
ATOM      5  C   UNL     1       0.707  -0.490  -1.238  0.00  0.00    +0.057 A 
ATOM      6  C   UNL     1       2.048  -0.656  -1.393  0.00  0.00    +0.078 A 
ATOM      7  C   UNL     1       2.219  -1.128  -2.719  0.00  0.00    +0.168 A 
ATOM      8  N   UNL     1       1.018  -1.213  -3.258  0.00  0.00    -0.167 NA
ATOM      9  N   UNL     1       0.123  -0.851  -2.410  0.00  0.00    -0.279 N 
ATOM     10  H   UNL     1      -0.831  -0.835  -2.583  0.00  0.00    +0.189 HD
BRANCH   6  11
ATOM     11  N   UNL     1       3.050  -0.412  -0.442  0.00  0.00    -0.355 N 
ATOM     12  H   UNL     1       2.812  -0.087   0.441  0.00  0.00    +0.142 HD
ATOM     13  H   UNL     1       3.980  -0.567  -0.667  0.00  0.00    +0.142 HD
ENDBRANCH   6  11
BRANCH   5  15
ATOM     14  C   UNL     1      -0.019   1.526   0.010  0.00  0.00    +0.010 C 
ATOM     15  C   UNL     1       0.002  -0.004   0.002  0.00  0.00    +0.053 C 
ENDBRANCH   5  15
ENDBRANCH   1   7
BRANCH   3  16
ATOM     16  C   UNL     1       4.781  -2.230  -5.296  0.00  0.00    +0.101 C 
ATOM     17  C   UNL     1       5.398  -0.960  -5.885  0.00  0.00    +0.033 C 
BRANCH  16  18
ATOM     18  C   UNL     1       4.537  -3.228  -6.400  0.00  0.00    -0.017 A 
ATOM     19  C   UNL     1       3.302  -3.305  -7.015  0.00  0.00    +0.016 A 
ATOM     20  C   UNL     1       3.116  -4.214  -8.003  0.00  0.00    -0.013 A 
ATOM     21  S   UNL     1       4.718  -4.998  -8.091  0.00  0.00    -0.098 S 
ATOM     22  C   UNL     1       5.528  -4.058  -6.807  0.00  0.00    -0.008 A 
ATOM     23  C   UNL     1       6.946  -4.162  -6.306  0.00  0.00    +0.052 C 
ATOM     24  C   UNL     1       1.879  -4.491  -8.817  0.00  0.00    +0.051 C 
ENDBRANCH  16  18
ENDBRANCH   3  16
TORSDOF 5
