REMARK  Name = ZINC06923820
REMARK  8 active torsions:
REMARK  status: ('A' for Active; 'I' for Inactive)
REMARK    1  A    between atoms: C_1  and  C_2
REMARK    2  A    between atoms: C_5  and  N_9
REMARK    3  A    between atoms: C_7  and  C_8
REMARK    4  A    between atoms: C_15  and  C_16
REMARK    5  A    between atoms: C_20  and  O_24
REMARK    6  A    between atoms: C_21  and  O_22
REMARK    7  A    between atoms: O_22  and  C_23
REMARK    8  A    between atoms: O_24  and  C_25
REMARK                            x       y       z     vdW  Elec       q    Type
REMARK                         _______ _______ _______ _____ _____    ______ ____
ROOT
ATOM      1  N   UNL     1       0.830  -4.142  -1.016  0.00  0.00    -0.226 NA
ATOM      2  C   UNL     1      -0.142  -4.805  -1.601  0.00  0.00    +0.166 C 
ATOM      3  N   UNL     1      -0.288  -6.168  -1.737  0.00  0.00    -0.260 N 
ATOM      4  C   UNL     1      -1.339  -6.675  -2.360  0.00  0.00    +0.256 C 
ATOM      5  O   UNL     1      -1.484  -7.876  -2.490  0.00  0.00    -0.269 OA
ATOM      6  C   UNL     1      -2.328  -5.717  -2.891  0.00  0.00    +0.078 C 
ATOM      7  C   UNL     1      -3.483  -5.955  -3.563  0.00  0.00    +0.032 C 
ATOM      8  S   UNL     1      -1.600  -4.159  -2.405  0.00  0.00    -0.049 S 
ATOM      9  H   UNL     1       0.386  -6.763  -1.373  0.00  0.00    +0.157 HD
ENDROOT
BRANCH   1  14
ATOM     10  C   UNL     1       0.695   1.499  -0.847  0.00  0.00    +0.044 C 
ATOM     11  C   UNL     1       0.731  -0.007  -0.892  0.00  0.00    -0.047 A 
ATOM     12  C   UNL     1       0.432  -0.668  -2.071  0.00  0.00    +0.006 A 
ATOM     13  C   UNL     1       0.463  -2.046  -2.119  0.00  0.00    +0.028 A 
ATOM     14  C   UNL     1       0.798  -2.775  -0.975  0.00  0.00    +0.067 A 
ATOM     15  C   UNL     1       1.099  -2.101   0.210  0.00  0.00    +0.031 A 
ATOM     16  C   UNL     1       1.069  -0.722   0.243  0.00  0.00    -0.046 A 
ATOM     17  C   UNL     1       1.398   0.007   1.520  0.00  0.00    +0.044 C 
ENDBRANCH   1  14
BRANCH   7  18
ATOM     18  C   UNL     1      -4.238  -4.838  -4.144  0.00  0.00    +0.022 A 
ATOM     19  C   UNL     1      -3.617  -3.600  -4.351  0.00  0.00    +0.012 A 
ATOM     20  C   UNL     1      -4.330  -2.555  -4.897  0.00  0.00    +0.004 A 
ATOM     21  C   UNL     1      -5.661  -2.721  -5.242  0.00  0.00    +0.049 A 
ATOM     22  C   UNL     1      -6.290  -3.939  -5.044  0.00  0.00    +0.162 A 
ATOM     23  C   UNL     1      -5.585  -5.006  -4.500  0.00  0.00    +0.169 A 
BRANCH  23  24
ATOM     24  O   UNL     1      -6.197  -6.203  -4.309  0.00  0.00    -0.491 OA
ATOM     25  C   UNL     1      -6.844  -6.408  -3.051  0.00  0.00    +0.277 C 
ENDBRANCH  23  24
BRANCH  22  26
ATOM     26  O   UNL     1      -7.598  -4.093  -5.386  0.00  0.00    -0.491 OA
ATOM     27  C   UNL     1      -8.260  -2.956  -5.945  0.00  0.00    +0.277 C 
ENDBRANCH  22  26
ENDBRANCH   7  18
TORSDOF 4
