REMARK  Name = ZINC39636474
REMARK  10 active torsions:
REMARK  status: ('A' for Active; 'I' for Inactive)
REMARK    1  A    between atoms: C_1  and  C_2
REMARK    2  A    between atoms: C_5  and  C_35
REMARK    3  A    between atoms: C_6  and  C_8
REMARK    4  A    between atoms: C_8  and  N_9
REMARK    5  A    between atoms: C_10  and  C_12
REMARK    6  A    between atoms: C_23  and  C_25
REMARK    7  A    between atoms: C_27  and  O_33
REMARK    8  A    between atoms: C_29  and  O_31
REMARK    9  A    between atoms: O_31  and  C_32
REMARK   10  A    between atoms: O_33  and  C_34
REMARK                            x       y       z     vdW  Elec       q    Type
REMARK                         _______ _______ _______ _____ _____    ______ ____
ROOT
ATOM      1  C   UNL     1       3.762  -4.524   4.105  0.00  0.00    +0.100 C 
ATOM      2  C   UNL     1       4.405  -3.124   4.222  0.00  0.00    +0.121 C 
ATOM      3  N   UNL     1       4.387  -2.824   5.673  0.00  0.00    -0.296 N 
ATOM      4  C   UNL     1       4.721  -4.116   6.321  0.00  0.00    +0.115 C 
ATOM      5  C   UNL     1       3.974  -5.173   5.483  0.00  0.00    -0.004 C 
ATOM      6  C   UNL     1       2.630  -5.501   6.126  0.00  0.00    -0.010 C 
ATOM      7  C   UNL     1       2.867  -6.196   7.470  0.00  0.00    -0.082 C 
ATOM      8  N   UNL     1       3.643  -7.424   7.257  0.00  0.00    +0.379 N 
ATOM      9  C   UNL     1       4.970  -7.092   6.724  0.00  0.00    -0.082 C 
ATOM     10  C   UNL     1       4.821  -6.435   5.349  0.00  0.00    -0.010 C 
ATOM     11  C   UNL     1       4.127  -1.644   6.270  0.00  0.00    +0.247 C 
ATOM     12  O   UNL     1       3.744  -0.700   5.607  0.00  0.00    -0.270 OA
ATOM     13  H   UNL     1       3.746  -7.911   8.134  0.00  0.00    -0.086 HD
ATOM     14  H   UNL     1       3.158  -8.017   6.600  0.00  0.00    -0.086 HD
ENDROOT
BRANCH  11  15
ATOM     15  C   UNL     1       4.306  -1.498   7.730  0.00  0.00    +0.044 A 
ATOM     16  C   UNL     1       5.130  -2.383   8.425  0.00  0.00    +0.059 A 
ATOM     17  C   UNL     1       5.296  -2.243   9.793  0.00  0.00    +0.124 A 
ATOM     18  C   UNL     1       4.644  -1.224  10.472  0.00  0.00    +0.091 A 
ATOM     19  C   UNL     1       3.823  -0.341   9.784  0.00  0.00    +0.124 A 
ATOM     20  C   UNL     1       3.656  -0.471   8.416  0.00  0.00    +0.059 A 
BRANCH  19  21
ATOM     21  O   UNL     1       3.186   0.655  10.454  0.00  0.00    -0.495 OA
ATOM     22  C   UNL     1       3.407   0.734  11.864  0.00  0.00    +0.277 C 
ENDBRANCH  19  21
BRANCH  17  23
ATOM     23  O   UNL     1       6.099  -3.104  10.472  0.00  0.00    -0.495 OA
ATOM     24  C   UNL     1       6.224  -2.901  11.881  0.00  0.00    +0.277 C 
ENDBRANCH  17  23
ENDBRANCH  11  15
BRANCH   1  26
ATOM     25  N   UNL     1       1.641  -5.415   3.196  0.00  0.00    -0.311 N 
ATOM     26  C   UNL     1       2.290  -4.403   3.804  0.00  0.00    +0.218 C 
ATOM     27  O   UNL     1       1.690  -3.394   4.108  0.00  0.00    -0.275 OA
ATOM     28  H   UNL     1       2.121  -6.222   2.952  0.00  0.00    +0.149 HD
BRANCH  25  29
ATOM     29  C   UNL     1       0.210  -5.297   2.902  0.00  0.00    +0.139 C 
BRANCH  29  35
ATOM     30  C   UNL     1      -1.043  -7.768  -1.265  0.00  0.00    +0.044 C 
ATOM     31  C   UNL     1      -0.870  -7.737   0.232  0.00  0.00    -0.050 A 
ATOM     32  C   UNL     1      -1.151  -8.862   0.984  0.00  0.00    +0.003 A 
ATOM     33  C   UNL     1      -0.993  -8.833   2.357  0.00  0.00    +0.004 A 
ATOM     34  C   UNL     1      -0.552  -7.679   2.978  0.00  0.00    -0.046 A 
ATOM     35  C   UNL     1      -0.270  -6.555   2.226  0.00  0.00    -0.027 A 
ATOM     36  C   UNL     1      -0.424  -6.585   0.852  0.00  0.00    +0.008 A 
ATOM     37  C   UNL     1      -0.380  -7.647   4.474  0.00  0.00    +0.044 C 
ENDBRANCH  29  35
ENDBRANCH  25  29
ENDBRANCH   1  26
TORSDOF 6
