REMARK  Name = ZINC52095052
REMARK  2 active torsions:
REMARK  status: ('A' for Active; 'I' for Inactive)
REMARK    1  A    between atoms: C_5  and  C_7
REMARK    2  A    between atoms: C_7  and  C_9
REMARK                            x       y       z     vdW  Elec       q    Type
REMARK                         _______ _______ _______ _____ _____    ______ ____
ROOT
ATOM      1  C   UNL     1       1.345  -2.679  -1.441  0.00  0.00    -0.009 A 
ATOM      2  C   UNL     1       2.592  -2.893  -1.995  0.00  0.00    +0.034 A 
ATOM      3  C   UNL     1       2.700  -3.347  -3.300  0.00  0.00    +0.067 A 
ATOM      4  C   UNL     1       1.546  -3.584  -4.051  0.00  0.00    +0.068 A 
ATOM      5  C   UNL     1       0.299  -3.366  -3.489  0.00  0.00    +0.043 A 
ATOM      6  C   UNL     1       0.201  -2.920  -2.184  0.00  0.00    +0.025 A 
ATOM      7 BR   UNL     1      -1.501  -2.630  -1.413  0.00  0.00    -0.050 Br
ATOM      8  N   UNL     1       1.966  -4.025  -5.304  0.00  0.00    -0.306 N 
ATOM      9  H   UNL     1       1.387  -4.269  -6.043  0.00  0.00    +0.170 HD
ATOM     10  C   UNL     1       3.312  -4.054  -5.315  0.00  0.00    +0.325 A 
ATOM     11  O   UNL     1       3.998  -4.393  -6.261  0.00  0.00    -0.247 OA
ATOM     12  N   UNL     1       3.784  -3.651  -4.121  0.00  0.00    -0.306 N 
ATOM     13  H   UNL     1       4.719  -3.583  -3.873  0.00  0.00    +0.170 HD
ENDROOT
BRANCH   1  14
ATOM     14  C   UNL     1       1.228  -2.186  -0.022  0.00  0.00    +0.144 C 
ATOM     15 CL   UNL     1       1.100  -0.388  -0.018  0.00  0.00    -0.112 Cl
BRANCH  14  20
ATOM     16  C   UNL     1       4.634  -2.118   1.605  0.00  0.00    +0.000 A 
ATOM     17  C   UNL     1       4.689  -3.372   2.186  0.00  0.00    +0.003 A 
ATOM     18  C   UNL     1       3.625  -4.243   2.052  0.00  0.00    +0.038 A 
ATOM     19  C   UNL     1       2.503  -3.860   1.337  0.00  0.00    +0.128 A 
ATOM     20  C   UNL     1       2.449  -2.604   0.757  0.00  0.00    +0.010 A 
ATOM     21  C   UNL     1       3.514  -1.735   0.891  0.00  0.00    +0.008 A 
ATOM     22  F   UNL     1       1.462  -4.711   1.206  0.00  0.00    -0.205 F 
ENDBRANCH  14  20
ENDBRANCH   1  14
TORSDOF 2
