REMARK  Name = ZINC12604610
REMARK  6 active torsions:
REMARK  status: ('A' for Active; 'I' for Inactive)
REMARK    1  A    between atoms: C_1  and  C_2
REMARK    2  A    between atoms: C_2  and  C_3
REMARK    3  A    between atoms: C_3  and  O_4
REMARK    4  A    between atoms: O_4  and  C_5
REMARK    5  A    between atoms: C_8  and  C_12
REMARK    6  A    between atoms: C_9  and  O_11
REMARK                            x       y       z     vdW  Elec       q    Type
REMARK                         _______ _______ _______ _____ _____    ______ ____
ROOT
ATOM      1  C   UNL     1      -6.405  -4.579   0.040  0.00  0.00    +0.209 C 
ATOM      2  N   UNL     1      -7.427  -3.693  -0.534  0.00  0.00    -0.319 N 
ATOM      3  C   UNL     1      -7.999  -2.675   0.223  0.00  0.00    +0.040 A 
ATOM      4  C   UNL     1      -8.454  -1.506  -0.365  0.00  0.00    +0.024 A 
ATOM      5  C   UNL     1      -9.036  -0.524   0.415  0.00  0.00    +0.002 A 
ATOM      6  C   UNL     1      -9.170  -0.694   1.783  0.00  0.00    +0.001 A 
ATOM      7  C   UNL     1      -8.716  -1.850   2.389  0.00  0.00    +0.013 A 
ATOM      8  C   UNL     1      -8.123  -2.837   1.616  0.00  0.00    +0.038 A 
ATOM      9  C   UNL     1      -7.574  -4.081   2.192  0.00  0.00    +0.145 A 
ATOM     10  N   UNL     1      -6.774  -4.912   1.419  0.00  0.00    -0.300 N 
ATOM     11  C   UNL     1      -6.451  -5.985   2.188  0.00  0.00    +0.071 A 
ATOM     12  C   UNL     1      -5.716  -7.141   1.943  0.00  0.00    +0.028 A 
ATOM     13  C   UNL     1      -5.587  -8.039   2.989  0.00  0.00    +0.002 A 
ATOM     14  C   UNL     1      -6.158  -7.809   4.229  0.00  0.00    +0.002 A 
ATOM     15  C   UNL     1      -6.890  -6.679   4.498  0.00  0.00    +0.030 A 
ATOM     16  C   UNL     1      -7.041  -5.753   3.458  0.00  0.00    +0.090 A 
ATOM     17  N   UNL     1      -7.694  -4.575   3.392  0.00  0.00    -0.227 NA
ATOM     18  H   UNL     1      -7.707  -3.820  -1.454  0.00  0.00    +0.148 HD
ENDROOT
BRANCH   1  22
ATOM     19  C   UNL     1      -2.616  -2.596   0.013  0.00  0.00    +0.124 A 
ATOM     20  C   UNL     1      -3.791  -1.856   0.023  0.00  0.00    +0.046 A 
ATOM     21  C   UNL     1      -5.013  -2.500   0.031  0.00  0.00    +0.014 A 
ATOM     22  C   UNL     1      -5.070  -3.881   0.030  0.00  0.00    +0.035 A 
ATOM     23  C   UNL     1      -3.899  -4.624   0.021  0.00  0.00    +0.127 A 
ATOM     24  C   UNL     1      -2.671  -3.981   0.006  0.00  0.00    +0.091 A 
BRANCH  23  25
ATOM     25  O   UNL     1      -3.955  -5.982   0.020  0.00  0.00    -0.506 OA
ATOM     26  H   UNL     1      -3.978  -6.374  -0.863  0.00  0.00    +0.292 HD
ENDBRANCH  23  25
BRANCH  19  27
ATOM     27  O   UNL     1      -1.414  -1.962   0.005  0.00  0.00    -0.492 OA
BRANCH  27  28
ATOM     28  C   UNL     1      -1.433  -0.534   0.013  0.00  0.00    +0.229 C 
BRANCH  28  30
ATOM     29  C   UNL     1      -0.019   1.526   0.010  0.00  0.00    +0.007 C 
ATOM     30  C   UNL     1       0.002  -0.004   0.002  0.00  0.00    +0.038 C 
ENDBRANCH  28  30
ENDBRANCH  27  28
ENDBRANCH  19  27
ENDBRANCH   1  22
TORSDOF 5
