REMARK  Name = ZINC19927547
REMARK  3 active torsions:
REMARK  status: ('A' for Active; 'I' for Inactive)
REMARK    1  A    between atoms: C_1  and  C_2
REMARK    2  A    between atoms: C_8  and  C_16
REMARK    3  A    between atoms: C_11  and  C_15
REMARK                            x       y       z     vdW  Elec       q    Type
REMARK                         _______ _______ _______ _____ _____    ______ ____
ROOT
ATOM      1  C   UNL     1      -0.013   1.086   0.008  0.00  0.00    +0.053 C 
ATOM      2  C   UNL     1      -0.718   1.572   1.248  0.00  0.00    +0.008 A 
ATOM      3  C   UNL     1      -0.214   1.861   2.473  0.00  0.00    +0.124 A 
ATOM      4  N   UNL     1      -1.042   2.276   3.411  0.00  0.00    -0.233 NA
ATOM      5  C   UNL     1      -2.332   2.411   3.173  0.00  0.00    +0.168 A 
ATOM      6  S   UNL     1      -2.449   1.934   1.507  0.00  0.00    -0.057 S 
ATOM      7  N   UNL     1      -3.340   2.832   4.033  0.00  0.00    -0.233 N 
ATOM      8  C   UNL     1      -3.026   3.197   5.428  0.00  0.00    +0.172 C 
ATOM      9  S   UNL     1      -4.566   4.087   5.922  0.00  0.00    -0.121 S 
ATOM     10  C   UNL     1      -5.645   3.379   4.604  0.00  0.00    +0.132 C 
ATOM     11  C   UNL     1      -4.595   2.905   3.611  0.00  0.00    +0.235 C 
ATOM     12  O   UNL     1      -4.895   2.605   2.475  0.00  0.00    -0.274 OA
ATOM     13  C   UNL     1      -6.473   2.208   5.136  0.00  0.00    +0.029 C 
ENDROOT
BRANCH   8  14
ATOM     14  C   UNL     1      -1.829   4.110   5.492  0.00  0.00    -0.017 A 
ATOM     15  C   UNL     1      -1.557   4.968   4.443  0.00  0.00    +0.006 A 
ATOM     16  C   UNL     1      -0.462   5.809   4.504  0.00  0.00    +0.000 A 
ATOM     17  C   UNL     1       0.367   5.785   5.610  0.00  0.00    +0.000 A 
ATOM     18  C   UNL     1       0.098   4.923   6.657  0.00  0.00    +0.000 A 
ATOM     19  C   UNL     1      -1.000   4.086   6.598  0.00  0.00    +0.006 A 
ENDBRANCH   8  14
TORSDOF 1
