REMARK  Name = ZINC22451968
REMARK  9 active torsions:
REMARK  status: ('A' for Active; 'I' for Inactive)
REMARK    1  A    between atoms: C_1  and  C_2
REMARK    2  A    between atoms: C_2  and  O_3
REMARK    3  A    between atoms: O_3  and  C_4
REMARK    4  A    between atoms: C_4  and  C_6
REMARK    5  A    between atoms: C_6  and  C_7
REMARK    6  A    between atoms: C_7  and  C_8
REMARK    7  A    between atoms: C_9  and  C_26
REMARK    8  A    between atoms: C_18  and  C_25
REMARK    9  A    between atoms: C_21  and  C_24
REMARK                            x       y       z     vdW  Elec       q    Type
REMARK                         _______ _______ _______ _____ _____    ______ ____
ROOT
ATOM      1  C   UNL     1       1.339   0.619  -4.560  0.00  0.00    +0.038 A 
ATOM      2  C   UNL     1       1.745   0.188  -3.331  0.00  0.00    +0.050 A 
ATOM      3  N   UNL     1       1.052   0.520  -2.244  0.00  0.00    -0.221 NA
ATOM      4  C   UNL     1      -0.037   1.258  -2.325  0.00  0.00    +0.198 A 
ATOM      5  N   UNL     1      -0.489   1.716  -3.523  0.00  0.00    -0.295 N 
ATOM      6  H   UNL     1      -1.399   2.334  -3.568  0.00  0.00    +0.172 HD
ATOM      7  C   UNL     1       0.181   1.411  -4.654  0.00  0.00    +0.256 A 
ATOM      8  O   UNL     1      -0.210   1.813  -5.737  0.00  0.00    -0.267 OA
ATOM      9  N   UNL     1      -0.723   1.572  -1.182  0.00  0.00    -0.301 N 
ATOM     10  C   UNL     1      -2.095   1.052  -1.231  0.00  0.00    +0.111 C 
ATOM     11  C   UNL     1      -2.873   1.544  -0.009  0.00  0.00    +0.004 C 
ATOM     12  C   UNL     1      -2.170   1.064   1.264  0.00  0.00    +0.009 C 
ATOM     13  C   UNL     1      -0.729   1.579   1.267  0.00  0.00    +0.004 C 
ATOM     14  C   UNL     1      -0.013   1.086   0.008  0.00  0.00    +0.111 C 
ATOM     15  C   UNL     1      -0.002   1.054   2.507  0.00  0.00    +0.009 C 
ATOM     16  C   UNL     1      -4.296   0.985  -0.050  0.00  0.00    +0.009 C 
ATOM     17  C   UNL     1       2.984  -0.662  -3.203  0.00  0.00    +0.066 C 
ENDROOT
BRANCH   1  18
ATOM     18  C   UNL     1       2.119   0.253  -5.797  0.00  0.00    +0.053 C 
BRANCH  18  19
ATOM     19  C   UNL     1       1.504  -0.993  -6.438  0.00  0.00    +0.125 C 
BRANCH  19  20
ATOM     20  C   UNL     1       2.284  -1.359  -7.674  0.00  0.00    +0.307 C 
ATOM     21  O   UNL     1       3.235  -0.692  -8.008  0.00  0.00    -0.251 OA
BRANCH  20  22
ATOM     22  O   UNL     1       1.922  -2.425  -8.404  0.00  0.00    -0.465 OA
BRANCH  22  24
ATOM     23  C   UNL     1       2.159  -3.960 -10.280  0.00  0.00    +0.048 C 
ATOM     24  C   UNL     1       2.719  -2.719  -9.582  0.00  0.00    +0.229 C 
ENDBRANCH  22  24
ENDBRANCH  20  22
ENDBRANCH  19  20
ENDBRANCH  18  19
ENDBRANCH   1  18
TORSDOF 5
