REMARK  Name = ZINC09950741
REMARK  7 active torsions:
REMARK  status: ('A' for Active; 'I' for Inactive)
REMARK    1  A    between atoms: C_4  and  C_7
REMARK    2  A    between atoms: C_7  and  C_29
REMARK    3  A    between atoms: N_10  and  N_14
REMARK    4  A    between atoms: C_15  and  C_17
REMARK    5  A    between atoms: C_17  and  C_18
REMARK    6  A    between atoms: C_18  and  C_19
REMARK    7  A    between atoms: C_21  and  C_24
REMARK                            x       y       z     vdW  Elec       q    Type
REMARK                         _______ _______ _______ _____ _____    ______ ____
ROOT
ATOM      1  C   UNL     1      -1.466   2.833   5.517  0.00  0.00    +0.165 C 
ATOM      2  C   UNL     1      -0.695   3.677   4.521  0.00  0.00    +0.272 C 
ATOM      3  O   UNL     1      -0.365   4.837   4.645  0.00  0.00    -0.270 OA
ATOM      4  N   UNL     1      -0.454   2.869   3.470  0.00  0.00    -0.137 N 
ATOM      5  C   UNL     1      -0.954   1.644   3.664  0.00  0.00    +0.327 C 
ATOM      6  O   UNL     1      -0.858   0.740   2.857  0.00  0.00    -0.251 OA
ATOM      7  N   UNL     1      -1.573   1.524   4.852  0.00  0.00    -0.276 N 
ATOM      8  H   UNL     1      -2.006   0.729   5.202  0.00  0.00    +0.152 HD
ENDROOT
BRANCH   1  12
ATOM      9  C   UNL     1      -5.342   4.485   6.221  0.00  0.00    +0.000 A 
ATOM     10  C   UNL     1      -4.224   5.296   6.279  0.00  0.00    +0.000 A 
ATOM     11  C   UNL     1      -2.970   4.761   6.052  0.00  0.00    +0.006 A 
ATOM     12  C   UNL     1      -2.833   3.416   5.766  0.00  0.00    -0.011 A 
ATOM     13  C   UNL     1      -3.952   2.606   5.701  0.00  0.00    +0.006 A 
ATOM     14  C   UNL     1      -5.206   3.139   5.933  0.00  0.00    +0.000 A 
ENDBRANCH   1  12
BRANCH   1  15
ATOM     15  C   UNL     1      -0.701   2.710   6.810  0.00  0.00    -0.011 A 
ATOM     16  C   UNL     1      -0.258   3.845   7.462  0.00  0.00    +0.006 A 
ATOM     17  C   UNL     1       0.439   3.732   8.650  0.00  0.00    +0.000 A 
ATOM     18  C   UNL     1       0.702   2.483   9.182  0.00  0.00    +0.000 A 
ATOM     19  C   UNL     1       0.263   1.348   8.527  0.00  0.00    +0.000 A 
ATOM     20  C   UNL     1      -0.438   1.461   7.341  0.00  0.00    +0.006 A 
ENDBRANCH   1  15
BRANCH   4  21
ATOM     21  N   UNL     1       0.240   3.263   2.318  0.00  0.00    -0.224 N 
ATOM     22  C   UNL     1      -0.433   3.497   1.173  0.00  0.00    +0.230 C 
ATOM     23  O   UNL     1      -1.638   3.366   1.141  0.00  0.00    -0.274 OA
ATOM     24  H   UNL     1       1.204   3.368   2.344  0.00  0.00    +0.174 HD
BRANCH  22  25
ATOM     25  C   UNL     1       0.313   3.921  -0.066  0.00  0.00    +0.107 C 
BRANCH  25  26
ATOM     26  C   UNL     1      -0.677   4.119  -1.215  0.00  0.00    +0.108 C 
BRANCH  26  27
ATOM     27  C   UNL     1       0.069   4.542  -2.454  0.00  0.00    +0.228 A 
ATOM     28  N   UNL     1       0.575   3.750  -3.365  0.00  0.00    -0.191 NA
ATOM     29  C   UNL     1       1.143   4.567  -4.282  0.00  0.00    +0.203 A 
ATOM     30  N   UNL     1       0.956   5.796  -3.872  0.00  0.00    -0.056 NA
ATOM     31  O   UNL     1       0.342   5.797  -2.825  0.00  0.00    -0.338 OA
BRANCH  29  32
ATOM     32  C   UNL     1       1.849   4.149  -5.516  0.00  0.00    +0.029 A 
ATOM     33  C   UNL     1       2.393   5.096  -6.383  0.00  0.00    +0.019 A 
ATOM     34  C   UNL     1       3.028   4.644  -7.487  0.00  0.00    +0.046 A 
ATOM     35  S   UNL     1       2.856   2.876  -7.329  0.00  0.00    -0.104 S 
ATOM     36  C   UNL     1       1.977   2.829  -5.835  0.00  0.00    +0.057 A 
ENDBRANCH  29  32
ENDBRANCH  26  27
ENDBRANCH  25  26
ENDBRANCH  22  25
ENDBRANCH   4  21
TORSDOF 7
