REMARK  Name = ZINC35524099
REMARK  5 active torsions:
REMARK  status: ('A' for Active; 'I' for Inactive)
REMARK    1  A    between atoms: C_1  and  C_2
REMARK    2  A    between atoms: C_11  and  N_23
REMARK    3  A    between atoms: C_13  and  C_15
REMARK    4  A    between atoms: C_18  and  O_21
REMARK    5  A    between atoms: O_21  and  C_22
REMARK                            x       y       z     vdW  Elec       q    Type
REMARK                         _______ _______ _______ _____ _____    ______ ____
ROOT
ATOM      1  C   UNL     1       0.032   1.510  -0.049  0.00  0.00    +0.008 C 
ATOM      2  C   UNL     1       0.041  -0.020  -0.045  0.00  0.00    -0.009 C 
ATOM      3  C   UNL     1      -1.399  -0.542  -0.017  0.00  0.00    +0.008 C 
ATOM      4  C   UNL     1      -1.408  -2.051  -0.262  0.00  0.00    +0.037 C 
ATOM      5  C   UNL     1      -0.452  -2.718   0.724  0.00  0.00    -0.025 A 
ATOM      6  C   UNL     1       0.503  -1.994   1.352  0.00  0.00    -0.004 A 
ATOM      7  S   UNL     1       1.366  -3.152   2.384  0.00  0.00    -0.073 S 
ATOM      8  C   UNL     1       0.449  -4.603   1.975  0.00  0.00    +0.114 A 
ATOM      9  C   UNL     1      -0.509  -4.135   1.039  0.00  0.00    +0.051 A 
ATOM     10  C   UNL     1      -1.419  -5.096   0.510  0.00  0.00    +0.134 A 
ATOM     11  N   UNL     1      -1.274  -6.341   0.954  0.00  0.00    -0.212 NA
ATOM     12  C   UNL     1      -0.352  -6.710   1.834  0.00  0.00    +0.163 A 
ATOM     13  N   UNL     1       0.529  -5.858   2.365  0.00  0.00    -0.220 NA
ATOM     14  C   UNL     1       0.775  -0.527   1.204  0.00  0.00    +0.046 C 
ENDROOT
BRANCH  10  15
ATOM     15  N   UNL     1      -2.394  -4.754  -0.410  0.00  0.00    -0.318 N 
ATOM     16  C   UNL     1      -2.091  -4.696  -1.848  0.00  0.00    +0.087 C 
ATOM     17  C   UNL     1      -3.147  -5.512  -2.601  0.00  0.00    -0.063 C 
ATOM     18  N   UNL     1      -4.486  -5.025  -2.244  0.00  0.00    +0.381 N 
ATOM     19  C   UNL     1      -4.742  -5.267  -0.819  0.00  0.00    -0.063 C 
ATOM     20  C   UNL     1      -3.766  -4.444   0.022  0.00  0.00    +0.087 C 
ATOM     21  H   UNL     1      -4.544  -4.036  -2.432  0.00  0.00    -0.086 HD
ATOM     22  H   UNL     1      -5.177  -5.511  -2.796  0.00  0.00    -0.086 HD
ENDBRANCH  10  15
BRANCH  12  23
ATOM     23  C   UNL     1      -0.297  -8.132   2.246  0.00  0.00    +0.019 A 
ATOM     24  C   UNL     1      -1.198  -9.051   1.707  0.00  0.00    +0.015 A 
ATOM     25  C   UNL     1      -1.144 -10.373   2.093  0.00  0.00    +0.046 A 
ATOM     26  C   UNL     1      -0.195 -10.791   3.017  0.00  0.00    +0.120 A 
ATOM     27  C   UNL     1       0.703  -9.878   3.555  0.00  0.00    +0.046 A 
ATOM     28  C   UNL     1       0.658  -8.555   3.169  0.00  0.00    +0.015 A 
BRANCH  26  29
ATOM     29  O   UNL     1      -0.145 -12.094   3.395  0.00  0.00    -0.495 OA
ATOM     30  C   UNL     1       0.856 -12.455   4.349  0.00  0.00    +0.277 C 
ENDBRANCH  26  29
ENDBRANCH  12  23
TORSDOF 3
