REMARK  Name = ZINC39592129
REMARK  4 active torsions:
REMARK  status: ('A' for Active; 'I' for Inactive)
REMARK    1  A    between atoms: C_1  and  C_2
REMARK    2  A    between atoms: C_5  and  C_8
REMARK    3  A    between atoms: C_10  and  C_14
REMARK    4  A    between atoms: C_20  and  C_23
REMARK                            x       y       z     vdW  Elec       q    Type
REMARK                         _______ _______ _______ _____ _____    ______ ____
ROOT
ATOM      1  C   UNL     1       1.339  -7.169   0.966  0.00  0.00    +0.181 A 
ATOM      2  N   UNL     1       2.535  -6.980   0.495  0.00  0.00    -0.129 NA
ATOM      3  N   UNL     1       3.369  -7.769   1.077  0.00  0.00    -0.121 NA
ATOM      4  C   UNL     1       2.736  -8.508   1.934  0.00  0.00    +0.211 A 
ATOM      5  N   UNL     1       1.413  -8.146   1.943  0.00  0.00    -0.222 N 
ATOM      6  N   UNL     1       0.565  -8.748   2.824  0.00  0.00    -0.260 N 
ATOM      7  C   UNL     1       1.026 -10.063   3.342  0.00  0.00    +0.218 C 
ATOM      8  S   UNL     1       2.842  -9.819   3.135  0.00  0.00    -0.053 S 
ATOM      9  H   UNL     1       0.329  -8.124   3.582  0.00  0.00    +0.168 HD
ENDROOT
BRANCH   7  10
ATOM     10  C   UNL     1       0.526 -11.201   2.489  0.00  0.00    +0.138 A 
ATOM     11  C   UNL     1       0.251 -12.445   2.919  0.00  0.00    +0.049 A 
ATOM     12  C   UNL     1      -0.187 -13.181   1.794  0.00  0.00    +0.057 A 
ATOM     13  C   UNL     1      -0.154 -12.341   0.742  0.00  0.00    +0.170 A 
ATOM     14  O   UNL     1       0.273 -11.142   1.170  0.00  0.00    -0.450 OA
ATOM     15 BR   UNL     1      -0.634 -12.775  -1.035  0.00  0.00    -0.008 Br
ENDBRANCH   7  10
BRANCH   1  18
ATOM     16  C   UNL     1       0.061  -4.256  -0.021  0.00  0.00    +0.091 C 
ATOM     17  C   UNL     1       0.071  -5.030   1.081  0.00  0.00    +0.039 C 
ATOM     18  C   UNL     1       0.090  -6.445   0.530  0.00  0.00    +0.222 C 
ATOM     19  N   UNL     1       0.087  -6.239  -0.927  0.00  0.00    -0.171 NA
ATOM     20  N   UNL     1       0.065  -5.025  -1.142  0.00  0.00    -0.153 NA
BRANCH  16  25
ATOM     21  C   UNL     1      -0.018   1.503   0.010  0.00  0.00    +0.044 C 
ATOM     22  C   UNL     1       0.002  -0.004   0.002  0.00  0.00    -0.050 A 
ATOM     23  C   UNL     1       0.006  -0.686  -1.201  0.00  0.00    +0.004 A 
ATOM     24  C   UNL     1       0.025  -2.066  -1.215  0.00  0.00    +0.010 A 
ATOM     25  C   UNL     1       0.041  -2.772  -0.013  0.00  0.00    +0.002 A 
ATOM     26  C   UNL     1       0.037  -2.080   1.196  0.00  0.00    +0.010 A 
ATOM     27  C   UNL     1       0.023  -0.700   1.198  0.00  0.00    +0.004 A 
ENDBRANCH  16  25
ENDBRANCH   1  18
TORSDOF 3
