REMARK  Name = ZINC30850407
REMARK  11 active torsions:
REMARK  status: ('A' for Active; 'I' for Inactive)
REMARK    1  A    between atoms: C_1  and  C_2
REMARK    2  A    between atoms: C_5  and  N_9
REMARK    3  A    between atoms: C_6  and  C_8
REMARK    4  A    between atoms: N_9  and  S_10
REMARK    5  A    between atoms: S_10  and  C_13
REMARK    6  A    between atoms: C_15  and  C_20
REMARK    7  A    between atoms: C_18  and  C_19
REMARK    8  A    between atoms: N_22  and  C_23
REMARK    9  A    between atoms: C_23  and  C_24
REMARK   10  A    between atoms: C_29  and  N_30
REMARK   11  A    between atoms: C_34  and  C_35
REMARK                            x       y       z     vdW  Elec       q    Type
REMARK                         _______ _______ _______ _____ _____    ______ ____
ROOT
ATOM      1  C   UNL     1       2.440   0.154  -2.427  0.00  0.00    +0.112 A 
ATOM      2  C   UNL     1       3.447  -0.106  -3.333  0.00  0.00    +0.042 A 
ATOM      3  C   UNL     1       3.296   0.273  -4.668  0.00  0.00    +0.039 A 
ATOM      4  C   UNL     1       2.130   0.923  -5.075  0.00  0.00    +0.013 A 
ATOM      5  C   UNL     1       1.132   1.182  -4.158  0.00  0.00    +0.006 A 
ATOM      6  C   UNL     1       1.286   0.798  -2.837  0.00  0.00    -0.024 A 
ATOM      7  C   UNL     1       0.192   1.084  -1.841  0.00  0.00    +0.046 C 
ENDROOT
BRANCH   3   8
ATOM      8  C   UNL     1       4.370  -0.007  -5.645  0.00  0.00    +0.244 C 
ATOM      9  O   UNL     1       5.384  -0.573  -5.288  0.00  0.00    -0.270 OA
ATOM     10  N   UNL     1       4.223   0.366  -6.932  0.00  0.00    -0.307 N 
ATOM     11  H   UNL     1       3.305   0.878  -7.255  0.00  0.00    +0.149 HD
BRANCH  10  12
ATOM     12  C   UNL     1       5.287   0.088  -7.900  0.00  0.00    +0.142 C 
BRANCH  12  13
ATOM     13  C   UNL     1       4.878   0.602  -9.257  0.00  0.00    -0.006 A 
ATOM     14  C   UNL     1       4.376  -0.270 -10.204  0.00  0.00    +0.007 A 
ATOM     15  C   UNL     1       4.000   0.201 -11.448  0.00  0.00    +0.000 A 
ATOM     16  C   UNL     1       4.126   1.545 -11.749  0.00  0.00    +0.002 A 
ATOM     17  C   UNL     1       4.628   2.421 -10.807  0.00  0.00    +0.026 A 
ATOM     18  C   UNL     1       5.000   1.952  -9.554  0.00  0.00    +0.052 A 
BRANCH  18  19
ATOM     19  N   UNL     1       5.504   2.840  -8.593  0.00  0.00    -0.303 N 
ATOM     20  C   UNL     1       4.823   3.872  -8.000  0.00  0.00    +0.112 A 
ATOM     21  C   UNL     1       5.677   4.462  -7.143  0.00  0.00    +0.131 A 
ATOM     22  N   UNL     1       6.852   3.818  -7.213  0.00  0.00    -0.241 NA
ATOM     23  C   UNL     1       6.761   2.845  -8.078  0.00  0.00    +0.111 A 
ATOM     24  C   UNL     1       7.865   1.887  -8.444  0.00  0.00    +0.086 C 
ENDBRANCH  18  19
ENDBRANCH  12  13
ENDBRANCH  10  12
ENDBRANCH   3   8
BRANCH   1  25
ATOM     25  S   UNL     1       2.626  -0.329  -0.743  0.00  0.00    +0.073 S 
ATOM     26  O   UNL     1       2.298   0.807   0.044  0.00  0.00    -0.150 OA
ATOM     27  O   UNL     1       3.881  -0.987  -0.645  0.00  0.00    -0.150 OA
BRANCH  25  28
ATOM     28  N   UNL     1       1.467  -1.471  -0.431  0.00  0.00    -0.216 N 
ATOM     29  H   UNL     1       0.714  -1.291   0.350  0.00  0.00    +0.174 HD
BRANCH  28  34
ATOM     30  C   UNL     1       1.388  -6.312  -3.383  0.00  0.00    +0.044 C 
ATOM     31  C   UNL     1       1.409  -5.025  -2.599  0.00  0.00    -0.050 A 
ATOM     32  C   UNL     1       2.617  -4.433  -2.278  0.00  0.00    +0.005 A 
ATOM     33  C   UNL     1       2.640  -3.257  -1.554  0.00  0.00    +0.025 A 
ATOM     34  C   UNL     1       1.448  -2.663  -1.158  0.00  0.00    +0.051 A 
ATOM     35  C   UNL     1       0.237  -3.258  -1.487  0.00  0.00    -0.028 A 
ATOM     36  C   UNL     1       0.221  -4.437  -2.206  0.00  0.00    +0.008 A 
ATOM     37  C   UNL     1      -1.059  -2.618  -1.059  0.00  0.00    +0.046 C 
ENDBRANCH  28  34
ENDBRANCH  25  28
ENDBRANCH   1  25
TORSDOF 7
