REMARK  Name = ZINC03407349
REMARK  3 active torsions:
REMARK  status: ('A' for Active; 'I' for Inactive)
REMARK    1  A    between atoms: C_1  and  C_2
REMARK    2  A    between atoms: C_2  and  C_3
REMARK    3  A    between atoms: C_2  and  C_4
REMARK                            x       y       z     vdW  Elec       q    Type
REMARK                         _______ _______ _______ _____ _____    ______ ____
ROOT
ATOM      1  C   UNL     1      -1.433  -0.534   0.013  0.00  0.00    +0.266 C 
ATOM      2  C   UNL     1      -1.443  -2.049   0.058  0.00  0.00    +0.281 C 
ATOM      3  O   UNL     1      -0.983  -2.812  -0.768  0.00  0.00    -0.269 OA
ATOM      4  N   UNL     1      -2.062  -2.367   1.195  0.00  0.00    -0.129 NA
ATOM      5  C   UNL     1      -2.436  -1.295   1.857  0.00  0.00    +0.272 C 
ATOM      6  O   UNL     1      -2.104  -0.153   1.226  0.00  0.00    -0.454 OA
ATOM      7  N   UNL     1      -3.088  -1.334   3.049  0.00  0.00    -0.315 N 
ATOM      8  H   UNL     1      -3.303  -2.188   3.457  0.00  0.00    +0.146 HD
ATOM      9  H   UNL     1      -3.340  -0.508   3.492  0.00  0.00    +0.146 HD
ENDROOT
BRANCH   1  11
ATOM     10  C   UNL     1      -0.019   1.526   0.010  0.00  0.00    +0.011 C 
ATOM     11  C   UNL     1       0.002  -0.004   0.002  0.00  0.00    +0.033 C 
ATOM     12  C   UNL     1       0.742  -0.511   1.242  0.00  0.00    +0.011 C 
ENDBRANCH   1  11
TORSDOF 1
