REMARK  Name = ZINC36610465
REMARK  11 active torsions:
REMARK  status: ('A' for Active; 'I' for Inactive)
REMARK    1  A    between atoms: C_1  and  N_2
REMARK    2  A    between atoms: N_2  and  C_3
REMARK    3  A    between atoms: N_2  and  C_4
REMARK    4  A    between atoms: C_7  and  C_10
REMARK    5  A    between atoms: C_10  and  C_12
REMARK    6  A    between atoms: C_10  and  N_21
REMARK    7  A    between atoms: N_14  and  C_15
REMARK    8  A    between atoms: N_21  and  C_22
REMARK    9  A    between atoms: C_28  and  C_30
REMARK   10  A    between atoms: C_34  and  O_37
REMARK   11  A    between atoms: C_35  and  O_36
REMARK                            x       y       z     vdW  Elec       q    Type
REMARK                         _______ _______ _______ _____ _____    ______ ____
ROOT
ATOM      1  C   UNL     1      -5.510  -2.314  -0.432  0.00  0.00    +0.197 C 
ENDROOT
BRANCH   1   5
ATOM      2  C   UNL     1      -3.896   1.441  -1.681  0.00  0.00    +0.029 A 
ATOM      3  C   UNL     1      -3.051   0.364  -1.446  0.00  0.00    +0.023 A 
ATOM      4  C   UNL     1      -3.576  -0.848  -1.042  0.00  0.00    +0.008 A 
ATOM      5  C   UNL     1      -4.941  -0.990  -0.872  0.00  0.00    -0.018 A 
ATOM      6  C   UNL     1      -5.785   0.080  -1.105  0.00  0.00    +0.008 A 
ATOM      7  C   UNL     1      -5.266   1.297  -1.504  0.00  0.00    +0.023 A 
BRANCH   2   9
ATOM      8  C   UNL     1      -4.260   3.805  -2.331  0.00  0.00    +0.129 C 
ATOM      9  N   UNL     1      -3.368   2.668  -2.089  0.00  0.00    -0.336 N 
ATOM     10  C   UNL     1      -1.923   2.819  -2.276  0.00  0.00    +0.129 C 
ENDBRANCH   2   9
ENDBRANCH   1   5
BRANCH   1  11
ATOM     11  C   UNL     1      -6.602  -2.732  -1.382  0.00  0.00    +0.239 C 
ATOM     12  O   UNL     1      -7.730  -2.904  -0.972  0.00  0.00    -0.273 OA
ATOM     13  N   UNL     1      -6.325  -2.914  -2.689  0.00  0.00    -0.311 N 
ATOM     14  H   UNL     1      -5.423  -2.777  -3.017  0.00  0.00    +0.149 HD
BRANCH  13  15
ATOM     15  C   UNL     1      -7.387  -3.321  -3.613  0.00  0.00    +0.073 C 
ATOM     16  C   UNL     1      -7.535  -4.843  -3.582  0.00  0.00    +0.022 C 
ATOM     17  C   UNL     1      -8.644  -5.268  -4.547  0.00  0.00    +0.002 C 
ATOM     18  C   UNL     1      -8.286  -4.818  -5.965  0.00  0.00    +0.000 C 
ATOM     19  C   UNL     1      -8.138  -3.296  -5.995  0.00  0.00    +0.002 C 
ATOM     20  C   UNL     1      -7.029  -2.872  -5.031  0.00  0.00    +0.022 C 
ENDBRANCH  13  15
ENDBRANCH   1  11
BRANCH   1  21
ATOM     21  N   UNL     1      -6.061  -2.184   0.919  0.00  0.00    -0.251 N 
ATOM     22  C   UNL     1      -6.691  -3.228   1.494  0.00  0.00    +0.255 C 
ATOM     23  O   UNL     1      -7.000  -3.180   2.669  0.00  0.00    -0.269 OA
BRANCH  21  24
ATOM     24  C   UNL     1      -5.935  -0.976   1.613  0.00  0.00    +0.038 A 
ATOM     25  C   UNL     1      -7.046  -0.166   1.808  0.00  0.00    +0.023 A 
ATOM     26  C   UNL     1      -6.918   1.026   2.493  0.00  0.00    +0.002 A 
ATOM     27  C   UNL     1      -5.685   1.414   2.985  0.00  0.00    +0.000 A 
ATOM     28  C   UNL     1      -4.577   0.610   2.791  0.00  0.00    +0.002 A 
ATOM     29  C   UNL     1      -4.699  -0.586   2.112  0.00  0.00    +0.023 A 
ENDBRANCH  21  24
BRANCH  22  30
ATOM     30  C   UNL     1      -7.004  -4.430   0.697  0.00  0.00    +0.082 A 
ATOM     31  C   UNL     1      -6.284  -4.707  -0.469  0.00  0.00    +0.017 A 
ATOM     32  C   UNL     1      -6.580  -5.830  -1.210  0.00  0.00    +0.005 A 
ATOM     33  C   UNL     1      -7.589  -6.689  -0.807  0.00  0.00    +0.049 A 
ATOM     34  C   UNL     1      -8.311  -6.428   0.345  0.00  0.00    +0.159 A 
ATOM     35  C   UNL     1      -8.020  -5.301   1.108  0.00  0.00    +0.171 A 
BRANCH  35  36
ATOM     36  O   UNL     1      -8.722  -5.044   2.241  0.00  0.00    -0.503 OA
ATOM     37  H   UNL     1      -9.512  -4.506   2.101  0.00  0.00    +0.292 HD
ENDBRANCH  35  36
BRANCH  34  38
ATOM     38  O   UNL     1      -9.301  -7.276   0.734  0.00  0.00    -0.503 OA
ATOM     39  H   UNL     1      -9.002  -7.987   1.318  0.00  0.00    +0.292 HD
ENDBRANCH  34  38
ENDBRANCH  22  30
ENDBRANCH   1  21
TORSDOF 9
