REMARK  Name = ZINC12217593
REMARK  8 active torsions:
REMARK  status: ('A' for Active; 'I' for Inactive)
REMARK    1  A    between atoms: C_1  and  O_2
REMARK    2  A    between atoms: O_2  and  C_3
REMARK    3  A    between atoms: C_3  and  C_5
REMARK    4  A    between atoms: C_6  and  N_28
REMARK    5  A    between atoms: C_10  and  C_14
REMARK    6  A    between atoms: C_14  and  N_15
REMARK    7  A    between atoms: C_20  and  C_22
REMARK    8  A    between atoms: C_29  and  C_31
REMARK                            x       y       z     vdW  Elec       q    Type
REMARK                         _______ _______ _______ _____ _____    ______ ____
ROOT
ATOM      1  C   UNL     1      -1.266   2.998   0.317  0.00  0.00    +0.120 A 
ATOM      2  C   UNL     1      -1.231   1.699  -0.141  0.00  0.00    +0.064 A 
ATOM      3  C   UNL     1      -2.491   0.993  -0.310  0.00  0.00    +0.030 A 
ATOM      4  C   UNL     1      -2.709  -0.334  -0.758  0.00  0.00    +0.014 A 
ATOM      5  C   UNL     1      -3.998  -0.805  -0.843  0.00  0.00    +0.022 A 
ATOM      6  C   UNL     1      -5.067   0.008  -0.496  0.00  0.00    +0.026 A 
ATOM      7  N   UNL     1      -4.861   1.242  -0.081  0.00  0.00    -0.246 NA
ATOM      8  C   UNL     1      -3.646   1.739   0.018  0.00  0.00    +0.111 A 
ATOM      9  S   UNL     1      -3.006   3.315   0.526  0.00  0.00    -0.060 S 
ENDROOT
BRANCH   2  10
ATOM     10  N   UNL     1      -0.021   1.076  -0.430  0.00  0.00    -0.284 N 
ATOM     11  C   UNL     1       0.418   0.065   0.345  0.00  0.00    +0.220 C 
ATOM     12  O   UNL     1      -0.197  -0.245   1.343  0.00  0.00    -0.275 OA
ATOM     13  H   UNL     1       0.577   1.409  -1.291  0.00  0.00    +0.155 HD
BRANCH  11  14
ATOM     14  C   UNL     1       1.674  -0.679  -0.028  0.00  0.00    +0.075 C 
ATOM     15  C   UNL     1       1.496  -1.321  -1.405  0.00  0.00    +0.013 C 
ATOM     16  C   UNL     1       2.772  -2.077  -1.784  0.00  0.00    +0.001 C 
ATOM     17  C   UNL     1       3.046  -3.167  -0.746  0.00  0.00    +0.000 C 
ATOM     18  C   UNL     1       3.223  -2.526   0.632  0.00  0.00    +0.001 C 
ATOM     19  C   UNL     1       1.948  -1.769   1.011  0.00  0.00    +0.013 C 
ENDBRANCH  11  14
ENDBRANCH   2  10
BRANCH   1  20
ATOM     20  C   UNL     1      -0.177   3.872   0.561  0.00  0.00    +0.348 C 
ATOM     21  O   UNL     1       0.965   3.463   0.465  0.00  0.00    -0.244 OA
BRANCH  20  23
ATOM     22  C   UNL     1       0.737   5.983   1.130  0.00  0.00    +0.280 C 
ATOM     23  O   UNL     1      -0.407   5.158   0.899  0.00  0.00    -0.464 OA
ENDBRANCH  20  23
ENDBRANCH   1  20
BRANCH   6  24
ATOM     24  C   UNL     1      -6.474  -0.523  -0.595  0.00  0.00    -0.022 C 
BRANCH  24  25
ATOM     25  N   UNL     1      -6.895  -1.041   0.714  0.00  0.00    +0.388 N 
ATOM     26  C   UNL     1      -6.099  -2.215   1.095  0.00  0.00    -0.077 C 
ATOM     27  C   UNL     1      -6.463  -2.638   2.521  0.00  0.00    -0.019 C 
ATOM     28  C   UNL     1      -7.957  -2.969   2.584  0.00  0.00    -0.003 C 
ATOM     29  C   UNL     1      -8.761  -1.746   2.135  0.00  0.00    -0.011 C 
ATOM     30  C   UNL     1      -8.331  -1.349   0.721  0.00  0.00    -0.036 C 
ATOM     31  H   UNL     1      -6.716  -0.256   1.463  0.00  0.00    -0.080 HD
BRANCH  30  32
ATOM     32  C   UNL     1      -9.106  -0.133   0.283  0.00  0.00    -0.043 A 
ATOM     33  C   UNL     1     -10.205  -0.265  -0.553  0.00  0.00    +0.005 A 
ATOM     34  C   UNL     1     -10.888   0.880  -0.931  0.00  0.00    +0.020 A 
ATOM     35  C   UNL     1     -10.455   2.107  -0.465  0.00  0.00    +0.111 A 
ATOM     36  N   UNL     1      -9.406   2.195   0.329  0.00  0.00    -0.263 NA
ATOM     37  C   UNL     1      -8.735   1.126   0.713  0.00  0.00    +0.112 A 
ENDBRANCH  30  32
ENDBRANCH  24  25
ENDBRANCH   6  24
TORSDOF 7
