REMARK  Name = ZINC13184955
REMARK  7 active torsions:
REMARK  status: ('A' for Active; 'I' for Inactive)
REMARK    1  A    between atoms: C_1  and  C_2
REMARK    2  A    between atoms: C_5  and  S_10
REMARK    3  A    between atoms: C_7  and  C_8
REMARK    4  A    between atoms: S_10  and  N_13
REMARK    5  A    between atoms: N_13  and  C_14
REMARK    6  A    between atoms: C_14  and  C_16
REMARK    7  A    between atoms: C_14  and  C_23
REMARK                            x       y       z     vdW  Elec       q    Type
REMARK                         _______ _______ _______ _____ _____    ______ ____
ROOT
ATOM      1  N   UNL     1       3.073  -3.655  -1.308  0.00  0.00    -0.178 NA
ATOM      2  H   UNL     1       2.230  -4.119  -1.428  0.00  0.00    +0.149 HD
ENDROOT
BRANCH   1   3
ATOM      3  S   UNL     1       3.494  -3.075   0.186  0.00  0.00    +0.059 S 
ATOM      4  O   UNL     1       4.824  -3.510   0.430  0.00  0.00    -0.153 OA
ATOM      5  O   UNL     1       2.417  -3.386   1.060  0.00  0.00    -0.153 OA
BRANCH   3  10
ATOM      6  C   UNL     1       3.724   2.948  -0.249  0.00  0.00    +0.044 C 
ATOM      7  C   UNL     1       3.663   1.447  -0.136  0.00  0.00    -0.036 A 
ATOM      8  C   UNL     1       4.790   0.689  -0.383  0.00  0.00    +0.006 A 
ATOM      9  C   UNL     1       4.735  -0.690  -0.286  0.00  0.00    +0.029 A 
ATOM     10  C   UNL     1       3.553  -1.318   0.065  0.00  0.00    +0.106 A 
ATOM     11  C   UNL     1       2.421  -0.573   0.320  0.00  0.00    +0.044 A 
ATOM     12  C   UNL     1       2.469   0.820   0.224  0.00  0.00    +0.068 A 
BRANCH  12  13
ATOM     13  C   UNL     1       1.261   1.625   0.495  0.00  0.00    +0.387 C 
ATOM     14  O   UNL     1       1.332   2.837   0.522  0.00  0.00    -0.241 OA
ATOM     15  O   UNL     1       0.080   1.014   0.712  0.00  0.00    -0.241 OA
ENDBRANCH  12  13
ENDBRANCH   3  10
ENDBRANCH   1   3
BRANCH   1  16
ATOM     16  C   UNL     1       3.975  -3.467  -2.447  0.00  0.00    +0.143 C 
BRANCH  16  17
ATOM     17  C   UNL     1       3.164  -3.251  -3.699  0.00  0.00    -0.024 A 
ATOM     18  C   UNL     1       2.018  -3.993  -3.916  0.00  0.00    +0.008 A 
ATOM     19  C   UNL     1       1.271  -3.792  -5.062  0.00  0.00    +0.038 A 
ATOM     20  C   UNL     1       1.677  -2.855  -5.996  0.00  0.00    +0.123 A 
ATOM     21  C   UNL     1       2.827  -2.116  -5.780  0.00  0.00    +0.038 A 
ATOM     22  C   UNL     1       3.570  -2.314  -4.631  0.00  0.00    +0.008 A 
ATOM     23  F   UNL     1       0.950  -2.661  -7.119  0.00  0.00    -0.205 F 
ENDBRANCH  16  17
BRANCH  16  24
ATOM     24  C   UNL     1       4.837  -4.691  -2.612  0.00  0.00    +0.013 A 
ATOM     25  C   UNL     1       6.152  -4.773  -2.933  0.00  0.00    +0.013 A 
ATOM     26  C   UNL     1       6.743  -6.019  -3.027  0.00  0.00    +0.008 A 
ATOM     27  C   UNL     1       5.989  -7.123  -2.805  0.00  0.00    +0.045 A 
ATOM     28  S   UNL     1       4.391  -6.412  -2.443  0.00  0.00    -0.100 S 
ENDBRANCH  16  24
ENDBRANCH   1  16
TORSDOF 6
