REMARK  Name = ZINC20700280
REMARK  2 active torsions:
REMARK  status: ('A' for Active; 'I' for Inactive)
REMARK    1  A    between atoms: C_5  and  C_7
REMARK    2  A    between atoms: C_17  and  N_24
REMARK                            x       y       z     vdW  Elec       q    Type
REMARK                         _______ _______ _______ _____ _____    ______ ____
ROOT
ATOM      1  C   UNL     1      -1.998   0.671   1.494  0.00  0.00    +0.106 C 
ATOM      2  C   UNL     1      -0.799   1.556   1.073  0.00  0.00    +0.029 C 
ATOM      3  C   UNL     1      -0.172   0.947  -0.212  0.00  0.00    +0.033 C 
ATOM      4  C   UNL     1      -1.064   1.461  -1.325  0.00  0.00    -0.030 C 
ATOM      5  C   UNL     1      -1.717   2.527  -0.936  0.00  0.00    -0.023 C 
ATOM      6  C   UNL     1      -1.362   2.872   0.492  0.00  0.00    +0.051 C 
ATOM      7  C   UNL     1      -2.574   3.348   1.238  0.00  0.00    +0.014 A 
ATOM      8  C   UNL     1      -3.083   4.601   0.923  0.00  0.00    +0.132 A 
ATOM      9  C   UNL     1      -4.197   5.093   1.572  0.00  0.00    +0.036 A 
ATOM     10  C   UNL     1      -4.819   4.336   2.549  0.00  0.00    +0.042 A 
ATOM     11  C   UNL     1      -4.321   3.089   2.869  0.00  0.00    +0.145 A 
ATOM     12  C   UNL     1      -3.194   2.590   2.214  0.00  0.00    +0.069 A 
ATOM     13  N   UNL     1      -2.732   1.323   2.580  0.00  0.00    -0.334 N 
ATOM     14  F   UNL     1      -4.928   2.348   3.822  0.00  0.00    -0.204 F 
ATOM     15  H   UNL     1      -2.861   0.809   3.543  0.00  0.00    +0.147 HD
ENDROOT
BRANCH   1  20
ATOM     16  C   UNL     1       0.317  -2.039   2.741  0.00  0.00    +0.000 A 
ATOM     17  C   UNL     1      -0.544  -3.117   2.833  0.00  0.00    +0.001 A 
ATOM     18  C   UNL     1      -1.875  -2.970   2.492  0.00  0.00    +0.020 A 
ATOM     19  C   UNL     1      -2.346  -1.744   2.058  0.00  0.00    +0.046 A 
ATOM     20  C   UNL     1      -1.485  -0.665   1.967  0.00  0.00    -0.009 A 
ATOM     21  C   UNL     1      -0.153  -0.815   2.304  0.00  0.00    +0.007 A 
ATOM     22 CL   UNL     1      -4.018  -1.559   1.629  0.00  0.00    -0.083 Cl
ENDBRANCH   1  20
BRANCH   8  23
ATOM     23  N   UNL     1      -2.424   5.418  -0.120  0.00  0.00    +0.057 N 
ATOM     24  O   UNL     1      -2.866   6.518  -0.401  0.00  0.00    -0.126 OA
ATOM     25  O   UNL     1      -1.441   4.991  -0.698  0.00  0.00    -0.126 OA
ENDBRANCH   8  23
TORSDOF 2
