REMARK  Name = ZINC36249700
REMARK  15 active torsions:
REMARK  status: ('A' for Active; 'I' for Inactive)
REMARK    1  A    between atoms: C_1  and  O_2
REMARK    2  A    between atoms: O_2  and  C_3
REMARK    3  A    between atoms: C_3  and  C_4
REMARK    4  A    between atoms: C_4  and  C_5
REMARK    5  A    between atoms: C_5  and  N_6
REMARK    6  A    between atoms: N_6  and  C_7
REMARK    7  A    between atoms: N_6  and  C_26
REMARK    8  A    between atoms: C_7  and  C_8
REMARK    9  A    between atoms: C_9  and  C_19
REMARK   10  A    between atoms: C_12  and  N_13
REMARK   11  A    between atoms: C_26  and  C_27
REMARK   12  A    between atoms: C_27  and  C_29
REMARK   13  A    between atoms: C_27  and  O_37
REMARK   14  A    between atoms: C_29  and  O_30
REMARK   15  A    between atoms: O_30  and  C_31
REMARK                            x       y       z     vdW  Elec       q    Type
REMARK                         _______ _______ _______ _____ _____    ______ ____
ROOT
ATOM      1  N   UNL     1       1.305  -4.063  -1.090  0.00  0.00    +0.384 N 
ATOM      2  H   UNL     1       1.577  -4.512  -0.229  0.00  0.00    -0.081 HD
ENDROOT
BRANCH   1   3
ATOM      3  C   UNL     1       1.384  -2.605  -0.929  0.00  0.00    -0.076 C 
BRANCH   3   4
ATOM      4  C   UNL     1       0.558  -2.181   0.287  0.00  0.00    +0.009 C 
BRANCH   4   5
ATOM      5  C   UNL     1       0.746  -0.683   0.534  0.00  0.00    +0.157 C 
BRANCH   5   7
ATOM      6  C   UNL     1       0.081   1.102   1.989  0.00  0.00    +0.193 C 
ATOM      7  O   UNL     1      -0.025  -0.287   1.670  0.00  0.00    -0.383 OA
ENDBRANCH   5   7
ENDBRANCH   4   5
ENDBRANCH   3   4
ENDBRANCH   1   3
BRANCH   1   8
ATOM      8  C   UNL     1       2.208  -4.486  -2.170  0.00  0.00    -0.035 C 
BRANCH   8   9
ATOM      9  C   UNL     1       3.628  -4.150  -1.796  0.00  0.00    +0.025 A 
ATOM     10  C   UNL     1       4.342  -3.001  -2.197  0.00  0.00    +0.117 A 
ATOM     11  N   UNL     1       5.543  -3.067  -1.671  0.00  0.00    -0.076 NA
ATOM     12  O   UNL     1       5.627  -4.264  -0.919  0.00  0.00    -0.339 OA
ATOM     13  C   UNL     1       4.445  -4.897  -1.011  0.00  0.00    +0.222 A 
BRANCH  10  14
ATOM     14  C   UNL     1       3.826  -1.911  -3.062  0.00  0.00    +0.004 A 
ATOM     15  C   UNL     1       3.088  -2.215  -4.204  0.00  0.00    +0.013 A 
ATOM     16  C   UNL     1       2.610  -1.198  -5.005  0.00  0.00    +0.039 A 
ATOM     17  C   UNL     1       2.864   0.124  -4.675  0.00  0.00    +0.123 A 
ATOM     18  C   UNL     1       3.598   0.430  -3.541  0.00  0.00    +0.039 A 
ATOM     19  C   UNL     1       4.074  -0.580  -2.731  0.00  0.00    +0.013 A 
ATOM     20  F   UNL     1       2.394   1.116  -5.462  0.00  0.00    -0.205 F 
ENDBRANCH  10  14
BRANCH  13  21
ATOM     21  N   UNL     1       4.119  -6.100  -0.412  0.00  0.00    -0.295 N 
ATOM     22  C   UNL     1       4.448  -7.381  -1.058  0.00  0.00    +0.136 C 
ATOM     23  C   UNL     1       5.171  -8.266  -0.036  0.00  0.00    +0.179 C 
ATOM     24  O   UNL     1       4.391  -8.339   1.160  0.00  0.00    -0.377 OA
ATOM     25  C   UNL     1       4.207  -7.083   1.816  0.00  0.00    +0.179 C 
ATOM     26  C   UNL     1       3.438  -6.138   0.892  0.00  0.00    +0.136 C 
ENDBRANCH  13  21
ENDBRANCH   8   9
ENDBRANCH   1   8
BRANCH   1  27
ATOM     27  C   UNL     1      -0.073  -4.444  -1.427  0.00  0.00    -0.043 C 
BRANCH  27  28
ATOM     28  C   UNL     1      -0.195  -5.969  -1.426  0.00  0.00    +0.135 C 
BRANCH  28  29
ATOM     29  O   UNL     1       0.549  -6.508  -2.520  0.00  0.00    -0.390 OA
ATOM     30  H   UNL     1       0.253  -6.199  -3.387  0.00  0.00    +0.210 HD
ENDBRANCH  28  29
BRANCH  28  31
ATOM     31  C   UNL     1      -1.667  -6.363  -1.567  0.00  0.00    +0.258 C 
BRANCH  31  32
ATOM     32  O   UNL     1      -1.794  -7.782  -1.449  0.00  0.00    -0.489 OA
BRANCH  32  33
ATOM     33  C   UNL     1      -3.046  -8.300  -1.552  0.00  0.00    +0.121 A 
ATOM     34  C   UNL     1      -4.130  -7.461  -1.768  0.00  0.00    +0.045 A 
ATOM     35  C   UNL     1      -5.401  -7.990  -1.873  0.00  0.00    +0.004 A 
ATOM     36  C   UNL     1      -5.595  -9.355  -1.763  0.00  0.00    +0.000 A 
ATOM     37  C   UNL     1      -4.517 -10.193  -1.547  0.00  0.00    +0.004 A 
ATOM     38  C   UNL     1      -3.242  -9.669  -1.448  0.00  0.00    +0.045 A 
ENDBRANCH  32  33
ENDBRANCH  31  32
ENDBRANCH  28  31
ENDBRANCH  27  28
ENDBRANCH   1  27
TORSDOF 14
