REMARK  Name = ZINC39552430
REMARK  4 active torsions:
REMARK  status: ('A' for Active; 'I' for Inactive)
REMARK    1  A    between atoms: C_6  and  C_7
REMARK    2  A    between atoms: C_12  and  C_30
REMARK    3  A    between atoms: N_16  and  C_17
REMARK    4  A    between atoms: C_23  and  C_25
REMARK                            x       y       z     vdW  Elec       q    Type
REMARK                         _______ _______ _______ _____ _____    ______ ____
ROOT
ATOM      1  C   UNL     1      -1.306  -0.717  -0.151  0.00  0.00    +0.190 C 
ATOM      2  N   UNL     1      -1.107  -2.046   0.439  0.00  0.00    -0.321 N 
ATOM      3  C   UNL     1      -1.934  -2.129   1.568  0.00  0.00    +0.051 A 
ATOM      4  C   UNL     1      -2.122  -3.166   2.475  0.00  0.00    +0.037 A 
ATOM      5  C   UNL     1      -3.004  -3.015   3.527  0.00  0.00    +0.057 A 
ATOM      6  C   UNL     1      -3.704  -1.833   3.683  0.00  0.00    +0.014 A 
ATOM      7  C   UNL     1      -3.523  -0.797   2.787  0.00  0.00    +0.025 A 
ATOM      8  C   UNL     1      -2.637  -0.938   1.726  0.00  0.00    +0.053 A 
ATOM      9  N   UNL     1      -2.292  -0.043   0.702  0.00  0.00    -0.303 N 
ATOM     10  H   UNL     1      -0.515  -2.739   0.108  0.00  0.00    +0.148 HD
ENDROOT
BRANCH   1  16
ATOM     11  C   UNL     1       0.548   0.461  -1.349  0.00  0.00    +0.011 A 
ATOM     12  C   UNL     1       1.738   1.165  -1.356  0.00  0.00    +0.050 A 
ATOM     13  C   UNL     1       2.376   1.460  -0.162  0.00  0.00    +0.166 A 
ATOM     14  C   UNL     1       1.815   1.046   1.044  0.00  0.00    +0.167 A 
ATOM     15  C   UNL     1       0.622   0.341   1.043  0.00  0.00    +0.056 A 
ATOM     16  C   UNL     1      -0.009   0.050  -0.153  0.00  0.00    -0.006 A 
ATOM     17  O   UNL     1       2.624   1.454   2.064  0.00  0.00    -0.453 OA
ATOM     18  C   UNL     1       3.889   1.764   1.451  0.00  0.00    +0.466 C 
ATOM     19  O   UNL     1       3.537   2.127   0.103  0.00  0.00    -0.453 OA
ENDBRANCH   1  16
BRANCH   9  20
ATOM     20  C   UNL     1      -2.816   1.313   0.519  0.00  0.00    +0.079 C 
ATOM     21  C   UNL     1      -4.343   1.263   0.439  0.00  0.00    +0.041 C 
ATOM     22  C   UNL     1      -4.886   2.678   0.213  0.00  0.00    +0.110 C 
ATOM     23  N   UNL     1      -4.365   3.558   1.268  0.00  0.00    -0.298 N 
ATOM     24  C   UNL     1      -2.914   3.612   1.490  0.00  0.00    +0.110 C 
ATOM     25  C   UNL     1      -2.393   2.187   1.702  0.00  0.00    +0.041 C 
ATOM     26  C   UNL     1      -5.203   4.301   2.017  0.00  0.00    +0.246 C 
ATOM     27  O   UNL     1      -6.406   4.156   1.910  0.00  0.00    -0.270 OA
BRANCH  26  28
ATOM     28  C   UNL     1      -4.663   5.288   2.964  0.00  0.00    +0.057 C 
ATOM     29  C   UNL     1      -5.342   6.193   3.704  0.00  0.00    +0.145 C 
ATOM     30  N   UNL     1      -4.488   6.924   4.455  0.00  0.00    -0.162 NA
ATOM     31  N   UNL     1      -3.300   6.628   4.318  0.00  0.00    -0.183 NA
ATOM     32  C   UNL     1      -3.212   5.526   3.345  0.00  0.00    +0.208 C 
ENDBRANCH  26  28
ENDBRANCH   9  20
BRANCH   5  33
ATOM     33  C   UNL     1      -3.205  -4.143   4.507  0.00  0.00    +0.417 C 
ATOM     34  F   UNL     1      -2.292  -4.014   5.559  0.00  0.00    -0.166 F 
ATOM     35  F   UNL     1      -4.509  -4.095   5.012  0.00  0.00    -0.166 F 
ATOM     36  F   UNL     1      -3.001  -5.365   3.859  0.00  0.00    -0.166 F 
ENDBRANCH   5  33
TORSDOF 4
