REMARK  Name = ZINC25467050
REMARK  6 active torsions:
REMARK  status: ('A' for Active; 'I' for Inactive)
REMARK    1  A    between atoms: C_1  and  C_2
REMARK    2  A    between atoms: C_4  and  C_15
REMARK    3  A    between atoms: C_5  and  C_14
REMARK    4  A    between atoms: N_6  and  C_7
REMARK    5  A    between atoms: N_17  and  N_18
REMARK    6  A    between atoms: C_25  and  C_28
REMARK                            x       y       z     vdW  Elec       q    Type
REMARK                         _______ _______ _______ _____ _____    ______ ____
ROOT
ATOM      1  C   UNL     1       3.585   0.604  -0.029  0.00  0.00    +0.264 C 
ATOM      2  O   UNL     1       4.176  -0.459  -0.039  0.00  0.00    -0.268 OA
ATOM      3  N   UNL     1       4.277   1.760  -0.029  0.00  0.00    -0.215 N 
ATOM      4  H   UNL     1       3.743   2.721  -0.019  0.00  0.00    +0.176 HD
ENDROOT
BRANCH   3   5
ATOM      5  N   UNL     1       5.678   1.738  -0.042  0.00  0.00    -0.212 N 
ATOM      6  C   UNL     1       6.349   1.421   1.095  0.00  0.00    +0.223 A 
ATOM      7  N   UNL     1       7.654   1.385   1.120  0.00  0.00    -0.228 NA
ATOM      8  C   UNL     1       8.369   1.668   0.035  0.00  0.00    +0.116 A 
ATOM      9  C   UNL     1       7.763   2.012  -1.184  0.00  0.00    +0.081 A 
ATOM     10  C   UNL     1       6.332   2.037  -1.180  0.00  0.00    +0.280 A 
ATOM     11  O   UNL     1       5.715   2.325  -2.191  0.00  0.00    -0.265 OA
ATOM     12  C   UNL     1       8.687   2.293  -2.276  0.00  0.00    +0.004 A 
ATOM     13  C   UNL     1      10.019   2.205  -2.042  0.00  0.00    +0.056 A 
ATOM     14  S   UNL     1      10.105   1.734  -0.325  0.00  0.00    -0.076 S 
BRANCH  12  15
ATOM     15  C   UNL     1       8.180   2.669  -3.618  0.00  0.00    -0.017 A 
ATOM     16  C   UNL     1       7.199   1.895  -4.237  0.00  0.00    +0.008 A 
ATOM     17  C   UNL     1       6.727   2.253  -5.483  0.00  0.00    +0.001 A 
ATOM     18  C   UNL     1       7.232   3.371  -6.122  0.00  0.00    +0.000 A 
ATOM     19  C   UNL     1       8.209   4.140  -5.515  0.00  0.00    +0.001 A 
ATOM     20  C   UNL     1       8.685   3.795  -4.267  0.00  0.00    +0.008 A 
ENDBRANCH  12  15
ENDBRANCH   3   5
BRANCH   1  24
ATOM     21  C   UNL     1      -1.254   2.222   0.020  0.00  0.00    +0.064 C 
ATOM     22  C   UNL     1      -0.017   1.362   0.009  0.00  0.00    +0.022 A 
ATOM     23  C   UNL     1       1.250   1.814  -0.000  0.00  0.00    +0.036 A 
ATOM     24  C   UNL     1       2.113   0.627  -0.015  0.00  0.00    +0.059 A 
ATOM     25  C   UNL     1       1.274  -0.453  -0.013  0.00  0.00    +0.033 A 
ATOM     26  N   UNL     1       0.002  -0.004   0.002  0.00  0.00    -0.314 N 
ATOM     27  C   UNL     1       1.698  -1.899  -0.025  0.00  0.00    +0.064 C 
BRANCH  26  28
ATOM     28  C   UNL     1      -1.137  -0.822   0.009  0.00  0.00    +0.082 A 
ATOM     29  C   UNL     1      -1.714  -1.221  -1.188  0.00  0.00    +0.029 A 
ATOM     30  C   UNL     1      -2.837  -2.026  -1.178  0.00  0.00    +0.002 A 
ATOM     31  C   UNL     1      -3.386  -2.436   0.023  0.00  0.00    +0.003 A 
ATOM     32  C   UNL     1      -2.815  -2.041   1.218  0.00  0.00    +0.040 A 
ATOM     33  C   UNL     1      -1.688  -1.239   1.216  0.00  0.00    +0.147 A 
ATOM     34  F   UNL     1      -1.127  -0.857   2.384  0.00  0.00    -0.203 F 
ENDBRANCH  26  28
ENDBRANCH   1  24
TORSDOF 4
