REMARK  Name = ZINC25460041
REMARK  10 active torsions:
REMARK  status: ('A' for Active; 'I' for Inactive)
REMARK    1  A    between atoms: C_1  and  O_2
REMARK    2  A    between atoms: O_2  and  C_3
REMARK    3  A    between atoms: C_3  and  C_5
REMARK    4  A    between atoms: C_6  and  C_22
REMARK    5  A    between atoms: N_7  and  C_19
REMARK    6  A    between atoms: C_11  and  C_13
REMARK    7  A    between atoms: C_22  and  S_23
REMARK    8  A    between atoms: S_23  and  C_24
REMARK    9  A    between atoms: C_27  and  C_30
REMARK   10  A    between atoms: N_28  and  N_29
REMARK                            x       y       z     vdW  Elec       q    Type
REMARK                         _______ _______ _______ _____ _____    ______ ____
ROOT
ATOM      1  C   UNL     1      -1.751   0.801   1.804  0.00  0.00    +0.079 C 
ATOM      2  C   UNL     1      -1.059   1.698   1.069  0.00  0.00    +0.037 C 
ATOM      3  N   UNL     1      -0.699   2.908   1.591  0.00  0.00    -0.255 N 
ATOM      4  C   UNL     1      -1.001   3.300   2.835  0.00  0.00    +0.307 C 
ATOM      5  O   UNL     1      -0.641   4.399   3.209  0.00  0.00    -0.252 OA
ATOM      6  N   UNL     1      -1.687   2.513   3.688  0.00  0.00    -0.288 N 
ATOM      7  C   UNL     1      -2.117   1.184   3.224  0.00  0.00    +0.144 C 
ATOM      8  H   UNL     1      -1.926   2.843   4.710  0.00  0.00    +0.151 HD
ENDROOT
BRANCH   7   9
ATOM      9  C   UNL     1      -3.617   1.110   3.352  0.00  0.00    -0.023 A 
ATOM     10  C   UNL     1      -4.402   2.151   2.890  0.00  0.00    +0.006 A 
ATOM     11  C   UNL     1      -5.778   2.081   3.004  0.00  0.00    +0.000 A 
ATOM     12  C   UNL     1      -6.369   0.976   3.588  0.00  0.00    +0.000 A 
ATOM     13  C   UNL     1      -5.583  -0.062   4.054  0.00  0.00    +0.000 A 
ATOM     14  C   UNL     1      -4.207   0.005   3.936  0.00  0.00    +0.006 A 
ENDBRANCH   7   9
BRANCH   3  15
ATOM     15  C   UNL     1       0.055   3.831   0.739  0.00  0.00    +0.083 C 
ATOM     16  C   UNL     1      -0.416   5.286   0.684  0.00  0.00    +0.025 C 
ATOM     17  C   UNL     1      -0.640   4.362  -0.516  0.00  0.00    +0.025 C 
ENDBRANCH   3  15
BRANCH   1  18
ATOM     18  C   UNL     1      -2.120  -0.455   1.267  0.00  0.00    +0.339 C 
ATOM     19  O   UNL     1      -1.710  -0.792   0.172  0.00  0.00    -0.245 OA
BRANCH  18  21
ATOM     20  C   UNL     1      -3.260  -2.529   1.365  0.00  0.00    +0.280 C 
ATOM     21  O   UNL     1      -2.928  -1.277   1.968  0.00  0.00    -0.465 OA
ENDBRANCH  18  21
ENDBRANCH   1  18
BRANCH   2  22
ATOM     22  C   UNL     1      -0.674   1.357  -0.347  0.00  0.00    +0.129 C 
BRANCH  22  23
ATOM     23  S   UNL     1       0.958   0.575  -0.356  0.00  0.00    -0.079 S 
BRANCH  23  24
ATOM     24  C   UNL     1       1.151   0.291  -2.085  0.00  0.00    +0.209 A 
ATOM     25  N   UNL     1       0.286   0.595  -3.026  0.00  0.00    -0.121 NA
ATOM     26  N   UNL     1       0.748   0.254  -4.176  0.00  0.00    -0.127 NA
ATOM     27  C   UNL     1       1.931  -0.298  -4.039  0.00  0.00    +0.182 A 
ATOM     28  N   UNL     1       2.226  -0.291  -2.695  0.00  0.00    -0.224 N 
BRANCH  27  29
ATOM     29  C   UNL     1       2.785  -0.826  -5.123  0.00  0.00    +0.021 A 
ATOM     30  C   UNL     1       3.846  -1.683  -4.825  0.00  0.00    +0.014 A 
ATOM     31  C   UNL     1       4.636  -2.178  -5.841  0.00  0.00    +0.039 A 
ATOM     32  C   UNL     1       4.386  -1.816  -7.155  0.00  0.00    +0.123 A 
ATOM     33  C   UNL     1       3.338  -0.961  -7.457  0.00  0.00    +0.039 A 
ATOM     34  C   UNL     1       2.538  -0.465  -6.449  0.00  0.00    +0.014 A 
ATOM     35  F   UNL     1       5.167  -2.299  -8.147  0.00  0.00    -0.205 F 
ENDBRANCH  27  29
BRANCH  28  36
ATOM     36  N   UNL     1       3.358  -0.767  -2.096  0.00  0.00    -0.295 N 
ATOM     37  H   UNL     1       4.155  -1.216  -2.706  0.00  0.00    +0.163 HD
ATOM     38  H   UNL     1       3.471  -0.701  -1.004  0.00  0.00    +0.163 HD
ENDBRANCH  28  36
ENDBRANCH  23  24
ENDBRANCH  22  23
ENDBRANCH   2  22
TORSDOF 9
