REMARK  Name = ZINC05408936
REMARK  11 active torsions:
REMARK  status: ('A' for Active; 'I' for Inactive)
REMARK    1  A    between atoms: C_1  and  C_2
REMARK    2  A    between atoms: C_4  and  C_33
REMARK    3  A    between atoms: C_5  and  C_9
REMARK    4  A    between atoms: C_6  and  C_8
REMARK    5  A    between atoms: C_12  and  C_23
REMARK    6  A    between atoms: C_18  and  N_22
REMARK    7  A    between atoms: C_19  and  C_20
REMARK    8  A    between atoms: C_25  and  O_31
REMARK    9  A    between atoms: C_28  and  O_29
REMARK   10  A    between atoms: O_29  and  C_30
REMARK   11  A    between atoms: O_31  and  C_32
REMARK                            x       y       z     vdW  Elec       q    Type
REMARK                         _______ _______ _______ _____ _____    ______ ____
ROOT
ATOM      1  C   UNL     1      -0.498  -3.581   0.194  0.00  0.00    +0.102 C 
ATOM      2  C   UNL     1      -1.837  -3.975   0.760  0.00  0.00    +0.054 A 
ATOM      3  C   UNL     1      -3.107  -3.872   0.182  0.00  0.00    +0.104 A 
ATOM      4  N   UNL     1      -3.986  -4.340   1.048  0.00  0.00    -0.170 NA
ATOM      5  N   UNL     1      -3.296  -4.753   2.198  0.00  0.00    -0.246 N 
ATOM      6  H   UNL     1      -3.695  -5.138   2.994  0.00  0.00    +0.192 HD
ATOM      7  C   UNL     1      -1.982  -4.522   2.002  0.00  0.00    +0.223 A 
ATOM      8  O   UNL     1      -0.930  -4.758   2.825  0.00  0.00    -0.423 OA
ATOM      9  C   UNL     1       0.307  -4.694   2.291  0.00  0.00    +0.200 C 
ATOM     10  C   UNL     1       0.577  -4.165   1.077  0.00  0.00    +0.098 C 
ENDROOT
BRANCH   1  15
ATOM     11  C   UNL     1      -0.030   2.178   0.110  0.00  0.00    +0.044 C 
ATOM     12  C   UNL     1      -0.152   0.676   0.132  0.00  0.00    -0.050 A 
ATOM     13  C   UNL     1      -0.528   0.030   1.295  0.00  0.00    +0.007 A 
ATOM     14  C   UNL     1      -0.640  -1.347   1.315  0.00  0.00    -0.046 A 
ATOM     15  C   UNL     1      -0.377  -2.079   0.172  0.00  0.00    -0.029 A 
ATOM     16  C   UNL     1      -0.002  -1.433  -0.992  0.00  0.00    -0.046 A 
ATOM     17  C   UNL     1       0.105  -0.055  -1.013  0.00  0.00    +0.007 A 
ATOM     18  C   UNL     1       0.285  -2.230  -2.237  0.00  0.00    +0.044 C 
ATOM     19  C   UNL     1      -1.048  -2.052   2.583  0.00  0.00    +0.044 C 
ENDBRANCH   1  15
BRANCH   3  20
ATOM     20  C   UNL     1      -3.411  -3.330  -1.165  0.00  0.00    +0.048 A 
ATOM     21  C   UNL     1      -2.698  -3.777  -2.275  0.00  0.00    +0.059 A 
ATOM     22  C   UNL     1      -2.986  -3.269  -3.531  0.00  0.00    +0.121 A 
ATOM     23  C   UNL     1      -3.984  -2.316  -3.684  0.00  0.00    +0.049 A 
ATOM     24  C   UNL     1      -4.694  -1.869  -2.586  0.00  0.00    +0.050 A 
ATOM     25  C   UNL     1      -4.418  -2.375  -1.326  0.00  0.00    +0.130 A 
BRANCH  25  26
ATOM     26  O   UNL     1      -5.122  -1.939  -0.248  0.00  0.00    -0.494 OA
ATOM     27  C   UNL     1      -6.136  -0.961  -0.487  0.00  0.00    +0.277 C 
ENDBRANCH  25  26
BRANCH  22  28
ATOM     28  O   UNL     1      -2.291  -3.704  -4.615  0.00  0.00    -0.495 OA
ATOM     29  C   UNL     1      -2.640  -3.137  -5.880  0.00  0.00    +0.277 C 
ENDBRANCH  22  28
ENDBRANCH   3  20
BRANCH   9  30
ATOM     30  N   UNL     1       1.354  -5.198   3.024  0.00  0.00    -0.328 N 
ATOM     31  H   UNL     1       1.192  -5.585   3.898  0.00  0.00    +0.145 HD
ATOM     32  H   UNL     1       2.255  -5.166   2.667  0.00  0.00    +0.145 HD
ENDBRANCH   9  30
BRANCH  10  33
ATOM     33  C   UNL     1       1.931  -4.158   0.611  0.00  0.00    +0.101 C 
ATOM     34  N   UNL     1       3.006  -4.152   0.242  0.00  0.00    -0.191 NA
ENDBRANCH  10  33
TORSDOF 6
