REMARK  Name = ZINC13637660
REMARK  6 active torsions:
REMARK  status: ('A' for Active; 'I' for Inactive)
REMARK    1  A    between atoms: C_1  and  C_2
REMARK    2  A    between atoms: C_2  and  C_3
REMARK    3  A    between atoms: C_3  and  O_4
REMARK    4  A    between atoms: O_4  and  C_5
REMARK    5  A    between atoms: C_18  and  C_21
REMARK    6  A    between atoms: C_24  and  O_27
REMARK                            x       y       z     vdW  Elec       q    Type
REMARK                         _______ _______ _______ _____ _____    ______ ____
ROOT
ATOM      1  C   UNL     1      -7.618   1.276  -0.227  0.00  0.00    +0.121 A 
ATOM      2  C   UNL     1      -7.133   2.008  -1.301  0.00  0.00    +0.047 A 
ATOM      3  C   UNL     1      -5.773   2.116  -1.506  0.00  0.00    +0.027 A 
ATOM      4  C   UNL     1      -4.880   1.495  -0.642  0.00  0.00    +0.032 A 
ATOM      5  C   UNL     1      -5.374   0.747   0.432  0.00  0.00    -0.016 A 
ATOM      6  C   UNL     1      -6.733   0.648   0.636  0.00  0.00    +0.051 A 
ATOM      7  C   UNL     1      -4.389   0.077   1.309  0.00  0.00    +0.049 C 
ATOM      8  C   UNL     1      -4.680  -0.221   2.734  0.00  0.00    -0.023 C 
ATOM      9  C   UNL     1      -3.543  -0.171   3.418  0.00  0.00    -0.030 C 
ATOM     10  C   UNL     1      -2.389   0.204   2.487  0.00  0.00    +0.033 C 
ATOM     11  C   UNL     1      -3.132   0.992   1.405  0.00  0.00    +0.029 C 
ATOM     12  C   UNL     1      -2.513   0.977   0.019  0.00  0.00    +0.105 C 
ATOM     13  N   UNL     1      -3.501   1.633  -0.865  0.00  0.00    -0.336 N 
ATOM     14  H   UNL     1      -3.191   2.168  -1.613  0.00  0.00    +0.147 HD
ENDROOT
BRANCH  12  15
ATOM     15  C   UNL     1      -1.220   1.750   0.017  0.00  0.00    -0.027 A 
ATOM     16  C   UNL     1      -0.013   1.076   0.008  0.00  0.00    +0.009 A 
ATOM     17  C   UNL     1       1.175   1.782   0.000  0.00  0.00    +0.046 A 
ATOM     18  C   UNL     1       1.155   3.169   0.008  0.00  0.00    +0.117 A 
ATOM     19  C   UNL     1      -0.057   3.844   0.023  0.00  0.00    +0.046 A 
ATOM     20  C   UNL     1      -1.242   3.133   0.031  0.00  0.00    +0.009 A 
BRANCH  18  21
ATOM     21  O   UNL     1       2.322   3.866   0.000  0.00  0.00    -0.507 OA
ATOM     22  H   UNL     1       2.651   4.073  -0.885  0.00  0.00    +0.292 HD
ENDBRANCH  18  21
ENDBRANCH  12  15
BRANCH   1  23
ATOM     23  O   UNL     1      -8.959   1.175  -0.022  0.00  0.00    -0.492 OA
BRANCH  23  24
ATOM     24  C   UNL     1      -9.810   1.848  -0.951  0.00  0.00    +0.229 C 
BRANCH  24  26
ATOM     25  C   UNL     1     -12.183   2.342  -1.556  0.00  0.00    +0.007 C 
ATOM     26  C   UNL     1     -11.272   1.621  -0.560  0.00  0.00    +0.038 C 
ENDBRANCH  24  26
ENDBRANCH  23  24
ENDBRANCH   1  23
TORSDOF 5
