REMARK  Name = ZINC39674193
REMARK  7 active torsions:
REMARK  status: ('A' for Active; 'I' for Inactive)
REMARK    1  A    between atoms: C_1  and  C_2
REMARK    2  A    between atoms: C_4  and  C_9
REMARK    3  A    between atoms: C_5  and  C_8
REMARK    4  A    between atoms: C_9  and  C_11
REMARK    5  A    between atoms: C_9  and  N_12
REMARK    6  A    between atoms: C_13  and  C_15
REMARK    7  A    between atoms: C_26  and  C_28
REMARK                            x       y       z     vdW  Elec       q    Type
REMARK                         _______ _______ _______ _____ _____    ______ ____
ROOT
ATOM      1  C   UNL     1      -3.212  -0.727  -5.372  0.00  0.00    +0.100 C 
ATOM      2  C   UNL     1      -3.932  -2.024  -4.940  0.00  0.00    +0.121 C 
ATOM      3  N   UNL     1      -4.753  -2.405  -6.113  0.00  0.00    -0.296 N 
ATOM      4  C   UNL     1      -3.890  -2.103  -7.280  0.00  0.00    +0.115 C 
ATOM      5  C   UNL     1      -3.186  -0.783  -6.908  0.00  0.00    -0.004 C 
ATOM      6  C   UNL     1      -3.946   0.404  -7.493  0.00  0.00    -0.010 C 
ATOM      7  C   UNL     1      -3.858   0.357  -9.021  0.00  0.00    -0.082 C 
ATOM      8  N   UNL     1      -2.450   0.401  -9.433  0.00  0.00    +0.379 N 
ATOM      9  C   UNL     1      -1.747  -0.791  -8.944  0.00  0.00    -0.082 C 
ATOM     10  C   UNL     1      -1.746  -0.793  -7.413  0.00  0.00    -0.010 C 
ATOM     11  C   UNL     1      -6.002  -2.912  -6.119  0.00  0.00    +0.252 C 
ATOM     12  O   UNL     1      -6.546  -3.177  -7.173  0.00  0.00    -0.270 OA
ATOM     13  H   UNL     1      -2.396   0.432 -10.441  0.00  0.00    -0.086 HD
ATOM     14  H   UNL     1      -2.014   1.227  -9.051  0.00  0.00    -0.086 HD
ENDROOT
BRANCH  11  15
ATOM     15  C   UNL     1      -6.708  -3.146  -4.844  0.00  0.00    +0.107 A 
ATOM     16  C   UNL     1      -7.504  -2.140  -4.286  0.00  0.00    +0.138 A 
ATOM     17  C   UNL     1      -8.163  -2.368  -3.093  0.00  0.00    +0.039 A 
ATOM     18  C   UNL     1      -8.036  -3.586  -2.450  0.00  0.00    +0.006 A 
ATOM     19  C   UNL     1      -7.251  -4.586  -2.995  0.00  0.00    +0.039 A 
ATOM     20  C   UNL     1      -6.590  -4.377  -4.191  0.00  0.00    +0.138 A 
ATOM     21  F   UNL     1      -5.828  -5.357  -4.724  0.00  0.00    -0.205 F 
ATOM     22  F   UNL     1      -7.628  -0.949  -4.912  0.00  0.00    -0.205 F 
ENDBRANCH  11  15
BRANCH   1  24
ATOM     23  N   UNL     1      -1.214   0.480  -4.553  0.00  0.00    -0.309 N 
ATOM     24  C   UNL     1      -1.808  -0.699  -4.824  0.00  0.00    +0.219 C 
ATOM     25  O   UNL     1      -1.213  -1.737  -4.627  0.00  0.00    -0.275 OA
ATOM     26  H   UNL     1      -1.690   1.310  -4.710  0.00  0.00    +0.149 HD
BRANCH  23  27
ATOM     27  C   UNL     1       0.150   0.507  -4.020  0.00  0.00    +0.100 C 
ATOM     28  C   UNL     1       1.150   0.437  -5.176  0.00  0.00    +0.033 C 
BRANCH  27  31
ATOM     29  C   UNL     1       0.995   3.550  -4.914  0.00  0.00    +0.039 C 
ATOM     30  C   UNL     1       0.113   3.209  -3.711  0.00  0.00    +0.154 C 
ATOM     31  C   UNL     1       0.363   1.785  -3.249  0.00  0.00    -0.001 C 
ATOM     32  C   UNL     1       0.815   1.926  -2.001  0.00  0.00    +0.063 C 
ATOM     33  N   UNL     1       0.869   3.232  -1.655  0.00  0.00    -0.159 NA
ATOM     34  N   UNL     1       0.497   4.014  -2.539  0.00  0.00    -0.180 NA
ATOM     35  C   UNL     1       1.210   0.785  -1.099  0.00  0.00    +0.067 C 
ENDBRANCH  27  31
ENDBRANCH  23  27
ENDBRANCH   1  24
TORSDOF 4
