REMARK  Name = ZINC41801142
REMARK  8 active torsions:
REMARK  status: ('A' for Active; 'I' for Inactive)
REMARK    1  A    between atoms: C_1  and  C_2
REMARK    2  A    between atoms: C_2  and  C_4
REMARK    3  A    between atoms: C_2  and  O_21
REMARK    4  A    between atoms: C_4  and  N_5
REMARK    5  A    between atoms: N_5  and  C_6
REMARK    6  A    between atoms: C_6  and  C_7
REMARK    7  A    between atoms: C_6  and  C_8
REMARK    8  A    between atoms: C_6  and  C_18
REMARK                            x       y       z     vdW  Elec       q    Type
REMARK                         _______ _______ _______ _____ _____    ______ ____
ROOT
ATOM      1  C   UNL     1      -2.823  -2.411   0.069  0.00  0.00    +0.092 C 
ATOM      2  C   UNL     1      -3.419  -2.021  -1.285  0.00  0.00    +0.010 C 
ENDROOT
BRANCH   1   3
ATOM      3  C   UNL     1      -2.912  -3.905   0.245  0.00  0.00    +0.106 A 
ATOM      4  C   UNL     1      -4.050  -4.611   0.242  0.00  0.00    +0.052 A 
ATOM      5  C   UNL     1      -3.663  -6.013   0.444  0.00  0.00    +0.021 A 
ATOM      6  C   UNL     1      -4.364  -7.214   0.535  0.00  0.00    +0.027 A 
ATOM      7  C   UNL     1      -3.675  -8.391   0.733  0.00  0.00    +0.019 A 
ATOM      8  C   UNL     1      -2.291  -8.382   0.842  0.00  0.00    +0.019 A 
ATOM      9  C   UNL     1      -1.587  -7.201   0.753  0.00  0.00    +0.048 A 
ATOM     10  C   UNL     1      -2.262  -6.003   0.553  0.00  0.00    +0.135 A 
ATOM     11  O   UNL     1      -1.859  -4.723   0.423  0.00  0.00    -0.461 OA
ATOM     12 BR   UNL     1      -4.619 -10.025   0.859  0.00  0.00    -0.050 Br
ENDBRANCH   1   3
BRANCH   1  13
ATOM     13  N   UNL     1      -1.415  -1.994   0.122  0.00  0.00    +0.396 N 
ATOM     14  H   UNL     1      -0.996  -2.335   0.974  0.00  0.00    -0.084 HD
ATOM     15  H   UNL     1      -1.361  -0.987   0.101  0.00  0.00    -0.084 HD
BRANCH  13  16
ATOM     16  C   UNL     1      -0.696  -2.548  -1.033  0.00  0.00    -0.049 C 
BRANCH  16  18
ATOM     17  C   UNL     1       1.455  -2.504  -2.303  0.00  0.00    +0.035 C 
ATOM     18  C   UNL     1       0.743  -2.029  -1.034  0.00  0.00    +0.095 C 
BRANCH  18  19
ATOM     19  O   UNL     1       1.431  -2.530   0.114  0.00  0.00    -0.394 OA
ATOM     20  H   UNL     1       2.351  -2.241   0.178  0.00  0.00    +0.210 HD
ENDBRANCH  18  19
ENDBRANCH  16  18
ENDBRANCH  13  16
ENDBRANCH   1  13
BRANCH   1  21
ATOM     21  C   UNL     1      -3.591  -1.729   1.172  0.00  0.00    +0.352 C 
ATOM     22  O   UNL     1      -3.039  -0.900   1.876  0.00  0.00    -0.247 OA
ATOM     23  O   UNL     1      -4.763  -2.005   1.359  0.00  0.00    -0.247 OA
ENDBRANCH   1  21
TORSDOF 6
