REMARK  Name = ZINC04975283
REMARK  1 active torsions:
REMARK  status: ('A' for Active; 'I' for Inactive)
REMARK    1  A    between atoms: C_9  and  C_18
REMARK                            x       y       z     vdW  Elec       q    Type
REMARK                         _______ _______ _______ _____ _____    ______ ____
ROOT
ATOM      1  C   UNL     1       4.083   2.667   0.779  0.00  0.00    +0.003 A 
ATOM      2  C   UNL     1       2.931   2.889   0.052  0.00  0.00    +0.006 A 
ATOM      3  C   UNL     1       1.845   2.032   0.166  0.00  0.00    -0.017 A 
ATOM      4  C   UNL     1       1.923   0.947   1.020  0.00  0.00    +0.067 A 
ATOM      5  C   UNL     1       3.090   0.724   1.754  0.00  0.00    +0.144 A 
ATOM      6  C   UNL     1       4.165   1.581   1.632  0.00  0.00    +0.040 A 
ATOM      7  F   UNL     1       3.167  -0.337   2.587  0.00  0.00    -0.204 F 
ATOM      8  N   UNL     1       0.865   0.050   1.183  0.00  0.00    -0.334 N 
ATOM      9  C   UNL     1       0.002  -0.004   0.002  0.00  0.00    +0.105 C 
ATOM     10  C   UNL     1      -0.547   1.394  -0.291  0.00  0.00    +0.029 C 
ATOM     11  C   UNL     1       0.626   2.327  -0.659  0.00  0.00    +0.049 C 
ATOM     12  C   UNL     1       0.888   2.034  -2.119  0.00  0.00    -0.023 C 
ATOM     13  C   UNL     1      -0.164   1.484  -2.671  0.00  0.00    -0.030 C 
ATOM     14  C   UNL     1      -1.283   1.340  -1.659  0.00  0.00    +0.033 C 
ATOM     15  H   UNL     1       0.332   0.266   2.011  0.00  0.00    +0.147 HD
ENDROOT
BRANCH   9  16
ATOM     16  C   UNL     1       0.799  -0.489  -1.181  0.00  0.00    -0.023 A 
ATOM     17  C   UNL     1       0.148  -1.015  -2.283  0.00  0.00    +0.009 A 
ATOM     18  C   UNL     1       0.875  -1.461  -3.371  0.00  0.00    +0.050 A 
ATOM     19  C   UNL     1       2.258  -1.382  -3.360  0.00  0.00    +0.166 A 
ATOM     20  C   UNL     1       2.913  -0.853  -2.251  0.00  0.00    +0.167 A 
ATOM     21  C   UNL     1       2.179  -0.403  -1.166  0.00  0.00    +0.055 A 
ATOM     22  O   UNL     1       4.258  -0.884  -2.483  0.00  0.00    -0.453 OA
ATOM     23  C   UNL     1       4.439  -1.810  -3.571  0.00  0.00    +0.466 C 
ATOM     24  O   UNL     1       3.192  -1.744  -4.287  0.00  0.00    -0.453 OA
ENDBRANCH   9  16
TORSDOF 1
