REMARK  Name = ZINC63110769
REMARK  6 active torsions:
REMARK  status: ('A' for Active; 'I' for Inactive)
REMARK    1  A    between atoms: C_7  and  C_10
REMARK    2  A    between atoms: C_10  and  C_11
REMARK    3  A    between atoms: C_11  and  N_12
REMARK    4  A    between atoms: C_13  and  C_15
REMARK    5  A    between atoms: C_20  and  C_29
REMARK    6  A    between atoms: C_22  and  C_25
REMARK                            x       y       z     vdW  Elec       q    Type
REMARK                         _______ _______ _______ _____ _____    ______ ____
ROOT
ATOM      1  C   UNL     1      -1.752  -6.557  -2.622  0.00  0.00    +0.185 C 
ATOM      2  C   UNL     1      -3.102  -6.152  -2.078  0.00  0.00    +0.047 C 
ATOM      3  C   UNL     1      -3.998  -6.358  -3.068  0.00  0.00    +0.138 C 
ATOM      4  N   UNL     1      -5.337  -6.142  -3.057  0.00  0.00    -0.230 NA
ATOM      5  C   UNL     1      -6.077  -6.399  -4.120  0.00  0.00    +0.081 C 
ATOM      6  C   UNL     1      -5.442  -6.925  -5.330  0.00  0.00    +0.056 C 
ATOM      7  C   UNL     1      -4.112  -7.135  -5.331  0.00  0.00    +0.115 C 
ATOM      8  N   UNL     1      -3.374  -6.855  -4.203  0.00  0.00    -0.215 N 
ATOM      9  N   UNL     1      -2.024  -7.000  -4.000  0.00  0.00    -0.218 NA
ATOM     10  H   UNL     1      -1.498  -6.454  -4.666  0.00  0.00    +0.146 HD
ENDROOT
BRANCH   5  11
ATOM     11  C   UNL     1      -7.528  -6.159  -4.089  0.00  0.00    +0.038 A 
ATOM     12  C   UNL     1      -8.309  -5.667  -3.057  0.00  0.00    +0.017 A 
ATOM     13  C   UNL     1      -9.654  -5.552  -3.328  0.00  0.00    +0.008 A 
ATOM     14  C   UNL     1     -10.113  -5.915  -4.549  0.00  0.00    +0.046 A 
ATOM     15  S   UNL     1      -8.738  -6.418  -5.372  0.00  0.00    -0.095 S 
ENDBRANCH   5  11
BRANCH   1  17
ATOM     16  N   UNL     1      -0.458  -4.798  -1.460  0.00  0.00    -0.313 N 
ATOM     17  C   UNL     1      -0.811  -5.380  -2.623  0.00  0.00    +0.236 C 
ATOM     18  O   UNL     1      -0.371  -4.957  -3.671  0.00  0.00    -0.274 OA
ATOM     19  H   UNL     1      -0.810  -5.136  -0.622  0.00  0.00    +0.149 HD
BRANCH  16  20
ATOM     20  C   UNL     1       0.457  -3.653  -1.462  0.00  0.00    +0.108 C 
BRANCH  20  21
ATOM     21  C   UNL     1       0.691  -3.186  -0.024  0.00  0.00    +0.052 C 
BRANCH  21  28
ATOM     22  C   UNL     1      -0.016   1.348   0.009  0.00  0.00    +0.001 A 
ATOM     23  C   UNL     1       1.166   2.101   0.002  0.00  0.00    +0.002 A 
ATOM     24  C   UNL     1       2.391   1.535  -0.013  0.00  0.00    +0.026 A 
ATOM     25  C   UNL     1       2.529   0.120  -0.022  0.00  0.00    +0.043 A 
ATOM     26  N   UNL     1       3.587  -0.654  -0.037  0.00  0.00    -0.380 N 
ATOM     27  C   UNL     1       3.143  -2.053  -0.041  0.00  0.00    +0.144 C 
ATOM     28  C   UNL     1       1.631  -2.008  -0.025  0.00  0.00    -0.040 C 
ATOM     29  C   UNL     1       1.295  -0.698  -0.014  0.00  0.00    -0.001 A 
ATOM     30  C   UNL     1       0.002  -0.004   0.002  0.00  0.00    +0.010 A 
ATOM     31  H   UNL     1       4.509  -0.353  -0.045  0.00  0.00    +0.160 HD
ENDBRANCH  21  28
ENDBRANCH  20  21
ENDBRANCH  16  20
ENDBRANCH   1  17
BRANCH   7  32
ATOM     32  C   UNL     1      -3.433  -7.676  -6.562  0.00  0.00    +0.363 C 
ATOM     33  F   UNL     1      -4.384  -7.879  -7.568  0.00  0.00    -0.181 F 
ATOM     34  F   UNL     1      -2.473  -6.760  -7.006  0.00  0.00    -0.181 F 
ATOM     35 CL   UNL     1      -2.631  -9.242  -6.168  0.00  0.00    -0.041 Cl
ENDBRANCH   7  32
TORSDOF 6
