REMARK  Name = ZINC22240871
REMARK  7 active torsions:
REMARK  status: ('A' for Active; 'I' for Inactive)
REMARK    1  A    between atoms: C_1  and  C_2
REMARK    2  A    between atoms: C_4  and  C_29
REMARK    3  A    between atoms: C_5  and  C_9
REMARK    4  A    between atoms: C_6  and  C_8
REMARK    5  A    between atoms: C_15  and  C_17
REMARK    6  A    between atoms: C_17  and  N_18
REMARK    7  A    between atoms: C_22  and  C_25
REMARK                            x       y       z     vdW  Elec       q    Type
REMARK                         _______ _______ _______ _____ _____    ______ ____
ROOT
ATOM      1  C   UNL     1       1.268   0.653   0.211  0.00  0.00    +0.081 A 
ATOM      2  C   UNL     1      -0.080   0.771   0.408  0.00  0.00    +0.076 A 
ATOM      3  S   UNL     1      -0.255   2.551   0.436  0.00  0.00    -0.060 S 
ATOM      4  C   UNL     1       1.469   2.948   0.183  0.00  0.00    +0.165 A 
ATOM      5  N   UNL     1       2.008   1.746   0.103  0.00  0.00    -0.225 NA
ATOM      6  N   UNL     1       2.081   4.193   0.094  0.00  0.00    -0.266 N 
ATOM      7  C   UNL     1       1.343   5.316   0.204  0.00  0.00    +0.202 C 
ATOM      8  O   UNL     1       0.145   5.239   0.380  0.00  0.00    -0.277 OA
ATOM      9  H   UNL     1       3.167   4.262  -0.065  0.00  0.00    +0.157 HD
ENDROOT
BRANCH   1  14
ATOM     10  C   UNL     1       3.703  -4.553  -0.150  0.00  0.00    +0.044 C 
ATOM     11  C   UNL     1       3.066  -3.191  -0.056  0.00  0.00    -0.050 A 
ATOM     12  C   UNL     1       3.302  -2.250  -1.042  0.00  0.00    +0.007 A 
ATOM     13  C   UNL     1       2.721  -1.001  -0.960  0.00  0.00    -0.041 A 
ATOM     14  C   UNL     1       1.895  -0.688   0.118  0.00  0.00    +0.007 A 
ATOM     15  C   UNL     1       1.665  -1.638   1.112  0.00  0.00    -0.041 A 
ATOM     16  C   UNL     1       2.247  -2.886   1.017  0.00  0.00    +0.007 A 
ATOM     17  C   UNL     1       0.779  -1.305   2.284  0.00  0.00    +0.044 C 
ATOM     18  C   UNL     1       2.979   0.023  -2.035  0.00  0.00    +0.044 C 
ENDBRANCH   1  14
BRANCH   7  19
ATOM     19  C   UNL     1       2.006   6.665   0.107  0.00  0.00    +0.019 C 
BRANCH  19  20
ATOM     20  N   UNL     1       0.980   7.717   0.115  0.00  0.00    +0.386 N 
ATOM     21  C   UNL     1       1.590   9.047   0.240  0.00  0.00    -0.078 C 
ATOM     22  C   UNL     1       0.491  10.101   0.391  0.00  0.00    -0.018 C 
ATOM     23  C   UNL     1      -0.427  10.053  -0.833  0.00  0.00    +0.008 C 
ATOM     24  C   UNL     1      -1.012   8.645  -0.968  0.00  0.00    +0.077 C 
ATOM     25  C   UNL     1       0.131   7.632  -1.079  0.00  0.00    -0.066 C 
ATOM     26  H   UNL     1       0.338   7.558   0.995  0.00  0.00    -0.081 HD
BRANCH  24  27
ATOM     27  C   UNL     1      -1.884   8.572  -2.223  0.00  0.00    +0.391 C 
ATOM     28  F   UNL     1      -2.414   7.283  -2.348  0.00  0.00    -0.171 F 
ATOM     29  F   UNL     1      -2.928   9.497  -2.120  0.00  0.00    -0.171 F 
ATOM     30  F   UNL     1      -1.107   8.868  -3.348  0.00  0.00    -0.171 F 
ENDBRANCH  24  27
ENDBRANCH  19  20
ENDBRANCH   7  19
TORSDOF 4
