REMARK  Name = ZINC09238358
REMARK  5 active torsions:
REMARK  status: ('A' for Active; 'I' for Inactive)
REMARK    1  A    between atoms: C_4  and  C_7
REMARK    2  A    between atoms: C_13  and  C_31
REMARK    3  A    between atoms: C_15  and  C_18
REMARK    4  A    between atoms: N_20  and  C_21
REMARK    5  A    between atoms: C_26  and  C_27
REMARK                            x       y       z     vdW  Elec       q    Type
REMARK                         _______ _______ _______ _____ _____    ______ ____
ROOT
ATOM      1  C   UNL     1       3.739  -0.679  -0.057  0.00  0.00    +0.182 A 
ATOM      2  N   UNL     1       4.919  -0.172  -0.336  0.00  0.00    -0.127 NA
ATOM      3  N   UNL     1       5.823  -1.088  -0.263  0.00  0.00    -0.121 NA
ATOM      4  C   UNL     1       5.270  -2.220   0.061  0.00  0.00    +0.210 A 
ATOM      5  N   UNL     1       3.926  -2.009   0.223  0.00  0.00    -0.221 N 
ATOM      6  N   UNL     1       3.001  -2.929   0.596  0.00  0.00    -0.272 N 
ATOM      7  C   UNL     1       3.359  -4.315   0.300  0.00  0.00    +0.140 C 
ATOM      8  C   UNL     1       4.636  -4.725   1.050  0.00  0.00    +0.166 C 
ATOM      9  S   UNL     1       6.019  -3.806   0.284  0.00  0.00    -0.069 S 
ATOM     10  H   UNL     1       2.754  -2.819   1.568  0.00  0.00    +0.167 HD
ENDROOT
BRANCH   7  11
ATOM     11  C   UNL     1       2.228  -5.219   0.718  0.00  0.00    -0.024 A 
ATOM     12  C   UNL     1       1.543  -4.969   1.892  0.00  0.00    +0.008 A 
ATOM     13  C   UNL     1       0.505  -5.797   2.277  0.00  0.00    +0.038 A 
ATOM     14  C   UNL     1       0.152  -6.877   1.486  0.00  0.00    +0.123 A 
ATOM     15  C   UNL     1       0.840  -7.126   0.310  0.00  0.00    +0.038 A 
ATOM     16  C   UNL     1       1.874  -6.294  -0.075  0.00  0.00    +0.008 A 
ATOM     17  F   UNL     1      -0.862  -7.687   1.861  0.00  0.00    -0.205 F 
ENDBRANCH   7  11
BRANCH   1  21
ATOM     18  C   UNL     1       0.041   1.410  -0.017  0.00  0.00    +0.000 A 
ATOM     19  C   UNL     1       1.230   2.116  -0.026  0.00  0.00    +0.001 A 
ATOM     20  C   UNL     1       2.435   1.444  -0.039  0.00  0.00    +0.011 A 
ATOM     21  C   UNL     1       2.451   0.048  -0.043  0.00  0.00    +0.021 A 
ATOM     22  C   UNL     1       1.248  -0.658  -0.033  0.00  0.00    +0.011 A 
ATOM     23  C   UNL     1       0.050   0.027  -0.020  0.00  0.00    +0.001 A 
ENDBRANCH   1  21
BRANCH   8  24
ATOM     24  C   UNL     1       4.863  -6.208   0.906  0.00  0.00    +0.233 C 
ATOM     25  O   UNL     1       4.565  -6.770  -0.127  0.00  0.00    -0.274 OA
ATOM     26  N   UNL     1       5.397  -6.910   1.925  0.00  0.00    -0.284 N 
ATOM     27  H   UNL     1       5.696  -6.451   2.726  0.00  0.00    +0.155 HD
BRANCH  26  28
ATOM     28  C   UNL     1       5.521  -8.300   1.828  0.00  0.00    +0.045 A 
ATOM     29  C   UNL     1       5.803  -8.890   0.603  0.00  0.00    +0.024 A 
ATOM     30  C   UNL     1       5.925 -10.262   0.510  0.00  0.00    +0.002 A 
ATOM     31  C   UNL     1       5.764 -11.050   1.636  0.00  0.00    +0.001 A 
ATOM     32  C   UNL     1       5.483 -10.466   2.857  0.00  0.00    +0.014 A 
ATOM     33  C   UNL     1       5.367  -9.093   2.957  0.00  0.00    +0.076 A 
BRANCH  33  34
ATOM     34  C   UNL     1       5.067  -8.457   4.290  0.00  0.00    +0.419 C 
ATOM     35  F   UNL     1       4.957  -9.452   5.268  0.00  0.00    -0.166 F 
ATOM     36  F   UNL     1       6.102  -7.580   4.632  0.00  0.00    -0.166 F 
ATOM     37  F   UNL     1       3.863  -7.749   4.209  0.00  0.00    -0.166 F 
ENDBRANCH  33  34
ENDBRANCH  26  28
ENDBRANCH   8  24
TORSDOF 5
