REMARK  Name = ZINC33260170
REMARK  7 active torsions:
REMARK  status: ('A' for Active; 'I' for Inactive)
REMARK    1  A    between atoms: C_1  and  C_2
REMARK    2  A    between atoms: C_2  and  C_3
REMARK    3  A    between atoms: N_9  and  C_10
REMARK    4  A    between atoms: C_10  and  C_11
REMARK    5  A    between atoms: C_11  and  N_12
REMARK    6  A    between atoms: C_13  and  C_15
REMARK    7  A    between atoms: C_27  and  C_30
REMARK                            x       y       z     vdW  Elec       q    Type
REMARK                         _______ _______ _______ _____ _____    ______ ____
ROOT
ATOM      1  C   UNL     1       3.336  -0.149   5.422  0.00  0.00    +0.078 C 
ATOM      2  C   UNL     1       2.428  -0.045   6.650  0.00  0.00    +0.031 C 
ATOM      3  C   UNL     1       3.013  -0.888   7.785  0.00  0.00    +0.107 C 
ATOM      4  N   UNL     1       4.363  -0.409   8.109  0.00  0.00    -0.314 N 
ATOM      5  C   UNL     1       5.264  -0.545   6.958  0.00  0.00    +0.107 C 
ATOM      6  C   UNL     1       4.747   0.310   5.799  0.00  0.00    +0.031 C 
ATOM      7  C   UNL     1       4.872  -1.069   9.222  0.00  0.00    +0.142 A 
ATOM      8  C   UNL     1       4.153  -1.050  10.432  0.00  0.00    +0.049 A 
ATOM      9  C   UNL     1       4.639  -1.695  11.526  0.00  0.00    +0.053 A 
ATOM     10  C   UNL     1       5.870  -2.370  11.432  0.00  0.00    +0.178 A 
ATOM     11  N   UNL     1       6.597  -3.071  12.291  0.00  0.00    -0.128 NA
ATOM     12  N   UNL     1       7.666  -3.491  11.710  0.00  0.00    -0.127 NA
ATOM     13  C   UNL     1       7.687  -3.088  10.453  0.00  0.00    +0.185 A 
ATOM     14  N   UNL     1       6.550  -2.366  10.240  0.00  0.00    -0.191 N 
ATOM     15  N   UNL     1       6.021  -1.698   9.133  0.00  0.00    -0.148 NA
ENDROOT
BRANCH  13  16
ATOM     16  C   UNL     1       8.746  -3.368   9.461  0.00  0.00    +0.021 A 
ATOM     17  C   UNL     1       8.505  -3.162   8.101  0.00  0.00    +0.013 A 
ATOM     18  C   UNL     1       9.499  -3.420   7.181  0.00  0.00    +0.021 A 
ATOM     19  C   UNL     1      10.731  -3.893   7.602  0.00  0.00    +0.041 A 
ATOM     20  C   UNL     1      10.974  -4.104   8.949  0.00  0.00    +0.021 A 
ATOM     21  C   UNL     1       9.990  -3.844   9.879  0.00  0.00    +0.013 A 
ATOM     22 CL   UNL     1      11.975  -4.221   6.437  0.00  0.00    -0.084 Cl
ENDBRANCH  13  16
BRANCH   1  24
ATOM     23  N   UNL     1       1.562   0.510   3.829  0.00  0.00    -0.317 N 
ATOM     24  C   UNL     1       2.798   0.728   4.322  0.00  0.00    +0.216 C 
ATOM     25  O   UNL     1       3.476   1.631   3.879  0.00  0.00    -0.276 OA
ATOM     26  H   UNL     1       0.947  -0.309   4.230  0.00  0.00    +0.149 HD
BRANCH  23  27
ATOM     27  C   UNL     1       1.039   1.363   2.759  0.00  0.00    +0.085 C 
BRANCH  27  28
ATOM     28  C   UNL     1      -0.372   0.905   2.386  0.00  0.00    -0.059 C 
BRANCH  28  34
ATOM     29  C   UNL     1      -0.753   3.116   1.477  0.00  0.00    -0.069 C 
ATOM     30  C   UNL     1      -1.387   3.880   0.312  0.00  0.00    -0.015 C 
ATOM     31  C   UNL     1      -0.656   3.520  -0.985  0.00  0.00    -0.003 C 
ATOM     32  C   UNL     1      -0.726   2.006  -1.198  0.00  0.00    -0.019 C 
ATOM     33  C   UNL     1      -0.111   1.297   0.011  0.00  0.00    -0.078 C 
ATOM     34  N   UNL     1      -0.846   1.672   1.226  0.00  0.00    +0.383 N 
ATOM     35  H   UNL     1      -1.906   1.427   1.066  0.00  0.00    -0.081 HD
BRANCH  29  37
ATOM     36  C   UNL     1      -1.283   4.934   3.107  0.00  0.00    +0.002 C 
ATOM     37  C   UNL     1      -1.493   3.456   2.773  0.00  0.00    -0.019 C 
ENDBRANCH  29  37
ENDBRANCH  28  34
ENDBRANCH  27  28
ENDBRANCH  23  27
ENDBRANCH   1  24
TORSDOF 6
