REMARK  Name = ZINC38684330
REMARK  16 active torsions:
REMARK  status: ('A' for Active; 'I' for Inactive)
REMARK    1  A    between atoms: C_1  and  C_2
REMARK    2  A    between atoms: C_2  and  O_3
REMARK    3  A    between atoms: O_3  and  C_4
REMARK    4  A    between atoms: C_6  and  C_16
REMARK    5  A    between atoms: C_9  and  O_10
REMARK    6  A    between atoms: O_10  and  C_11
REMARK    7  A    between atoms: C_11  and  C_12
REMARK    8  A    between atoms: C_12  and  C_13
REMARK    9  A    between atoms: C_13  and  C_14
REMARK   10  A    between atoms: C_13  and  C_15
REMARK   11  A    between atoms: C_21  and  O_30
REMARK   12  A    between atoms: C_25  and  N_29
REMARK   13  A    between atoms: C_26  and  C_27
REMARK   14  A    between atoms: O_30  and  C_31
REMARK   15  A    between atoms: C_31  and  C_33
REMARK   16  A    between atoms: C_37  and  C_39
REMARK                            x       y       z     vdW  Elec       q    Type
REMARK                         _______ _______ _______ _____ _____    ______ ____
ROOT
ATOM      1  C   UNL     1       0.644  -4.901  -0.055  0.00  0.00    +0.098 C 
ATOM      2  C   UNL     1       0.620  -5.772  -1.283  0.00  0.00    +0.008 A 
ATOM      3  C   UNL     1       0.880  -5.211  -2.520  0.00  0.00    +0.012 A 
ATOM      4  C   UNL     1       0.863  -5.994  -3.657  0.00  0.00    +0.047 A 
ATOM      5  C   UNL     1       0.583  -7.350  -3.561  0.00  0.00    +0.135 A 
ATOM      6  C   UNL     1       0.322  -7.915  -2.323  0.00  0.00    +0.093 A 
ATOM      7  C   UNL     1       0.339  -7.125  -1.181  0.00  0.00    +0.138 A 
ATOM      8  O   UNL     1       0.082  -7.693   0.023  0.00  0.00    -0.441 OA
ATOM      9  C   UNL     1       0.462  -7.073   1.152  0.00  0.00    +0.199 C 
ATOM     10  C   UNL     1       0.741  -5.751   1.180  0.00  0.00    +0.098 C 
ENDROOT
BRANCH   1  13
ATOM     11  C   UNL     1      -1.712  -1.948   0.039  0.00  0.00    +0.162 A 
ATOM     12  C   UNL     1      -0.550  -2.702  -0.013  0.00  0.00    +0.054 A 
ATOM     13  C   UNL     1      -0.621  -4.082   0.001  0.00  0.00    -0.031 A 
ATOM     14  C   UNL     1      -1.849  -4.714   0.067  0.00  0.00    +0.008 A 
ATOM     15  C   UNL     1      -3.011  -3.968   0.118  0.00  0.00    +0.050 A 
ATOM     16  C   UNL     1      -2.947  -2.584   0.110  0.00  0.00    +0.162 A 
BRANCH  11  17
ATOM     17  O   UNL     1      -1.644  -0.590   0.026  0.00  0.00    -0.489 OA
BRANCH  17  19
ATOM     18  C   UNL     1      -0.466   1.519  -0.053  0.00  0.00    +0.048 C 
ATOM     19  C   UNL     1      -0.342  -0.006  -0.049  0.00  0.00    +0.226 C 
ENDBRANCH  17  19
ENDBRANCH  11  17
BRANCH  16  20
ATOM     20  O   UNL     1      -4.090  -1.849   0.167  0.00  0.00    -0.488 OA
BRANCH  20  21
ATOM     21  C   UNL     1      -5.322  -2.569   0.238  0.00  0.00    +0.229 C 
BRANCH  21  22
ATOM     22  C   UNL     1      -6.488  -1.580   0.294  0.00  0.00    +0.044 C 
BRANCH  22  23
ATOM     23  C   UNL     1      -7.808  -2.351   0.371  0.00  0.00    -0.014 C 
ATOM     24  C   UNL     1      -7.870  -3.125   1.689  0.00  0.00    +0.007 C 
ATOM     25  C   UNL     1      -8.978  -1.368   0.301  0.00  0.00    +0.007 C 
ENDBRANCH  22  23
ENDBRANCH  21  22
ENDBRANCH  20  21
ENDBRANCH  16  20
ENDBRANCH   1  13
BRANCH   9  26
ATOM     26  N   UNL     1       0.569  -7.802   2.310  0.00  0.00    -0.328 N 
ATOM     27  H   UNL     1       0.371  -8.752   2.305  0.00  0.00    +0.145 HD
ATOM     28  H   UNL     1       0.842  -7.368   3.133  0.00  0.00    +0.145 HD
ENDBRANCH   9  26
BRANCH  10  29
ATOM     29  C   UNL     1       1.141  -5.149   2.417  0.00  0.00    +0.101 C 
ATOM     30  N   UNL     1       1.458  -4.672   3.398  0.00  0.00    -0.191 NA
ENDBRANCH  10  29
BRANCH   5  31
ATOM     31  O   UNL     1       0.565  -8.123  -4.679  0.00  0.00    -0.422 OA
BRANCH  31  32
ATOM     32  C   UNL     1       1.736  -8.360  -5.303  0.00  0.00    +0.344 C 
ATOM     33  O   UNL     1       2.776  -7.977  -4.807  0.00  0.00    -0.245 OA
BRANCH  32  34
ATOM     34  C   UNL     1       1.753  -9.085  -6.589  0.00  0.00    +0.060 A 
ATOM     35  C   UNL     1       0.558  -9.522  -7.165  0.00  0.00    +0.015 A 
ATOM     36  C   UNL     1       0.581 -10.198  -8.366  0.00  0.00    +0.001 A 
ATOM     37  C   UNL     1       1.786 -10.445  -9.002  0.00  0.00    +0.003 A 
ATOM     38  C   UNL     1       2.974 -10.016  -8.437  0.00  0.00    -0.050 A 
ATOM     39  C   UNL     1       2.964  -9.333  -7.238  0.00  0.00    +0.018 A 
ATOM     40  C   UNL     1       4.280 -10.289  -9.136  0.00  0.00    +0.044 C 
ENDBRANCH  32  34
ENDBRANCH  31  32
ENDBRANCH   5  31
TORSDOF 12
