REMARK  Name = ZINC43743776
REMARK  11 active torsions:
REMARK  status: ('A' for Active; 'I' for Inactive)
REMARK    1  A    between atoms: C_1  and  C_2
REMARK    2  A    between atoms: C_2  and  C_5
REMARK    3  A    between atoms: N_3  and  O_4
REMARK    4  A    between atoms: C_5  and  O_39
REMARK    5  A    between atoms: C_6  and  O_38
REMARK    6  A    between atoms: C_11  and  C_37
REMARK    7  A    between atoms: C_21  and  C_36
REMARK    8  A    between atoms: C_24  and  O_27
REMARK    9  A    between atoms: O_27  and  C_28
REMARK   10  A    between atoms: C_28  and  C_30
REMARK   11  A    between atoms: O_39  and  C_40
REMARK                            x       y       z     vdW  Elec       q    Type
REMARK                         _______ _______ _______ _____ _____    ______ ____
ROOT
ATOM      1  C   UNL     1       0.051  -0.721  -1.369  0.00  0.00    +0.141 C 
ATOM      2  C   UNL     1       1.434  -0.609  -2.058  0.00  0.00    +0.153 C 
ATOM      3  C   UNL     1       1.981  -2.057  -2.181  0.00  0.00    +0.039 C 
ATOM      4  C   UNL     1       1.238  -2.800  -1.064  0.00  0.00    +0.004 C 
ATOM      5  C   UNL     1      -0.194  -2.216  -1.197  0.00  0.00    +0.008 C 
ATOM      6  C   UNL     1      -0.962  -2.637   0.042  0.00  0.00    +0.010 C 
ATOM      7  C   UNL     1      -1.082  -4.168   0.002  0.00  0.00    +0.005 C 
ATOM      8  C   UNL     1       0.286  -4.841  -0.066  0.00  0.00    +0.003 C 
ATOM      9  C   UNL     1       1.145  -4.307  -1.222  0.00  0.00    +0.000 C 
ATOM     10  C   UNL     1       2.546  -4.920  -1.117  0.00  0.00    +0.031 C 
ATOM     11  C   UNL     1       2.431  -6.416  -1.100  0.00  0.00    -0.027 C 
ATOM     12  C   UNL     1       1.372  -7.041  -0.677  0.00  0.00    -0.064 C 
ATOM     13  C   UNL     1       0.113  -6.346  -0.184  0.00  0.00    -0.008 C 
ATOM     14  C   UNL     1      -0.272  -6.938   1.175  0.00  0.00    +0.015 C 
ATOM     15  C   UNL     1      -0.426  -8.454   1.044  0.00  0.00    +0.046 C 
ATOM     16  C   UNL     1       0.914  -9.075   0.646  0.00  0.00    +0.181 C 
ATOM     17  C   UNL     1       1.376  -8.561  -0.701  0.00  0.00    +0.075 C 
ATOM     18  C   UNL     1      -1.042  -6.620  -1.149  0.00  0.00    +0.016 C 
ATOM     19  C   UNL     1      -0.870  -2.779  -2.449  0.00  0.00    +0.015 C 
ENDROOT
BRANCH   1  21
ATOM     20  C   UNL     1       1.142  -0.403   0.982  0.00  0.00    +0.067 C 
ATOM     21  C   UNL     1       0.081  -0.038  -0.025  0.00  0.00    +0.089 C 
ATOM     22  N   UNL     1      -0.794   0.850   0.261  0.00  0.00    -0.094 NA
BRANCH  22  23
ATOM     23  O   UNL     1      -0.765   1.491   1.523  0.00  0.00    -0.409 OA
ATOM     24  H   UNL     1      -1.465   2.147   1.647  0.00  0.00    +0.328 HD
ENDBRANCH  22  23
ENDBRANCH   1  21
BRANCH   2  25
ATOM     25  O   UNL     1       1.289  -0.027  -3.355  0.00  0.00    -0.389 OA
ATOM     26  H   UNL     1       2.122   0.070  -3.838  0.00  0.00    +0.210 HD
ENDBRANCH   2  25
BRANCH   1  27
ATOM     27  O   UNL     1      -0.963  -0.144  -2.193  0.00  0.00    -0.368 OA
ATOM     28  C   UNL     1      -2.282  -0.254  -1.654  0.00  0.00    +0.195 C 
ENDBRANCH   1  27
BRANCH  16  29
ATOM     29  O   UNL     1       1.911  -8.710   1.602  0.00  0.00    -0.458 OA
BRANCH  29  30
ATOM     30  C   UNL     1       2.916  -9.584   1.801  0.00  0.00    +0.339 C 
ATOM     31  O   UNL     1       2.946 -10.628   1.181  0.00  0.00    -0.245 OA
BRANCH  30  32
ATOM     32  C   UNL     1       3.983  -9.274   2.775  0.00  0.00    +0.059 A 
ATOM     33  C   UNL     1       3.949  -8.077   3.494  0.00  0.00    +0.015 A 
ATOM     34  C   UNL     1       4.949  -7.793   4.401  0.00  0.00    +0.001 A 
ATOM     35  C   UNL     1       5.983  -8.691   4.599  0.00  0.00    +0.000 A 
ATOM     36  C   UNL     1       6.023  -9.878   3.890  0.00  0.00    +0.001 A 
ATOM     37  C   UNL     1       5.027 -10.177   2.984  0.00  0.00    +0.015 A 
ENDBRANCH  30  32
ENDBRANCH  29  30
ENDBRANCH  16  29
TORSDOF 7
