REMARK  Name = ZINC63647014
REMARK  5 active torsions:
REMARK  status: ('A' for Active; 'I' for Inactive)
REMARK    1  A    between atoms: C_6  and  C_7
REMARK    2  A    between atoms: C_9  and  S_13
REMARK    3  A    between atoms: S_13  and  C_14
REMARK    4  A    between atoms: C_14  and  C_15
REMARK    5  A    between atoms: C_23  and  C_26
REMARK                            x       y       z     vdW  Elec       q    Type
REMARK                         _______ _______ _______ _____ _____    ______ ____
ROOT
ATOM      1  C   UNL     1      -2.200  -6.579  -0.011  0.00  0.00    +0.060 A 
ATOM      2  C   UNL     1      -2.099  -7.325  -1.150  0.00  0.00    +0.096 A 
ATOM      3  C   UNL     1      -2.462  -8.675  -1.131  0.00  0.00    +0.272 A 
ATOM      4  O   UNL     1      -2.382  -9.343  -2.149  0.00  0.00    -0.266 OA
ATOM      5  N   UNL     1      -2.906  -9.249   0.029  0.00  0.00    -0.206 N 
ATOM      6  C   UNL     1      -3.014  -8.417   1.113  0.00  0.00    +0.191 A 
ATOM      7  N   UNL     1      -2.658  -7.158   1.099  0.00  0.00    -0.226 NA
ATOM      8  S   UNL     1      -3.714  -9.444   2.393  0.00  0.00    -0.062 S 
ATOM      9  C   UNL     1      -4.153 -10.867   1.304  0.00  0.00    +0.156 C 
ATOM     10  N   UNL     1      -3.228 -10.569   0.179  0.00  0.00    -0.266 N 
ATOM     11  H   UNL     1      -3.574 -10.956  -0.686  0.00  0.00    +0.168 HD
ENDROOT
BRANCH   9  12
ATOM     12  C   UNL     1      -3.824 -12.206   1.965  0.00  0.00    +0.021 C 
ATOM     13  C   UNL     1      -4.054 -13.340   0.964  0.00  0.00    +0.006 C 
ATOM     14  C   UNL     1      -3.725 -14.680   1.626  0.00  0.00    +0.000 C 
ATOM     15  C   UNL     1      -4.629 -14.883   2.843  0.00  0.00    +0.000 C 
ATOM     16  C   UNL     1      -4.399 -13.749   3.845  0.00  0.00    +0.000 C 
ATOM     17  C   UNL     1      -4.728 -12.409   3.183  0.00  0.00    +0.006 C 
ENDBRANCH   9  12
BRANCH   1  18
ATOM     18  C   UNL     1      -1.797  -5.128  -0.007  0.00  0.00    +0.133 C 
BRANCH  18  19
ATOM     19  S   UNL     1      -3.283  -4.087   0.012  0.00  0.00    -0.080 S 
BRANCH  19  22
ATOM     20  C   UNL     1      -1.271  -0.766   0.010  0.00  0.00    +0.182 A 
ATOM     21  N   UNL     1      -1.381  -2.102   0.004  0.00  0.00    -0.201 NA
ATOM     22  C   UNL     1      -2.651  -2.442   0.015  0.00  0.00    +0.185 A 
ATOM     23  H   UNL     1      -4.355  -1.245   0.039  0.00  0.00    +0.191 HD
ATOM     24  N   UNL     1      -3.387  -1.309   0.028  0.00  0.00    -0.253 N 
ATOM     25  N   UNL     1      -2.475  -0.241   0.030  0.00  0.00    -0.152 NA
BRANCH  20  31
ATOM     26  C   UNL     1      -0.017   1.389   0.010  0.00  0.00    +0.013 A 
ATOM     27  C   UNL     1       1.170   2.093   0.002  0.00  0.00    +0.021 A 
ATOM     28  C   UNL     1       2.378   1.417  -0.013  0.00  0.00    +0.041 A 
ATOM     29  C   UNL     1       2.402   0.033  -0.021  0.00  0.00    +0.021 A 
ATOM     30  C   UNL     1       1.221  -0.680  -0.014  0.00  0.00    +0.013 A 
ATOM     31  C   UNL     1       0.002  -0.004   0.002  0.00  0.00    +0.021 A 
ATOM     32 CL   UNL     1       3.868   2.308  -0.023  0.00  0.00    -0.084 Cl
ENDBRANCH  20  31
ENDBRANCH  19  22
ENDBRANCH  18  19
ENDBRANCH   1  18
TORSDOF 5
