REMARK  Name = ZINC06153687
REMARK  7 active torsions:
REMARK  status: ('A' for Active; 'I' for Inactive)
REMARK    1  A    between atoms: C_1  and  O_2
REMARK    2  A    between atoms: O_2  and  C_3
REMARK    3  A    between atoms: C_3  and  C_5
REMARK    4  A    between atoms: C_8  and  N_11
REMARK    5  A    between atoms: C_12  and  C_14
REMARK    6  A    between atoms: C_14  and  C_15
REMARK    7  A    between atoms: C_15  and  C_16
REMARK                            x       y       z     vdW  Elec       q    Type
REMARK                         _______ _______ _______ _____ _____    ______ ____
ROOT
ATOM      1  C   UNL     1       1.062   3.596   0.390  0.00  0.00    +0.083 C 
ENDROOT
BRANCH   1   2
ATOM      2  C   UNL     1       1.116   2.090   0.376  0.00  0.00    +0.111 A 
ATOM      3  N   UNL     1      -0.028   1.380   0.556  0.00  0.00    -0.310 N 
ATOM      4  H   UNL     1      -0.889   1.868   0.696  0.00  0.00    +0.170 HD
ATOM      5  C   UNL     1      -0.024   0.034   0.551  0.00  0.00    +0.260 A 
ATOM      6  O   UNL     1      -1.060  -0.588   0.714  0.00  0.00    -0.267 OA
ATOM      7  C   UNL     1       1.216  -0.654   0.350  0.00  0.00    +0.075 A 
ATOM      8  C   UNL     1       1.458  -2.096   0.306  0.00  0.00    -0.023 A 
ATOM      9  C   UNL     1       2.730  -2.498   0.102  0.00  0.00    -0.004 A 
ATOM     10  S   UNL     1       3.667  -1.000  -0.044  0.00  0.00    -0.073 S 
ATOM     11  C   UNL     1       2.344   0.163   0.172  0.00  0.00    +0.116 A 
ATOM     12  N   UNL     1       2.262   1.491   0.191  0.00  0.00    -0.227 NA
ATOM     13  C   UNL     1       3.235  -3.906   0.017  0.00  0.00    +0.043 C 
ATOM     14  C   UNL     1       2.151  -4.843   0.568  0.00  0.00    +0.005 C 
ATOM     15  C   UNL     1       0.808  -4.465  -0.064  0.00  0.00    +0.005 C 
ATOM     16  C   UNL     1       0.337  -3.117   0.482  0.00  0.00    +0.037 C 
ENDBRANCH   1   2
BRANCH   1  17
ATOM     17  C   UNL     1       2.468   4.159   0.167  0.00  0.00    +0.104 C 
BRANCH  17  19
ATOM     18  N   UNL     1       3.542   6.381   0.003  0.00  0.00    -0.285 N 
ATOM     19  C   UNL     1       2.414   5.665   0.181  0.00  0.00    +0.218 C 
ATOM     20  O   UNL     1       1.356   6.232   0.352  0.00  0.00    -0.275 OA
ATOM     21  H   UNL     1       4.398   5.930  -0.058  0.00  0.00    +0.155 HD
BRANCH  18  25
ATOM     22  C   UNL     1       3.349  10.531  -0.288  0.00  0.00    +0.059 A 
ATOM     23  C   UNL     1       4.457   9.921   0.309  0.00  0.00    +0.017 A 
ATOM     24  C   UNL     1       4.517   8.550   0.403  0.00  0.00    +0.024 A 
ATOM     25  C   UNL     1       3.477   7.770  -0.094  0.00  0.00    +0.033 A 
ATOM     26  C   UNL     1       2.376   8.373  -0.693  0.00  0.00    +0.024 A 
ATOM     27  C   UNL     1       2.306   9.745  -0.786  0.00  0.00    +0.017 A 
BRANCH  22  28
ATOM     28  C   UNL     1       3.281  12.001  -0.390  0.00  0.00    +0.339 C 
ATOM     29  O   UNL     1       4.188  12.683   0.044  0.00  0.00    -0.245 OA
BRANCH  28  31
ATOM     30  C   UNL     1       2.213  14.038  -1.032  0.00  0.00    +0.280 C 
ATOM     31  O   UNL     1       2.213  12.587  -0.966  0.00  0.00    -0.464 OA
ENDBRANCH  28  31
ENDBRANCH  22  28
ENDBRANCH  18  25
ENDBRANCH  17  19
ENDBRANCH   1  17
TORSDOF 6
