REMARK  Name = ZINC13699457
REMARK  10 active torsions:
REMARK  status: ('A' for Active; 'I' for Inactive)
REMARK    1  A    between atoms: C_1  and  C_2
REMARK    2  A    between atoms: C_2  and  N_3
REMARK    3  A    between atoms: C_4  and  C_9
REMARK    4  A    between atoms: C_6  and  C_8
REMARK    5  A    between atoms: N_11  and  C_12
REMARK    6  A    between atoms: C_12  and  C_13
REMARK    7  A    between atoms: C_13  and  C_14
REMARK    8  A    between atoms: C_14  and  N_51
REMARK    9  A    between atoms: C_15  and  N_51
REMARK   10  A    between atoms: C_16  and  N_51
REMARK                            x       y       z     vdW  Elec       q    Type
REMARK                         _______ _______ _______ _____ _____    ______ ____
ROOT
ATOM      1  C   UNL     1      -1.822   0.532   1.651  0.00  0.00    +0.270 C 
ATOM      2  O   UNL     1      -2.572   0.908   2.532  0.00  0.00    -0.268 OA
ATOM      3  N   UNL     1      -0.802   1.318   1.254  0.00  0.00    -0.245 N 
ATOM      4  C   UNL     1      -0.662   2.590   1.782  0.00  0.00    +0.168 A 
ATOM      5  N   UNL     1      -1.412   3.200   2.670  0.00  0.00    -0.221 NA
ATOM      6  C   UNL     1      -1.154   4.455   3.099  0.00  0.00    +0.115 A 
ATOM      7  C   UNL     1      -1.877   5.222   4.045  0.00  0.00    +0.150 A 
ATOM      8  C   UNL     1      -1.474   6.493   4.370  0.00  0.00    +0.040 A 
ATOM      9  C   UNL     1      -0.354   7.069   3.790  0.00  0.00    +0.004 A 
ATOM     10  C   UNL     1       0.375   6.348   2.862  0.00  0.00    +0.017 A 
ATOM     11  C   UNL     1      -0.019   5.076   2.530  0.00  0.00    +0.044 A 
ATOM     12  S   UNL     1       0.591   3.816   1.435  0.00  0.00    -0.052 S 
ATOM     13  F   UNL     1      -2.974   4.697   4.632  0.00  0.00    -0.203 F 
ENDROOT
BRANCH   1  15
ATOM     14  N   UNL     1      -2.911  -1.748   1.409  0.00  0.00    -0.259 N 
ATOM     15  C   UNL     1      -2.029  -0.780   1.019  0.00  0.00    +0.124 A 
ATOM     16  C   UNL     1      -1.366  -1.284  -0.087  0.00  0.00    +0.057 A 
ATOM     17  C   UNL     1      -1.910  -2.552  -0.298  0.00  0.00    +0.061 A 
ATOM     18  N   UNL     1      -2.819  -2.758   0.621  0.00  0.00    -0.176 NA
ATOM     19  C   UNL     1      -1.520  -3.514  -1.391  0.00  0.00    +0.067 C 
BRANCH  14  21
ATOM     20  C   UNL     1      -5.173  -1.100   2.076  0.00  0.00    +0.029 C 
ATOM     21  C   UNL     1      -3.825  -1.648   2.550  0.00  0.00    +0.141 C 
ENDBRANCH  14  21
ENDBRANCH   1  15
BRANCH   3  22
ATOM     22  C   UNL     1       0.158   0.827   0.262  0.00  0.00    +0.114 C 
BRANCH  22  23
ATOM     23  C   UNL     1      -0.348   1.155  -1.144  0.00  0.00    +0.001 C 
BRANCH  23  24
ATOM     24  C   UNL     1       0.652   0.636  -2.180  0.00  0.00    -0.078 C 
BRANCH  24  27
ATOM     25  C   UNL     1       1.291   0.801  -4.509  0.00  0.00    -0.097 C 
ATOM     26  C   UNL     1      -1.028   0.444  -3.913  0.00  0.00    -0.097 C 
ATOM     27  N   UNL     1       0.235   1.102  -3.519  0.00  0.00    +0.376 N 
ATOM     28  H   UNL     1       0.087   2.118  -3.488  0.00  0.00    -0.083 HD
ENDBRANCH  24  27
ENDBRANCH  23  24
ENDBRANCH  22  23
ENDBRANCH   3  22
TORSDOF 6
