REMARK  Name = ZINC00739076
REMARK  12 active torsions:
REMARK  status: ('A' for Active; 'I' for Inactive)
REMARK    1  A    between atoms: C_1  and  C_2
REMARK    2  A    between atoms: C_2  and  C_3
REMARK    3  A    between atoms: C_3  and  N_4
REMARK    4  A    between atoms: N_4  and  C_5
REMARK    5  A    between atoms: C_5  and  C_6
REMARK    6  A    between atoms: N_8  and  C_9
REMARK    7  A    between atoms: C_10  and  C_23
REMARK    8  A    between atoms: C_11  and  C_22
REMARK    9  A    between atoms: N_13  and  C_14
REMARK   10  A    between atoms: C_17  and  O_20
REMARK   11  A    between atoms: O_20  and  C_21
REMARK   12  A    between atoms: N_31  and  C_32
REMARK                            x       y       z     vdW  Elec       q    Type
REMARK                         _______ _______ _______ _____ _____    ______ ____
ROOT
ATOM      1  C   UNL     1      -1.453   1.025   5.246  0.00  0.00    +0.137 A 
ATOM      2  C   UNL     1      -1.827   1.425   3.975  0.00  0.00    +0.045 A 
ATOM      3  C   UNL     1      -1.403   0.425   3.079  0.00  0.00    +0.070 A 
ATOM      4  N   UNL     1      -0.817  -0.521   3.763  0.00  0.00    -0.169 NA
ATOM      5  N   UNL     1      -0.826  -0.175   5.120  0.00  0.00    -0.218 N 
ATOM      6  C   UNL     1      -1.599   0.440   1.585  0.00  0.00    +0.068 C 
ENDROOT
BRANCH   5   7
ATOM      7  C   UNL     1      -0.287  -0.936   6.167  0.00  0.00    +0.068 A 
ATOM      8  C   UNL     1       0.451  -0.317   7.167  0.00  0.00    +0.031 A 
ATOM      9  C   UNL     1       0.976  -1.067   8.201  0.00  0.00    +0.048 A 
ATOM     10  C   UNL     1       0.776  -2.439   8.235  0.00  0.00    +0.120 A 
ATOM     11  C   UNL     1       0.044  -3.059   7.233  0.00  0.00    +0.048 A 
ATOM     12  C   UNL     1      -0.487  -2.310   6.201  0.00  0.00    +0.031 A 
BRANCH  10  13
ATOM     13  O   UNL     1       1.298  -3.177   9.250  0.00  0.00    -0.495 OA
ATOM     14  C   UNL     1       2.139  -2.495  10.182  0.00  0.00    +0.277 C 
ENDBRANCH  10  13
ENDBRANCH   5   7
BRANCH   2  15
ATOM     15  C   UNL     1      -2.541   2.676   3.623  0.00  0.00    -0.013 A 
ATOM     16  C   UNL     1      -1.946   3.913   3.864  0.00  0.00    +0.008 A 
ATOM     17  C   UNL     1      -2.613   5.074   3.528  0.00  0.00    +0.001 A 
ATOM     18  C   UNL     1      -3.875   5.011   2.964  0.00  0.00    +0.000 A 
ATOM     19  C   UNL     1      -4.473   3.786   2.727  0.00  0.00    +0.001 A 
ATOM     20  C   UNL     1      -3.813   2.619   3.054  0.00  0.00    +0.008 A 
ENDBRANCH   2  15
BRANCH   1  23
ATOM     21  C   UNL     1      -2.933   2.055   6.788  0.00  0.00    +0.236 C 
ATOM     22  O   UNL     1      -3.870   1.720   6.095  0.00  0.00    -0.274 OA
ATOM     23  N   UNL     1      -1.677   1.720   6.431  0.00  0.00    -0.268 N 
ATOM     24  H   UNL     1      -0.930   1.962   6.999  0.00  0.00    +0.156 HD
BRANCH  21  25
ATOM     25  C   UNL     1      -3.172   2.846   8.048  0.00  0.00    +0.205 C 
BRANCH  25  26
ATOM     26  N   UNL     1      -4.603   3.129   8.183  0.00  0.00    -0.277 N 
ATOM     27  C   UNL     1      -5.444   2.165   8.606  0.00  0.00    +0.303 C 
ATOM     28  O   UNL     1      -5.004   1.089   8.963  0.00  0.00    -0.253 OA
ATOM     29  N   UNL     1      -6.772   2.393   8.633  0.00  0.00    -0.296 N 
ATOM     30  H   UNL     1      -7.129   3.223   8.280  0.00  0.00    +0.151 HD
BRANCH  29  31
ATOM     31  C   UNL     1      -7.676   1.387   9.196  0.00  0.00    +0.074 C 
ATOM     32  C   UNL     1      -7.979   0.324   8.138  0.00  0.00    +0.022 C 
ATOM     33  C   UNL     1      -8.923  -0.726   8.726  0.00  0.00    +0.002 C 
ATOM     34  C   UNL     1     -10.227  -0.053   9.160  0.00  0.00    +0.000 C 
ATOM     35  C   UNL     1      -9.925   1.010  10.218  0.00  0.00    +0.002 C 
ATOM     36  C   UNL     1      -8.980   2.060   9.630  0.00  0.00    +0.022 C 
ENDBRANCH  29  31
BRANCH  26  37
ATOM     37  C   UNL     1      -5.120   4.461   7.858  0.00  0.00    +0.109 C 
BRANCH  37  39
ATOM     38  C   UNL     1      -6.339   5.803   6.139  0.00  0.00    +0.005 C 
ATOM     39  C   UNL     1      -5.660   4.463   6.426  0.00  0.00    +0.016 C 
ENDBRANCH  37  39
ENDBRANCH  26  37
ENDBRANCH  25  26
ENDBRANCH  21  25
ENDBRANCH   1  23
TORSDOF 9
