REMARK  Name = ZINC41572418
REMARK  6 active torsions:
REMARK  status: ('A' for Active; 'I' for Inactive)
REMARK    1  A    between atoms: C_1  and  C_2
REMARK    2  A    between atoms: C_2  and  C_3
REMARK    3  A    between atoms: C_2  and  C_4
REMARK    4  A    between atoms: C_2  and  C_5
REMARK    5  A    between atoms: N_10  and  S_11
REMARK    6  A    between atoms: S_11  and  C_14
REMARK                            x       y       z     vdW  Elec       q    Type
REMARK                         _______ _______ _______ _____ _____    ______ ____
ROOT
ATOM      1  C   UNL     1       0.707  -0.490  -1.238  0.00  0.00    +0.030 A 
ATOM      2  C   UNL     1       1.198   0.390  -2.111  0.00  0.00    +0.070 A 
ATOM      3  S   UNL     1       1.910  -0.674  -3.356  0.00  0.00    -0.057 S 
ATOM      4  C   UNL     1       1.493  -2.241  -2.606  0.00  0.00    +0.192 A 
ATOM      5  N   UNL     1       0.847  -1.829  -1.460  0.00  0.00    -0.336 N 
ATOM      6  N   UNL     1       1.740  -3.456  -3.029  0.00  0.00    -0.103 NA
ATOM      7  H   UNL     1       0.497  -2.476  -0.828  0.00  0.00    +0.168 HD
ENDROOT
BRANCH   1   9
ATOM      8  C   UNL     1      -0.019   1.526   0.010  0.00  0.00    +0.017 C 
ATOM      9  C   UNL     1       0.002  -0.004   0.002  0.00  0.00    +0.003 C 
ATOM     10  C   UNL     1       0.742  -0.511   1.242  0.00  0.00    +0.017 C 
ATOM     11  C   UNL     1      -1.433  -0.534   0.013  0.00  0.00    +0.017 C 
ENDBRANCH   1   9
BRANCH   6  12
ATOM     12  S   UNL     1       2.550  -3.689  -4.454  0.00  0.00    +0.107 S 
ATOM     13  O   UNL     1       1.702  -3.206  -5.487  0.00  0.00    -0.146 OA
ATOM     14  O   UNL     1       3.868  -3.194  -4.257  0.00  0.00    -0.146 OA
BRANCH  12  15
ATOM     15  C   UNL     1       2.695  -5.428  -4.693  0.00  0.00    +0.151 A 
ATOM     16  C   UNL     1       1.853  -6.275  -5.333  0.00  0.00    +0.038 A 
ATOM     17  C   UNL     1       2.173  -7.618  -5.399  0.00  0.00    +0.030 A 
ATOM     18  C   UNL     1       3.322  -8.049  -4.820  0.00  0.00    +0.080 A 
ATOM     19  S   UNL     1       3.994  -6.531  -4.162  0.00  0.00    -0.056 S 
ATOM     20 CL   UNL     1       3.972  -9.656  -4.744  0.00  0.00    -0.076 Cl
ENDBRANCH  12  15
ENDBRANCH   6  12
TORSDOF 3
