REMARK  Name = ZINC09933824
REMARK  10 active torsions:
REMARK  status: ('A' for Active; 'I' for Inactive)
REMARK    1  A    between atoms: C_1  and  C_2
REMARK    2  A    between atoms: C_4  and  C_19
REMARK    3  A    between atoms: C_5  and  C_18
REMARK    4  A    between atoms: N_6  and  C_7
REMARK    5  A    between atoms: C_8  and  C_16
REMARK    6  A    between atoms: N_20  and  N_21
REMARK    7  A    between atoms: C_22  and  C_24
REMARK    8  A    between atoms: C_24  and  O_25
REMARK    9  A    between atoms: O_25  and  C_26
REMARK   10  A    between atoms: C_31  and  N_32
REMARK                            x       y       z     vdW  Elec       q    Type
REMARK                         _______ _______ _______ _____ _____    ______ ____
ROOT
ATOM      1  C   UNL     1      -1.123  -9.809  -0.907  0.00  0.00    +0.064 C 
ATOM      2  C   UNL     1      -1.452  -8.448  -0.348  0.00  0.00    +0.022 A 
ATOM      3  C   UNL     1      -2.685  -7.918  -0.255  0.00  0.00    +0.032 A 
ATOM      4  C   UNL     1      -2.525  -6.588   0.341  0.00  0.00    +0.016 A 
ATOM      5  C   UNL     1      -1.189  -6.427   0.569  0.00  0.00    +0.030 A 
ATOM      6  N   UNL     1      -0.547  -7.553   0.151  0.00  0.00    -0.311 N 
ATOM      7  C   UNL     1      -0.536  -5.213   1.178  0.00  0.00    +0.064 C 
ENDROOT
BRANCH   6   8
ATOM      8  C   UNL     1       0.825  -7.762   0.221  0.00  0.00    +0.099 A 
ATOM      9  C   UNL     1       1.513  -8.747   0.915  0.00  0.00    +0.098 A 
ATOM     10  C   UNL     1       2.963  -8.747   0.821  0.00  0.00    -0.021 A 
ATOM     11  C   UNL     1       3.490  -7.762   0.061  0.00  0.00    -0.004 A 
ATOM     12  S   UNL     1       2.093  -6.850  -0.529  0.00  0.00    -0.075 S 
ATOM     13  C   UNL     1       4.941  -7.511  -0.212  0.00  0.00    +0.043 C 
ATOM     14  C   UNL     1       5.770  -8.312   0.802  0.00  0.00    +0.005 C 
ATOM     15  C   UNL     1       5.235  -9.746   0.852  0.00  0.00    +0.005 C 
ATOM     16  C   UNL     1       3.858  -9.765   1.518  0.00  0.00    +0.037 C 
BRANCH   9  17
ATOM     17  C   UNL     1       0.803  -9.753   1.710  0.00  0.00    +0.389 C 
ATOM     18  O   UNL     1       0.564 -10.847   1.235  0.00  0.00    -0.240 OA
ATOM     19  O   UNL     1       0.415  -9.466   2.970  0.00  0.00    -0.240 OA
ENDBRANCH   9  17
ENDBRANCH   6   8
BRANCH   4  20
ATOM     20  C   UNL     1      -3.595  -5.619   0.639  0.00  0.00    +0.140 C 
ATOM     21  N   UNL     1      -4.823  -6.024   0.756  0.00  0.00    -0.188 NA
BRANCH  21  22
ATOM     22  N   UNL     1      -5.108  -7.395   0.792  0.00  0.00    -0.204 N 
ATOM     23  C   UNL     1      -6.388  -7.818   0.780  0.00  0.00    +0.270 C 
ATOM     24  O   UNL     1      -7.293  -7.011   0.738  0.00  0.00    -0.270 OA
ATOM     25  H   UNL     1      -4.385  -8.040   0.825  0.00  0.00    +0.177 HD
BRANCH  23  26
ATOM     26  C   UNL     1      -6.695  -9.293   0.818  0.00  0.00    +0.326 C 
BRANCH  26  27
ATOM     27  O   UNL     1      -8.111  -9.486   0.797  0.00  0.00    -0.480 OA
BRANCH  27  28
ATOM     28  C   UNL     1      -8.559 -10.768   0.827  0.00  0.00    +0.151 A 
ATOM     29  C   UNL     1      -7.655 -11.819   0.876  0.00  0.00    +0.048 A 
ATOM     30  C   UNL     1      -8.113 -13.122   0.906  0.00  0.00    +0.004 A 
ATOM     31  C   UNL     1      -9.472 -13.379   0.888  0.00  0.00    +0.002 A 
ATOM     32  C   UNL     1     -10.375 -12.333   0.839  0.00  0.00    +0.036 A 
ATOM     33  C   UNL     1      -9.921 -11.028   0.808  0.00  0.00    +0.168 A 
BRANCH  33  34
ATOM     34  N   UNL     1     -10.889  -9.909   0.762  0.00  0.00    +0.060 N 
ATOM     35  O   UNL     1     -12.085 -10.138   0.745  0.00  0.00    -0.126 OA
ATOM     36  O   UNL     1     -10.488  -8.759   0.740  0.00  0.00    -0.126 OA
ENDBRANCH  33  34
ENDBRANCH  27  28
ENDBRANCH  26  27
ENDBRANCH  23  26
ENDBRANCH  21  22
ENDBRANCH   4  20
TORSDOF 8
