REMARK  Name = ZINC10249121
REMARK  10 active torsions:
REMARK  status: ('A' for Active; 'I' for Inactive)
REMARK    1  A    between atoms: C_1  and  C_2
REMARK    2  A    between atoms: C_6  and  S_8
REMARK    3  A    between atoms: S_8  and  C_9
REMARK    4  A    between atoms: C_9  and  C_10
REMARK    5  A    between atoms: C_10  and  C_12
REMARK    6  A    between atoms: C_10  and  C_13
REMARK    7  A    between atoms: C_13  and  N_14
REMARK    8  A    between atoms: N_22  and  C_36
REMARK    9  A    between atoms: C_28  and  C_35
REMARK   10  A    between atoms: C_31  and  C_34
REMARK                            x       y       z     vdW  Elec       q    Type
REMARK                         _______ _______ _______ _____ _____    ______ ____
ROOT
ATOM      1  N   UNL     1      -2.063   0.978   1.340  0.00  0.00    -0.306 N 
ATOM      2  C   UNL     1      -2.383  -0.266   1.869  0.00  0.00    +0.153 A 
ATOM      3  C   UNL     1      -1.643  -1.300   2.470  0.00  0.00    +0.280 A 
ATOM      4  O   UNL     1      -0.438  -1.192   2.612  0.00  0.00    -0.265 OA
ATOM      5  N   UNL     1      -2.282  -2.412   2.887  0.00  0.00    -0.273 N 
ATOM      6  H   UNL     1      -1.759  -3.149   3.315  0.00  0.00    +0.173 HD
ATOM      7  C   UNL     1      -3.611  -2.545   2.737  0.00  0.00    +0.331 A 
ATOM      8  O   UNL     1      -4.154  -3.562   3.124  0.00  0.00    -0.246 OA
ATOM      9  N   UNL     1      -4.357  -1.579   2.167  0.00  0.00    -0.280 N 
ATOM     10  C   UNL     1      -3.757  -0.413   1.718  0.00  0.00    +0.170 A 
ATOM     11  N   UNL     1      -4.218   0.692   1.129  0.00  0.00    -0.196 NA
ATOM     12  C   UNL     1      -3.226   1.528   0.903  0.00  0.00    +0.201 A 
ATOM     13  N   UNL     1      -3.348   2.766   0.314  0.00  0.00    -0.300 N 
ATOM     14  C   UNL     1      -3.366   3.831   1.325  0.00  0.00    +0.111 C 
ATOM     15  C   UNL     1      -3.356   5.195   0.631  0.00  0.00    +0.004 C 
ATOM     16  C   UNL     1      -4.582   5.308  -0.280  0.00  0.00    +0.009 C 
ATOM     17  C   UNL     1      -4.564   4.160  -1.292  0.00  0.00    +0.004 C 
ATOM     18  C   UNL     1      -4.539   2.825  -0.542  0.00  0.00    +0.111 C 
ATOM     19  C   UNL     1      -5.817   4.231  -2.167  0.00  0.00    +0.009 C 
ATOM     20  C   UNL     1      -2.083   5.332  -0.207  0.00  0.00    +0.009 C 
ATOM     21  C   UNL     1      -5.803  -1.761   2.021  0.00  0.00    +0.155 C 
ENDROOT
BRANCH   1  22
ATOM     22  C   UNL     1      -0.730   1.582   1.272  0.00  0.00    +0.129 C 
BRANCH  22  23
ATOM     23  C   UNL     1      -0.005   1.079   0.021  0.00  0.00    +0.016 C 
ATOM     24  C   UNL     1      -0.739   1.574  -1.227  0.00  0.00    +0.010 C 
BRANCH  23  25
ATOM     25  C   UNL     1       1.429   1.610   0.015  0.00  0.00    +0.082 C 
BRANCH  25  26
ATOM     26  S   UNL     1       2.330   0.898  -1.385  0.00  0.00    -0.086 S 
BRANCH  26  32
ATOM     27  C   UNL     1       7.184   1.628  -2.833  0.00  0.00    +0.066 C 
ATOM     28  C   UNL     1       6.075   1.941  -1.862  0.00  0.00    +0.043 A 
ATOM     29  C   UNL     1       6.292   2.814  -0.807  0.00  0.00    +0.043 A 
ATOM     30  C   UNL     1       5.246   3.076   0.064  0.00  0.00    +0.115 A 
ATOM     31  N   UNL     1       4.076   2.492  -0.140  0.00  0.00    -0.230 NA
ATOM     32  C   UNL     1       3.903   1.658  -1.155  0.00  0.00    +0.188 A 
ATOM     33  N   UNL     1       4.883   1.387  -2.005  0.00  0.00    -0.227 NA
ENDBRANCH  26  32
ENDBRANCH  25  26
ENDBRANCH  23  25
ENDBRANCH  22  23
ENDBRANCH   1  22
TORSDOF 5
