REMARK  Name = ZINC12288017
REMARK  9 active torsions:
REMARK  status: ('A' for Active; 'I' for Inactive)
REMARK    1  A    between atoms: C_1  and  C_2
REMARK    2  A    between atoms: C_2  and  C_3
REMARK    3  A    between atoms: N_9  and  S_10
REMARK    4  A    between atoms: S_10  and  C_13
REMARK    5  A    between atoms: C_16  and  C_19
REMARK    6  A    between atoms: C_19  and  N_21
REMARK    7  A    between atoms: N_23  and  C_34
REMARK    8  A    between atoms: C_26  and  N_31
REMARK    9  A    between atoms: C_34  and  C_35
REMARK                            x       y       z     vdW  Elec       q    Type
REMARK                         _______ _______ _______ _____ _____    ______ ____
ROOT
ATOM      1  C   UNL     1       4.513  -8.748   1.453  0.00  0.00    +0.106 A 
ATOM      2  C   UNL     1       5.256  -7.598   1.655  0.00  0.00    +0.029 A 
ATOM      3  C   UNL     1       4.663  -6.359   1.525  0.00  0.00    +0.015 A 
ATOM      4  C   UNL     1       3.313  -6.266   1.189  0.00  0.00    +0.039 A 
ATOM      5  C   UNL     1       2.568  -7.429   0.992  0.00  0.00    +0.015 A 
ATOM      6  C   UNL     1       3.173  -8.662   1.120  0.00  0.00    +0.029 A 
ENDROOT
BRANCH   1   7
ATOM      7  S   UNL     1       5.276 -10.326   1.622  0.00  0.00    +0.061 S 
ATOM      8  O   UNL     1       4.378 -11.274   1.062  0.00  0.00    -0.153 OA
ATOM      9  O   UNL     1       6.614 -10.182   1.165  0.00  0.00    -0.153 OA
BRANCH   7  15
ATOM     10  C   UNL     1       4.195 -11.182   3.963  0.00  0.00    +0.080 C 
ATOM     11  C   UNL     1       3.919 -10.286   5.175  0.00  0.00    +0.021 C 
ATOM     12  C   UNL     1       5.187 -10.182   6.025  0.00  0.00    +0.003 C 
ATOM     13  C   UNL     1       6.307  -9.545   5.198  0.00  0.00    +0.017 C 
ATOM     14  C   UNL     1       6.611 -10.438   3.986  0.00  0.00    +0.110 C 
ATOM     15  N   UNL     1       5.363 -10.658   3.243  0.00  0.00    -0.174 NA
BRANCH  10  17
ATOM     16  C   UNL     1       1.731 -11.578   3.829  0.00  0.00    +0.005 C 
ATOM     17  C   UNL     1       2.978 -11.183   3.035  0.00  0.00    +0.017 C 
ENDBRANCH  10  17
ENDBRANCH   7  15
ENDBRANCH   1   7
BRANCH   4  18
ATOM     18  C   UNL     1       2.671  -4.939   1.048  0.00  0.00    +0.269 C 
ATOM     19  O   UNL     1       3.322  -3.925   1.227  0.00  0.00    -0.268 OA
BRANCH  18  20
ATOM     20  N   UNL     1       1.376  -4.853   0.726  0.00  0.00    -0.152 NA
ATOM     21  C   UNL     1       0.800  -3.663   0.600  0.00  0.00    +0.167 A 
ATOM     22  N   UNL     1      -0.492  -3.380   0.281  0.00  0.00    -0.321 N 
ATOM     23  C   UNL     1      -0.913  -2.066   0.196  0.00  0.00    +0.060 A 
ATOM     24  C   UNL     1      -2.192  -1.580  -0.116  0.00  0.00    +0.059 A 
ATOM     25  C   UNL     1      -2.440  -0.229  -0.158  0.00  0.00    +0.128 A 
ATOM     26  C   UNL     1      -1.441   0.693   0.106  0.00  0.00    +0.034 A 
ATOM     27  C   UNL     1      -0.170   0.242   0.417  0.00  0.00    +0.019 A 
ATOM     28  C   UNL     1       0.079  -1.110   0.459  0.00  0.00    +0.039 A 
ATOM     29  S   UNL     1       1.514  -2.095   0.803  0.00  0.00    -0.052 S 
BRANCH  25  30
ATOM     30  N   UNL     1      -3.799   0.251  -0.497  0.00  0.00    +0.056 N 
ATOM     31  O   UNL     1      -4.685  -0.550  -0.736  0.00  0.00    -0.126 OA
ATOM     32  O   UNL     1      -4.031   1.446  -0.537  0.00  0.00    -0.126 OA
ENDBRANCH  25  30
BRANCH  22  33
ATOM     33  C   UNL     1      -1.438  -4.469   0.029  0.00  0.00    +0.121 C 
ATOM     34  C   UNL     1      -0.722  -5.609  -0.699  0.00  0.00    +0.027 C 
ENDBRANCH  22  33
ENDBRANCH  18  20
ENDBRANCH   4  18
TORSDOF 7
