REMARK  Name = ZINC40598997
REMARK  6 active torsions:
REMARK  status: ('A' for Active; 'I' for Inactive)
REMARK    1  A    between atoms: C_1  and  N_2
REMARK    2  A    between atoms: N_2  and  C_3
REMARK    3  A    between atoms: C_3  and  C_4
REMARK    4  A    between atoms: N_9  and  C_11
REMARK    5  A    between atoms: C_11  and  C_12
REMARK    6  A    between atoms: C_15  and  C_17
REMARK                            x       y       z     vdW  Elec       q    Type
REMARK                         _______ _______ _______ _____ _____    ______ ____
ROOT
ATOM      1  C   UNL     1       1.804  -4.486  -3.830  0.00  0.00    +0.182 C 
ENDROOT
BRANCH   1   6
ATOM      2  C   UNL     1       0.710  -2.008  -1.215  0.00  0.00    -0.014 C 
ATOM      3  C   UNL     1       1.558  -2.514  -0.045  0.00  0.00    +0.004 C 
ATOM      4  C   UNL     1       1.623  -4.043  -0.095  0.00  0.00    +0.016 C 
ATOM      5  C   UNL     1       2.203  -4.479  -1.443  0.00  0.00    +0.085 C 
ATOM      6  N   UNL     1       1.357  -3.971  -2.529  0.00  0.00    -0.294 NA
ATOM      7  C   UNL     1       1.316  -2.503  -2.530  0.00  0.00    +0.086 C 
BRANCH   2   8
ATOM      8  C   UNL     1       0.690  -0.478  -1.207  0.00  0.00    -0.078 C 
BRANCH   8  10
ATOM      9  C   UNL     1      -0.018   1.465   0.010  0.00  0.00    -0.100 C 
ATOM     10  N   UNL     1       0.002  -0.004   0.002  0.00  0.00    +0.377 N 
ATOM     11  H   UNL     1       0.490  -0.338   0.820  0.00  0.00    -0.086 HD
ATOM     12  H   UNL     1      -0.945  -0.353   0.009  0.00  0.00    -0.086 HD
ENDBRANCH   8  10
ENDBRANCH   2   8
ENDBRANCH   1   6
BRANCH   1  13
ATOM     13  C   UNL     1       1.594  -5.977  -3.880  0.00  0.00    +0.232 A 
ATOM     14  N   UNL     1       0.524  -6.590  -4.301  0.00  0.00    -0.111 NA
ATOM     15  N   UNL     1       0.688  -7.862  -4.204  0.00  0.00    -0.104 NA
ATOM     16  C   UNL     1       1.883  -8.108  -3.712  0.00  0.00    +0.284 A 
ATOM     17  O   UNL     1       2.480  -6.917  -3.502  0.00  0.00    -0.417 OA
BRANCH  16  18
ATOM     18  C   UNL     1       2.460  -9.433  -3.445  0.00  0.00    +0.192 A 
ATOM     19  C   UNL     1       1.852 -10.632  -3.670  0.00  0.00    +0.056 A 
ATOM     20  C   UNL     1       2.762 -11.629  -3.273  0.00  0.00    +0.058 A 
ATOM     21  C   UNL     1       3.870 -11.000  -2.828  0.00  0.00    +0.171 A 
ATOM     22  O   UNL     1       3.687  -9.675  -2.939  0.00  0.00    -0.443 OA
ATOM     23 BR   UNL     1       5.427 -11.846  -2.167  0.00  0.00    -0.008 Br
ENDBRANCH  16  18
ENDBRANCH   1  13
TORSDOF 5
