REMARK  Name = ZINC03764187
REMARK  12 active torsions:
REMARK  status: ('A' for Active; 'I' for Inactive)
REMARK    1  A    between atoms: C_1  and  C_2
REMARK    2  A    between atoms: C_5  and  N_9
REMARK    3  A    between atoms: C_6  and  C_8
REMARK    4  A    between atoms: C_10  and  C_12
REMARK    5  A    between atoms: C_17  and  C_20
REMARK    6  A    between atoms: C_20  and  C_21
REMARK    7  A    between atoms: C_21  and  O_23
REMARK    8  A    between atoms: O_23  and  C_24
REMARK    9  A    between atoms: C_25  and  N_41
REMARK   10  A    between atoms: C_26  and  C_39
REMARK   11  A    between atoms: C_27  and  C_29
REMARK   12  A    between atoms: C_32  and  C_35
REMARK                            x       y       z     vdW  Elec       q    Type
REMARK                         _______ _______ _______ _____ _____    ______ ____
ROOT
ATOM      1  C   UNL     1      -1.627  -4.814   3.352  0.00  0.00    +0.055 C 
ATOM      2  C   UNL     1      -1.685  -4.082   2.209  0.00  0.00    +0.086 C 
ATOM      3  N   UNL     1      -2.739  -4.114   1.315  0.00  0.00    -0.220 N 
ATOM      4  C   UNL     1      -2.686  -3.341   0.210  0.00  0.00    +0.239 C 
ATOM      5  O   UNL     1      -3.589  -3.338  -0.600  0.00  0.00    -0.274 OA
ATOM      6  C   UNL     1      -1.459  -2.480   0.020  0.00  0.00    +0.150 C 
ATOM      7  S   UNL     1      -0.513  -2.923   1.528  0.00  0.00    -0.096 S 
ATOM      8  C   UNL     1      -3.832  -4.951   1.588  0.00  0.00    +0.110 C 
ATOM      9  C   UNL     1      -3.923  -5.739   2.680  0.00  0.00    +0.077 C 
ATOM     10  C   UNL     1      -2.787  -5.730   3.682  0.00  0.00    +0.100 C 
ENDROOT
BRANCH  10  11
ATOM     11  C   UNL     1      -3.346  -5.320   5.020  0.00  0.00    -0.035 A 
ATOM     12  C   UNL     1      -3.839  -4.041   5.200  0.00  0.00    +0.005 A 
ATOM     13  C   UNL     1      -4.356  -3.666   6.426  0.00  0.00    +0.012 A 
ATOM     14  C   UNL     1      -4.372  -4.567   7.475  0.00  0.00    +0.055 A 
ATOM     15  C   UNL     1      -3.874  -5.844   7.296  0.00  0.00    +0.012 A 
ATOM     16  C   UNL     1      -3.361  -6.221   6.069  0.00  0.00    +0.005 A 
BRANCH  14  17
ATOM     17  C   UNL     1      -4.932  -4.157   8.812  0.00  0.00    +0.417 C 
ATOM     18  F   UNL     1      -3.910  -3.616   9.600  0.00  0.00    -0.166 F 
ATOM     19  F   UNL     1      -5.933  -3.198   8.624  0.00  0.00    -0.166 F 
ATOM     20  F   UNL     1      -5.473  -5.276   9.454  0.00  0.00    -0.166 F 
ENDBRANCH  14  17
ENDBRANCH  10  11
BRANCH   1  22
ATOM     21  N   UNL     1      -0.475  -5.455   5.338  0.00  0.00    -0.281 N 
ATOM     22  C   UNL     1      -0.517  -4.722   4.208  0.00  0.00    +0.248 C 
ATOM     23  O   UNL     1       0.409  -3.979   3.928  0.00  0.00    -0.270 OA
ATOM     24  H   UNL     1      -1.171  -6.106   5.520  0.00  0.00    +0.155 HD
BRANCH  21  29
ATOM     25  C   UNL     1       3.772  -4.737   9.029  0.00  0.00    +0.044 C 
ATOM     26  C   UNL     1       2.643  -4.928   8.049  0.00  0.00    -0.050 A 
ATOM     27  C   UNL     1       2.158  -3.846   7.337  0.00  0.00    +0.005 A 
ATOM     28  C   UNL     1       1.124  -4.018   6.437  0.00  0.00    +0.024 A 
ATOM     29  C   UNL     1       0.572  -5.278   6.248  0.00  0.00    +0.037 A 
ATOM     30  C   UNL     1       1.058  -6.361   6.968  0.00  0.00    -0.029 A 
ATOM     31  C   UNL     1       2.096  -6.184   7.863  0.00  0.00    +0.008 A 
ATOM     32  C   UNL     1       0.458  -7.729   6.771  0.00  0.00    +0.045 C 
ENDBRANCH  21  29
ENDBRANCH   1  22
BRANCH   8  33
ATOM     33  N   UNL     1      -4.871  -4.970   0.689  0.00  0.00    -0.345 N 
ATOM     34  H   UNL     1      -5.761  -5.217   0.983  0.00  0.00    +0.144 HD
ATOM     35  H   UNL     1      -4.713  -4.737  -0.239  0.00  0.00    +0.144 HD
ENDBRANCH   8  33
BRANCH   9  36
ATOM     36  C   UNL     1      -5.073  -6.566   2.888  0.00  0.00    +0.099 C 
ATOM     37  N   UNL     1      -5.985  -7.223   3.053  0.00  0.00    -0.191 NA
ENDBRANCH   9  36
BRANCH   6  38
ATOM     38  C   UNL     1      -1.821  -0.993   0.010  0.00  0.00    +0.144 C 
BRANCH  38  39
ATOM     39  C   UNL     1      -0.565  -0.171  -0.115  0.00  0.00    +0.308 C 
ATOM     40  O   UNL     1       0.510  -0.717  -0.188  0.00  0.00    -0.251 OA
BRANCH  39  41
ATOM     41  O   UNL     1      -0.640   1.169  -0.144  0.00  0.00    -0.468 OA
ATOM     42  C   UNL     1       0.611   1.897  -0.266  0.00  0.00    +0.280 C 
ENDBRANCH  39  41
ENDBRANCH  38  39
ENDBRANCH   6  38
TORSDOF 9
