REMARK  Name = ZINC35723706
REMARK  13 active torsions:
REMARK  status: ('A' for Active; 'I' for Inactive)
REMARK    1  A    between atoms: C_1  and  C_2
REMARK    2  A    between atoms: C_2  and  C_3
REMARK    3  A    between atoms: C_3  and  C_4
REMARK    4  A    between atoms: C_4  and  O_5
REMARK    5  A    between atoms: O_5  and  C_6
REMARK    6  A    between atoms: C_9  and  C_12
REMARK    7  A    between atoms: N_14  and  C_15
REMARK    8  A    between atoms: C_15  and  C_17
REMARK    9  A    between atoms: C_15  and  C_22
REMARK   10  A    between atoms: C_17  and  C_19
REMARK   11  A    between atoms: C_17  and  C_20
REMARK   12  A    between atoms: C_20  and  C_21
REMARK   13  A    between atoms: C_28  and  C_30
REMARK                            x       y       z     vdW  Elec       q    Type
REMARK                         _______ _______ _______ _____ _____    ______ ____
ROOT
ATOM      1  C   UNL     1      -4.870  -9.893  -0.201  0.00  0.00    +0.162 C 
ENDROOT
BRANCH   1   2
ATOM      2  C   UNL     1      -6.207 -10.295  -0.769  0.00  0.00    +0.239 C 
ATOM      3  O   UNL     1      -6.975  -9.446  -1.171  0.00  0.00    -0.273 OA
ATOM      4  N   UNL     1      -6.549 -11.597  -0.832  0.00  0.00    -0.262 N 
ATOM      5  C   UNL     1      -7.734 -11.975  -1.451  0.00  0.00    +0.188 A 
ATOM      6  N   UNL     1      -8.662 -11.233  -2.042  0.00  0.00    -0.125 NA
ATOM      7  N   UNL     1      -9.692 -11.742  -2.562  0.00  0.00    -0.140 NA
ATOM      8  C   UNL     1      -9.910 -13.052  -2.547  0.00  0.00    +0.134 A 
ATOM      9  S   UNL     1      -8.441 -13.603  -1.684  0.00  0.00    -0.030 S 
ATOM     10  H   UNL     1      -5.967 -12.270  -0.446  0.00  0.00    +0.157 HD
BRANCH   8  11
ATOM     11  C   UNL     1     -11.040 -13.832  -3.094  0.00  0.00    +0.009 A 
ATOM     12  C   UNL     1     -11.064 -15.221  -2.956  0.00  0.00    +0.012 A 
ATOM     13  C   UNL     1     -12.121 -15.944  -3.468  0.00  0.00    +0.020 A 
ATOM     14  C   UNL     1     -13.158 -15.295  -4.117  0.00  0.00    +0.041 A 
ATOM     15  C   UNL     1     -13.140 -13.917  -4.257  0.00  0.00    +0.020 A 
ATOM     16  C   UNL     1     -12.091 -13.183  -3.744  0.00  0.00    +0.012 A 
ATOM     17 CL   UNL     1     -14.485 -16.211  -4.760  0.00  0.00    -0.084 Cl
ENDBRANCH   8  11
ENDBRANCH   1   2
BRANCH   1  20
ATOM     18  C   UNL     1      -3.217  -8.191  -0.756  0.00  0.00    +0.245 C 
ATOM     19  O   UNL     1      -2.347  -8.965  -0.408  0.00  0.00    -0.270 OA
ATOM     20  N   UNL     1      -4.512  -8.560  -0.691  0.00  0.00    -0.300 N 
ATOM     21  H   UNL     1      -5.207  -7.942  -0.968  0.00  0.00    +0.150 HD
BRANCH  18  25
ATOM     22  C   UNL     1      -2.179  -4.326  -2.176  0.00  0.00    +0.121 A 
ATOM     23  C   UNL     1      -1.182  -5.210  -1.779  0.00  0.00    +0.046 A 
ATOM     24  C   UNL     1      -1.515  -6.464  -1.317  0.00  0.00    +0.016 A 
ATOM     25  C   UNL     1      -2.856  -6.848  -1.249  0.00  0.00    +0.037 A 
ATOM     26  C   UNL     1      -3.856  -5.957  -1.649  0.00  0.00    +0.016 A 
ATOM     27  C   UNL     1      -3.515  -4.702  -2.105  0.00  0.00    +0.046 A 
BRANCH  22  28
ATOM     28  O   UNL     1      -1.847  -3.091  -2.630  0.00  0.00    -0.492 OA
BRANCH  28  29
ATOM     29  C   UNL     1      -0.456  -2.770  -2.678  0.00  0.00    +0.229 C 
BRANCH  29  30
ATOM     30  C   UNL     1      -0.279  -1.347  -3.212  0.00  0.00    +0.041 C 
BRANCH  30  32
ATOM     31  C   UNL     1       1.388   0.420  -3.797  0.00  0.00    +0.004 C 
ATOM     32  C   UNL     1       1.211  -1.002  -3.263  0.00  0.00    -0.000 C 
ENDBRANCH  30  32
ENDBRANCH  29  30
ENDBRANCH  28  29
ENDBRANCH  22  28
ENDBRANCH  18  25
ENDBRANCH   1  20
BRANCH   1  33
ATOM     33  C   UNL     1      -4.952  -9.871   1.327  0.00  0.00    +0.015 C 
ATOM     34  C   UNL     1      -5.904  -8.758   1.770  0.00  0.00    +0.010 C 
BRANCH  33  35
ATOM     35  C   UNL     1      -3.560  -9.613   1.908  0.00  0.00    +0.002 C 
ATOM     36  C   UNL     1      -2.641 -10.789   1.571  0.00  0.00    +0.004 C 
ENDBRANCH  33  35
ENDBRANCH   1  33
TORSDOF 10
