REMARK  Name = ZINC35622640
REMARK  10 active torsions:
REMARK  status: ('A' for Active; 'I' for Inactive)
REMARK    1  A    between atoms: C_1  and  C_2
REMARK    2  A    between atoms: C_2  and  N_3
REMARK    3  A    between atoms: C_6  and  C_11
REMARK    4  A    between atoms: N_19  and  C_21
REMARK    5  A    between atoms: C_21  and  C_23
REMARK    6  A    between atoms: C_21  and  C_26
REMARK    7  A    between atoms: C_23  and  C_24
REMARK    8  A    between atoms: C_23  and  C_25
REMARK    9  A    between atoms: N_28  and  C_29
REMARK   10  A    between atoms: C_29  and  C_30
REMARK                            x       y       z     vdW  Elec       q    Type
REMARK                         _______ _______ _______ _____ _____    ______ ____
ROOT
ATOM      1  N   UNL     1      -1.033   0.015  -0.143  0.00  0.00    -0.257 N 
ATOM      2  C   UNL     1      -1.253  -0.305  -1.452  0.00  0.00    +0.042 C 
ATOM      3  C   UNL     1      -0.241  -0.679  -2.260  0.00  0.00    +0.058 C 
ATOM      4  C   UNL     1       1.152  -0.732  -1.666  0.00  0.00    +0.142 C 
ATOM      5  N   UNL     1       1.285  -0.368  -0.245  0.00  0.00    -0.288 N 
ATOM      6  C   UNL     1       0.176  -0.009   0.432  0.00  0.00    +0.307 C 
ATOM      7  O   UNL     1       0.277   0.297   1.604  0.00  0.00    -0.252 OA
ATOM      8  C   UNL     1      -0.724  -0.956  -3.556  0.00  0.00    +0.247 C 
ATOM      9  O   UNL     1      -0.028  -1.316  -4.487  0.00  0.00    -0.270 OA
ATOM     10  N   UNL     1      -2.054  -0.772  -3.628  0.00  0.00    -0.280 N 
ATOM     11  C   UNL     1      -2.507  -0.341  -2.297  0.00  0.00    +0.160 C 
ATOM     12  H   UNL     1       2.151  -0.383   0.192  0.00  0.00    +0.151 HD
ENDROOT
BRANCH   4  13
ATOM     13  C   UNL     1       2.034   0.191  -2.466  0.00  0.00    -0.023 A 
ATOM     14  C   UNL     1       2.007   1.552  -2.227  0.00  0.00    +0.006 A 
ATOM     15  C   UNL     1       2.816   2.400  -2.961  0.00  0.00    +0.000 A 
ATOM     16  C   UNL     1       3.653   1.885  -3.934  0.00  0.00    +0.000 A 
ATOM     17  C   UNL     1       3.681   0.524  -4.172  0.00  0.00    +0.000 A 
ATOM     18  C   UNL     1       2.875  -0.324  -3.435  0.00  0.00    +0.006 A 
ENDBRANCH   4  13
BRANCH   1  20
ATOM     19  C   UNL     1      -2.373   1.929   0.582  0.00  0.00    +0.025 C 
ATOM     20  C   UNL     1      -2.181   0.414   0.675  0.00  0.00    +0.111 C 
ENDBRANCH   1  20
BRANCH  10  21
ATOM     21  C   UNL     1      -2.896  -0.963  -4.812  0.00  0.00    +0.165 C 
BRANCH  21  22
ATOM     22  C   UNL     1      -2.792  -2.393  -5.276  0.00  0.00    +0.234 C 
ATOM     23  O   UNL     1      -1.931  -3.117  -4.823  0.00  0.00    -0.274 OA
ATOM     24  N   UNL     1      -3.657  -2.868  -6.194  0.00  0.00    -0.307 N 
ATOM     25  H   UNL     1      -4.386  -2.310  -6.508  0.00  0.00    +0.149 HD
BRANCH  24  26
ATOM     26  C   UNL     1      -3.497  -4.227  -6.717  0.00  0.00    +0.178 C 
BRANCH  26  27
ATOM     27  C   UNL     1      -4.584  -4.510  -7.721  0.00  0.00    +0.122 A 
ATOM     28  C   UNL     1      -4.513  -4.280  -9.044  0.00  0.00    +0.046 A 
ATOM     29  C   UNL     1      -5.747  -4.691  -9.599  0.00  0.00    +0.041 A 
ATOM     30  C   UNL     1      -6.499  -5.146  -8.581  0.00  0.00    +0.195 A 
ATOM     31  O   UNL     1      -5.788  -5.040  -7.447  0.00  0.00    -0.466 OA
ENDBRANCH  26  27
ENDBRANCH  24  26
ENDBRANCH  21  22
BRANCH  21  32
ATOM     32  C   UNL     1      -2.424  -0.029  -5.929  0.00  0.00    +0.012 C 
ATOM     33  C   UNL     1      -3.392  -0.118  -7.110  0.00  0.00    +0.009 C 
ATOM     34  C   UNL     1      -2.384   1.409  -5.408  0.00  0.00    +0.009 C 
ENDBRANCH  21  32
ENDBRANCH  10  21
TORSDOF 7
