REMARK  Name = ZINC36207491
REMARK  16 active torsions:
REMARK  status: ('A' for Active; 'I' for Inactive)
REMARK    1  A    between atoms: C_1  and  C_2
REMARK    2  A    between atoms: C_8  and  C_17
REMARK    3  A    between atoms: C_12  and  C_13
REMARK    4  A    between atoms: C_13  and  O_15
REMARK    5  A    between atoms: O_15  and  C_16
REMARK    6  A    between atoms: C_17  and  N_18
REMARK    7  A    between atoms: N_18  and  C_19
REMARK    8  A    between atoms: N_18  and  C_31
REMARK    9  A    between atoms: C_19  and  C_20
REMARK   10  A    between atoms: C_20  and  C_22
REMARK   11  A    between atoms: C_20  and  O_30
REMARK   12  A    between atoms: C_22  and  O_23
REMARK   13  A    between atoms: O_23  and  C_24
REMARK   14  A    between atoms: C_31  and  C_32
REMARK   15  A    between atoms: C_32  and  C_33
REMARK   16  A    between atoms: C_32  and  C_34
REMARK                            x       y       z     vdW  Elec       q    Type
REMARK                         _______ _______ _______ _____ _____    ______ ____
ROOT
ATOM      1  N   UNL     1       0.158  -4.765  -3.883  0.00  0.00    +0.386 N 
ATOM      2  H   UNL     1       0.909  -4.922  -3.227  0.00  0.00    -0.081 HD
ENDROOT
BRANCH   1   3
ATOM      3  C   UNL     1       0.256  -3.401  -4.420  0.00  0.00    -0.003 C 
BRANCH   3  11
ATOM      4  C   UNL     1       0.498   1.614  -0.056  0.00  0.00    +0.046 C 
ATOM      5  C   UNL     1       0.401   0.112   0.004  0.00  0.00    -0.015 A 
ATOM      6  C   UNL     1       0.374  -0.635  -1.175  0.00  0.00    +0.076 A 
ATOM      7  C   UNL     1       0.430  -0.169  -2.580  0.00  0.00    +0.260 A 
ATOM      8  O   UNL     1       0.511   1.018  -2.841  0.00  0.00    -0.267 OA
ATOM      9  N   UNL     1       0.389  -1.091  -3.561  0.00  0.00    -0.312 N 
ATOM     10  H   UNL     1       0.425  -0.802  -4.486  0.00  0.00    +0.170 HD
ATOM     11  C   UNL     1       0.299  -2.415  -3.282  0.00  0.00    +0.094 A 
ATOM     12  N   UNL     1       0.248  -2.859  -2.055  0.00  0.00    -0.229 NA
ATOM     13  C   UNL     1       0.281  -2.037  -1.015  0.00  0.00    +0.116 A 
ATOM     14  S   UNL     1       0.235  -2.243   0.747  0.00  0.00    -0.062 S 
ATOM     15  C   UNL     1       0.344  -0.523   1.211  0.00  0.00    +0.102 A 
BRANCH  15  16
ATOM     16  C   UNL     1       0.364   0.062   2.553  0.00  0.00    +0.346 C 
ATOM     17  O   UNL     1       0.440   1.268   2.690  0.00  0.00    -0.244 OA
BRANCH  16  18
ATOM     18  O   UNL     1       0.298  -0.737   3.639  0.00  0.00    -0.464 OA
ATOM     19  C   UNL     1       0.322  -0.098   4.917  0.00  0.00    +0.280 C 
ENDBRANCH  16  18
ENDBRANCH  15  16
ENDBRANCH   3  11
ENDBRANCH   1   3
BRANCH   1  20
ATOM     20  C   UNL     1       0.259  -5.733  -4.983  0.00  0.00    -0.043 C 
BRANCH  20  21
ATOM     21  C   UNL     1       1.673  -5.697  -5.566  0.00  0.00    +0.135 C 
BRANCH  21  22
ATOM     22  O   UNL     1       1.881  -4.451  -6.234  0.00  0.00    -0.390 OA
ATOM     23  H   UNL     1       1.267  -4.288  -6.964  0.00  0.00    +0.210 HD
ENDBRANCH  21  22
BRANCH  21  24
ATOM     24  C   UNL     1       1.842  -6.845  -6.564  0.00  0.00    +0.258 C 
BRANCH  24  25
ATOM     25  O   UNL     1       3.195  -6.883  -7.021  0.00  0.00    -0.489 OA
BRANCH  25  26
ATOM     26  C   UNL     1       3.516  -7.851  -7.919  0.00  0.00    +0.121 A 
ATOM     27  C   UNL     1       2.547  -8.743  -8.355  0.00  0.00    +0.045 A 
ATOM     28  C   UNL     1       2.876  -9.726  -9.268  0.00  0.00    +0.004 A 
ATOM     29  C   UNL     1       4.170  -9.822  -9.747  0.00  0.00    +0.000 A 
ATOM     30  C   UNL     1       5.137  -8.934  -9.314  0.00  0.00    +0.004 A 
ATOM     31  C   UNL     1       4.812  -7.946  -8.405  0.00  0.00    +0.045 A 
ENDBRANCH  25  26
ENDBRANCH  24  25
ENDBRANCH  21  24
ENDBRANCH  20  21
ENDBRANCH   1  20
BRANCH   1  32
ATOM     32  C   UNL     1      -1.132  -4.931  -3.200  0.00  0.00    -0.075 C 
BRANCH  32  33
ATOM     33  C   UNL     1      -1.171  -6.296  -2.510  0.00  0.00    -0.034 C 
ATOM     34  C   UNL     1      -0.108  -6.342  -1.410  0.00  0.00    +0.005 C 
ATOM     35  C   UNL     1      -2.554  -6.516  -1.892  0.00  0.00    +0.005 C 
ENDBRANCH  32  33
ENDBRANCH   1  32
TORSDOF 12
