REMARK  Name = ZINC09781028
REMARK  11 active torsions:
REMARK  status: ('A' for Active; 'I' for Inactive)
REMARK    1  A    between atoms: C_1  and  C_2
REMARK    2  A    between atoms: C_2  and  N_3
REMARK    3  A    between atoms: N_3  and  C_4
REMARK    4  A    between atoms: N_3  and  C_6
REMARK    5  A    between atoms: C_4  and  C_5
REMARK    6  A    between atoms: C_9  and  C_12
REMARK    7  A    between atoms: C_19  and  S_32
REMARK    8  A    between atoms: C_28  and  C_30
REMARK    9  A    between atoms: C_28  and  C_31
REMARK   10  A    between atoms: S_32  and  C_33
REMARK   11  A    between atoms: C_33  and  C_34
REMARK                            x       y       z     vdW  Elec       q    Type
REMARK                         _______ _______ _______ _____ _____    ______ ____
ROOT
ATOM      1  C   UNL     1      -1.333   2.113   0.020  0.00  0.00    +0.092 C 
ATOM      2  C   UNL     1      -1.432   2.960  -1.213  0.00  0.00    +0.069 A 
ATOM      3  C   UNL     1      -1.737   2.379  -2.449  0.00  0.00    +0.258 A 
ATOM      4  O   UNL     1      -1.930   1.176  -2.540  0.00  0.00    -0.267 OA
ATOM      5  N   UNL     1      -1.815   3.172  -3.539  0.00  0.00    -0.302 N 
ATOM      6  H   UNL     1      -2.027   2.787  -4.404  0.00  0.00    +0.171 HD
ATOM      7  C   UNL     1      -1.597   4.511  -3.426  0.00  0.00    +0.171 A 
ATOM      8  N   UNL     1      -1.309   5.064  -2.265  0.00  0.00    -0.208 NA
ATOM      9  C   UNL     1      -1.222   4.327  -1.153  0.00  0.00    +0.135 A 
ATOM     10  N   UNL     1      -0.929   4.921   0.059  0.00  0.00    -0.302 N 
ATOM     11  C   UNL     1      -1.220   4.284   1.235  0.00  0.00    +0.017 C 
ATOM     12  C   UNL     1      -1.420   2.951   1.270  0.00  0.00    +0.024 C 
ATOM     13  C   UNL     1      -1.718   2.295   2.479  0.00  0.00    +0.162 C 
ATOM     14  O   UNL     1      -1.911   1.095   2.474  0.00  0.00    -0.292 OA
ATOM     15  C   UNL     1      -1.802   3.049   3.777  0.00  0.00    +0.086 C 
ATOM     16  C   UNL     1      -0.891   4.279   3.697  0.00  0.00    -0.023 C 
ATOM     17  C   UNL     1      -1.316   5.118   2.490  0.00  0.00    +0.058 C 
ATOM     18  C   UNL     1       0.562   3.832   3.527  0.00  0.00    +0.011 C 
ATOM     19  C   UNL     1      -1.028   5.110   4.975  0.00  0.00    +0.011 C 
ATOM     20  H   UNL     1      -0.512   5.796   0.077  0.00  0.00    +0.153 HD
ENDROOT
BRANCH   1  24
ATOM     21  C   UNL     1       2.400   0.031  -0.021  0.00  0.00    +0.030 A 
ATOM     22  C   UNL     1       1.206  -0.680  -0.013  0.00  0.00    +0.023 A 
ATOM     23  C   UNL     1       0.002  -0.004   0.002  0.00  0.00    +0.006 A 
ATOM     24  C   UNL     1      -0.017   1.379   0.010  0.00  0.00    -0.035 A 
ATOM     25  C   UNL     1       1.169   2.089   0.002  0.00  0.00    +0.006 A 
ATOM     26  C   UNL     1       2.377   1.420  -0.013  0.00  0.00    +0.023 A 
BRANCH  21  27
ATOM     27  N   UNL     1       3.620  -0.649  -0.037  0.00  0.00    -0.330 N 
BRANCH  27  29
ATOM     28  C   UNL     1       5.329   0.355   1.395  0.00  0.00    +0.024 C 
ATOM     29  C   UNL     1       4.877   0.102  -0.045  0.00  0.00    +0.102 C 
ENDBRANCH  27  29
BRANCH  27  30
ATOM     30  C   UNL     1       3.641  -2.114  -0.045  0.00  0.00    +0.102 C 
ATOM     31  C   UNL     1       3.635  -2.616  -1.490  0.00  0.00    +0.024 C 
ENDBRANCH  27  30
ENDBRANCH  21  27
ENDBRANCH   1  24
BRANCH   7  32
ATOM     32  S   UNL     1      -1.700   5.526  -4.863  0.00  0.00    -0.088 S 
BRANCH  32  33
ATOM     33  C   UNL     1      -1.332   7.142  -4.133  0.00  0.00    +0.074 C 
ATOM     34  C   UNL     1      -1.367   8.213  -5.225  0.00  0.00    +0.016 C 
ENDBRANCH  32  33
ENDBRANCH   7  32
TORSDOF 6
