REMARK  Name = ZINC35938594
REMARK  9 active torsions:
REMARK  status: ('A' for Active; 'I' for Inactive)
REMARK    1  A    between atoms: C_1  and  C_2
REMARK    2  A    between atoms: C_2  and  C_3
REMARK    3  A    between atoms: C_3  and  C_5
REMARK    4  A    between atoms: C_3  and  C_11
REMARK    5  A    between atoms: C_18  and  C_20
REMARK    6  A    between atoms: C_21  and  C_23
REMARK    7  A    between atoms: C_23  and  C_24
REMARK    8  A    between atoms: C_24  and  N_25
REMARK    9  A    between atoms: C_33  and  C_35
REMARK                            x       y       z     vdW  Elec       q    Type
REMARK                         _______ _______ _______ _____ _____    ______ ____
ROOT
ATOM      1  C   UNL     1      -1.538  -2.033   0.127  0.00  0.00    +0.223 C 
ATOM      2  O   UNL     1      -2.032  -2.677  -0.773  0.00  0.00    -0.275 OA
ATOM      3  N   UNL     1      -1.083  -2.657   1.232  0.00  0.00    -0.295 N 
ATOM      4  C   UNL     1      -0.590  -1.883   2.380  0.00  0.00    +0.127 C 
ATOM      5  C   UNL     1       0.835  -2.346   2.707  0.00  0.00    +0.127 C 
ATOM      6  N   UNL     1       0.846  -3.813   2.785  0.00  0.00    -0.298 N 
ATOM      7  C   UNL     1       0.353  -4.588   1.638  0.00  0.00    +0.130 C 
ATOM      8  C   UNL     1      -1.077  -4.125   1.312  0.00  0.00    +0.090 C 
ATOM      9  C   UNL     1      -2.033  -4.582   2.417  0.00  0.00    +0.029 C 
ATOM     10  C   UNL     1       1.300  -4.438   3.890  0.00  0.00    +0.214 C 
ATOM     11  O   UNL     1       1.304  -5.650   3.943  0.00  0.00    -0.276 OA
ENDROOT
BRANCH   1  12
ATOM     12  C   UNL     1      -1.431  -0.534   0.012  0.00  0.00    +0.105 C 
BRANCH  12  13
ATOM     13  C   UNL     1      -2.617   0.108   0.685  0.00  0.00    -0.036 A 
ATOM     14  C   UNL     1      -3.897  -0.176   0.247  0.00  0.00    +0.004 A 
ATOM     15  C   UNL     1      -4.985   0.413   0.865  0.00  0.00    +0.000 A 
ATOM     16  C   UNL     1      -4.792   1.284   1.920  0.00  0.00    +0.000 A 
ATOM     17  C   UNL     1      -3.512   1.567   2.359  0.00  0.00    +0.000 A 
ATOM     18  C   UNL     1      -2.425   0.975   1.744  0.00  0.00    +0.004 A 
ENDBRANCH  12  13
BRANCH  12  20
ATOM     19  C   UNL     1      -1.157   1.368  -1.585  0.00  0.00    +0.005 C 
ATOM     20  C   UNL     1      -1.407  -0.137  -1.466  0.00  0.00    +0.014 C 
ENDBRANCH  12  20
ENDBRANCH   1  12
BRANCH  10  21
ATOM     21  C   UNL     1       1.803  -3.631   5.059  0.00  0.00    +0.077 C 
BRANCH  21  22
ATOM     22  C   UNL     1       2.257  -4.576   6.173  0.00  0.00    -0.068 C 
BRANCH  22  23
ATOM     23  N   UNL     1       2.748  -3.789   7.313  0.00  0.00    +0.388 N 
ATOM     24  C   UNL     1       1.642  -2.993   7.862  0.00  0.00    -0.072 C 
ATOM     25  C   UNL     1       2.217  -1.938   8.822  0.00  0.00    +0.024 C 
ATOM     26  C   UNL     1       3.188  -2.630   9.723  0.00  0.00    -0.010 A 
ATOM     27  C   UNL     1       3.704  -3.880   9.549  0.00  0.00    -0.047 A 
ATOM     28  C   UNL     1       4.593  -4.326  10.523  0.00  0.00    +0.010 A 
ATOM     29  C   UNL     1       4.906  -3.528  11.570  0.00  0.00    +0.045 A 
ATOM     30  S   UNL     1       3.935  -2.068  11.225  0.00  0.00    -0.101 S 
ATOM     31  C   UNL     1       3.292  -4.698   8.329  0.00  0.00    -0.006 C 
ATOM     32  H   UNL     1       3.478  -3.168   6.998  0.00  0.00    -0.080 HD
BRANCH  31  33
ATOM     33  C   UNL     1       4.494  -5.416   7.773  0.00  0.00    -0.057 A 
ATOM     34  C   UNL     1       5.404  -4.734   6.987  0.00  0.00    +0.002 A 
ATOM     35  C   UNL     1       6.507  -5.393   6.477  0.00  0.00    +0.000 A 
ATOM     36  C   UNL     1       6.700  -6.734   6.753  0.00  0.00    +0.000 A 
ATOM     37  C   UNL     1       5.790  -7.415   7.539  0.00  0.00    +0.000 A 
ATOM     38  C   UNL     1       4.690  -6.756   8.053  0.00  0.00    +0.002 A 
ENDBRANCH  31  33
ENDBRANCH  22  23
ENDBRANCH  21  22
ENDBRANCH  10  21
TORSDOF 7
