REMARK  Name = ZINC49561318
REMARK  5 active torsions:
REMARK  status: ('A' for Active; 'I' for Inactive)
REMARK    1  A    between atoms: C_1  and  C_2
REMARK    2  A    between atoms: C_5  and  C_8
REMARK    3  A    between atoms: C_8  and  C_10
REMARK    4  A    between atoms: C_8  and  N_11
REMARK    5  A    between atoms: C_18  and  C_21
REMARK                            x       y       z     vdW  Elec       q    Type
REMARK                         _______ _______ _______ _____ _____    ______ ____
ROOT
ATOM      1  N   UNL     1       0.960  -4.758   1.029  0.00  0.00    -0.293 N 
ATOM      2  C   UNL     1       1.534  -5.972   0.919  0.00  0.00    +0.303 C 
ATOM      3  O   UNL     1       1.236  -6.704  -0.005  0.00  0.00    -0.253 OA
ATOM      4  N   UNL     1       2.439  -6.375   1.833  0.00  0.00    -0.285 N 
ATOM      5  C   UNL     1       3.159  -7.644   1.665  0.00  0.00    +0.109 C 
ATOM      6  C   UNL     1       4.664  -7.374   1.756  0.00  0.00    +0.020 C 
ATOM      7  C   UNL     1       4.969  -6.648   3.068  0.00  0.00    +0.018 C 
ATOM      8  C   UNL     1       4.234  -5.305   3.093  0.00  0.00    +0.119 C 
ATOM      9  C   UNL     1       2.729  -5.549   3.013  0.00  0.00    +0.124 C 
ATOM     10  H   UNL     1       1.142  -4.204   1.804  0.00  0.00    +0.151 HD
ENDROOT
BRANCH   8  11
ATOM     11  C   UNL     1       4.561  -4.576   4.371  0.00  0.00    +0.361 C 
ATOM     12  O   UNL     1       4.750  -3.372   4.354  0.00  0.00    -0.246 OA
ATOM     13  O   UNL     1       4.638  -5.191   5.421  0.00  0.00    -0.246 OA
ENDBRANCH   8  11
BRANCH   1  14
ATOM     14  C   UNL     1       0.061  -4.274  -0.023  0.00  0.00    +0.102 C 
ATOM     15  C   UNL     1      -1.352  -4.803   0.232  0.00  0.00    +0.033 C 
BRANCH  14  20
ATOM     16  C   UNL     1      -0.014   1.504   0.009  0.00  0.00    +0.044 C 
ATOM     17  C   UNL     1       0.006  -0.003   0.001  0.00  0.00    -0.050 A 
ATOM     18  C   UNL     1       0.010  -0.688  -1.200  0.00  0.00    +0.004 A 
ATOM     19  C   UNL     1       0.028  -2.070  -1.208  0.00  0.00    +0.006 A 
ATOM     20  C   UNL     1       0.043  -2.768  -0.014  0.00  0.00    -0.027 A 
ATOM     21  C   UNL     1       0.039  -2.083   1.187  0.00  0.00    +0.006 A 
ATOM     22  C   UNL     1       0.025  -0.701   1.194  0.00  0.00    +0.004 A 
ENDBRANCH  14  20
ENDBRANCH   1  14
TORSDOF 3
