REMARK  Name = ZINC39934547
REMARK  6 active torsions:
REMARK  status: ('A' for Active; 'I' for Inactive)
REMARK    1  A    between atoms: C_3  and  S_13
REMARK    2  A    between atoms: C_6  and  C_7
REMARK    3  A    between atoms: S_13  and  N_16
REMARK    4  A    between atoms: C_22  and  C_24
REMARK    5  A    between atoms: C_24  and  C_25
REMARK    6  A    between atoms: C_25  and  C_26
REMARK                            x       y       z     vdW  Elec       q    Type
REMARK                         _______ _______ _______ _____ _____    ______ ____
ROOT
ATOM      1  N   UNL     1       4.327   2.556   1.555  0.00  0.00    -0.174 NA
ATOM      2  C   UNL     1       3.872   3.749   2.282  0.00  0.00    +0.128 C 
ATOM      3  C   UNL     1       3.152   3.300   3.559  0.00  0.00    +0.125 C 
ATOM      4  N   UNL     1       4.001   2.326   4.259  0.00  0.00    -0.299 N 
ATOM      5  C   UNL     1       4.456   1.133   3.533  0.00  0.00    +0.125 C 
ATOM      6  C   UNL     1       5.172   1.579   2.257  0.00  0.00    +0.128 C 
ATOM      7  C   UNL     1       4.356   2.524   5.544  0.00  0.00    +0.216 C 
ATOM      8  O   UNL     1       3.975   3.513   6.133  0.00  0.00    -0.276 OA
ENDROOT
BRANCH   1   9
ATOM      9  S   UNL     1       3.891   2.312  -0.024  0.00  0.00    +0.061 S 
ATOM     10  O   UNL     1       4.872   1.453  -0.588  0.00  0.00    -0.153 OA
ATOM     11  O   UNL     1       3.597   3.593  -0.566  0.00  0.00    -0.153 OA
BRANCH   9  14
ATOM     12  C   UNL     1      -0.017   1.378   0.010  0.00  0.00    +0.006 A 
ATOM     13  C   UNL     1       1.171   2.086   0.002  0.00  0.00    +0.029 A 
ATOM     14  C   UNL     1       2.377   1.411  -0.013  0.00  0.00    +0.105 A 
ATOM     15  C   UNL     1       2.396   0.029  -0.020  0.00  0.00    +0.029 A 
ATOM     16  C   UNL     1       1.208  -0.679  -0.012  0.00  0.00    +0.006 A 
ATOM     17  C   UNL     1       0.002  -0.004   0.002  0.00  0.00    -0.044 A 
BRANCH  17  18
ATOM     18  C   UNL     1      -1.293  -0.775   0.011  0.00  0.00    +0.019 C 
ATOM     19  C   UNL     1      -1.349  -1.663   1.256  0.00  0.00    +0.008 C 
ATOM     20  C   UNL     1      -2.664  -2.446   1.265  0.00  0.00    +0.001 C 
ATOM     21  C   UNL     1      -2.745  -3.320   0.011  0.00  0.00    +0.000 C 
ATOM     22  C   UNL     1      -2.688  -2.432  -1.234  0.00  0.00    +0.001 C 
ATOM     23  C   UNL     1      -1.374  -1.649  -1.242  0.00  0.00    +0.008 C 
ENDBRANCH  17  18
ENDBRANCH   9  14
ENDBRANCH   1   9
BRANCH   7  24
ATOM     24  C   UNL     1       5.227   1.516   6.249  0.00  0.00    +0.098 C 
BRANCH  24  25
ATOM     25  C   UNL     1       5.479   1.977   7.686  0.00  0.00    +0.047 C 
BRANCH  25  26
ATOM     26  C   UNL     1       6.364   0.954   8.402  0.00  0.00    +0.212 C 
ATOM     27  C   UNL     1       6.421   1.328   9.871  0.00  0.00    +0.245 C 
ATOM     28  O   UNL     1       5.419   1.411  10.549  0.00  0.00    -0.273 OA
ATOM     29  N   UNL     1       7.652   1.564  10.386  0.00  0.00    -0.263 N 
ATOM     30  C   UNL     1       8.736   1.461   9.601  0.00  0.00    +0.181 C 
ATOM     31  S   UNL     1      10.267   1.770  10.301  0.00  0.00    -0.015 S 
ATOM     32  N   UNL     1       8.694   1.131   8.306  0.00  0.00    -0.099 NA
ATOM     33  N   UNL     1       7.651   0.887   7.690  0.00  0.00    -0.183 NA
ATOM     34  H   UNL     1       7.750   1.807  11.320  0.00  0.00    +0.157 HD
ENDBRANCH  25  26
ENDBRANCH  24  25
ENDBRANCH   7  24
TORSDOF 6
