REMARK  Name = ZINC36205943
REMARK  18 active torsions:
REMARK  status: ('A' for Active; 'I' for Inactive)
REMARK    1  A    between atoms: C_1  and  C_2
REMARK    2  A    between atoms: C_2  and  C_3
REMARK    3  A    between atoms: C_2  and  N_4
REMARK    4  A    between atoms: N_4  and  C_5
REMARK    5  A    between atoms: N_4  and  C_27
REMARK    6  A    between atoms: C_5  and  C_6
REMARK    7  A    between atoms: C_12  and  C_17
REMARK    8  A    between atoms: C_20  and  O_25
REMARK    9  A    between atoms: C_21  and  O_23
REMARK   10  A    between atoms: O_23  and  C_24
REMARK   11  A    between atoms: O_25  and  C_26
REMARK   12  A    between atoms: C_27  and  C_28
REMARK   13  A    between atoms: C_28  and  C_30
REMARK   14  A    between atoms: C_28  and  O_35
REMARK   15  A    between atoms: C_30  and  O_31
REMARK   16  A    between atoms: O_31  and  C_32
REMARK   17  A    between atoms: C_32  and  C_33
REMARK   18  A    between atoms: C_32  and  C_34
REMARK                            x       y       z     vdW  Elec       q    Type
REMARK                         _______ _______ _______ _____ _____    ______ ____
ROOT
ATOM      1  C   UNL     1       1.435   1.455  -2.072  0.00  0.00    +0.094 A 
ATOM      2  N   UNL     1       2.499   2.273  -2.278  0.00  0.00    -0.312 N 
ATOM      3  H   UNL     1       3.396   1.930  -2.141  0.00  0.00    +0.170 HD
ATOM      4  C   UNL     1       2.334   3.549  -2.671  0.00  0.00    +0.260 A 
ATOM      5  O   UNL     1       3.299   4.271  -2.852  0.00  0.00    -0.267 OA
ATOM      6  C   UNL     1       1.007   4.047  -2.872  0.00  0.00    +0.080 A 
ATOM      7  C   UNL     1       0.573   5.374  -3.291  0.00  0.00    +0.004 A 
ATOM      8  C   UNL     1      -0.754   5.617  -3.415  0.00  0.00    +0.056 A 
ATOM      9  S   UNL     1      -1.502   4.060  -2.973  0.00  0.00    -0.076 S 
ATOM     10  C   UNL     1      -0.030   3.129  -2.635  0.00  0.00    +0.116 A 
ATOM     11  N   UNL     1       0.213   1.878  -2.252  0.00  0.00    -0.229 NA
ENDROOT
BRANCH   7  12
ATOM     12  C   UNL     1       1.565   6.439  -3.574  0.00  0.00    -0.013 A 
ATOM     13  C   UNL     1       2.576   6.713  -2.655  0.00  0.00    +0.012 A 
ATOM     14  C   UNL     1       3.500   7.704  -2.919  0.00  0.00    +0.050 A 
ATOM     15  C   UNL     1       3.424   8.429  -4.098  0.00  0.00    +0.162 A 
ATOM     16  C   UNL     1       2.416   8.160  -5.021  0.00  0.00    +0.162 A 
ATOM     17  C   UNL     1       1.491   7.164  -4.763  0.00  0.00    +0.058 A 
BRANCH  16  18
ATOM     18  O   UNL     1       2.343   8.873  -6.176  0.00  0.00    -0.491 OA
ATOM     19  C   UNL     1       1.283   8.543  -7.077  0.00  0.00    +0.277 C 
ENDBRANCH  16  18
BRANCH  15  20
ATOM     20  O   UNL     1       4.335   9.406  -4.355  0.00  0.00    -0.491 OA
ATOM     21  C   UNL     1       5.342   9.630  -3.366  0.00  0.00    +0.277 C 
ENDBRANCH  15  20
ENDBRANCH   7  12
BRANCH   1  22
ATOM     22  C   UNL     1       1.669   0.032  -1.633  0.00  0.00    -0.003 C 
BRANCH  22  23
ATOM     23  N   UNL     1       0.383  -0.596  -1.303  0.00  0.00    +0.388 N 
ATOM     24  H   UNL     1      -0.325  -0.271  -1.944  0.00  0.00    -0.081 HD
BRANCH  23  26
ATOM     25  C   UNL     1       1.010  -0.839   1.052  0.00  0.00    -0.014 C 
ATOM     26  C   UNL     1       0.002  -0.239   0.070  0.00  0.00    -0.074 C 
ATOM     27  C   UNL     1      -0.008   1.284   0.217  0.00  0.00    -0.014 C 
ENDBRANCH  23  26
BRANCH  23  28
ATOM     28  C   UNL     1       0.508  -2.056  -1.412  0.00  0.00    -0.044 C 
BRANCH  28  29
ATOM     29  C   UNL     1      -0.872  -2.699  -1.266  0.00  0.00    +0.124 C 
BRANCH  29  30
ATOM     30  O   UNL     1      -1.325  -2.554   0.082  0.00  0.00    -0.391 OA
ATOM     31  H   UNL     1      -0.717  -2.914   0.742  0.00  0.00    +0.210 HD
ENDBRANCH  29  30
BRANCH  29  32
ATOM     32  C   UNL     1      -0.782  -4.185  -1.616  0.00  0.00    +0.189 C 
BRANCH  32  33
ATOM     33  O   UNL     1      -2.090  -4.760  -1.593  0.00  0.00    -0.375 OA
BRANCH  33  34
ATOM     34  C   UNL     1      -2.118  -6.154  -1.908  0.00  0.00    +0.112 C 
ATOM     35  C   UNL     1      -1.963  -6.971  -0.623  0.00  0.00    +0.037 C 
ATOM     36  C   UNL     1      -3.452  -6.500  -2.573  0.00  0.00    +0.037 C 
ENDBRANCH  33  34
ENDBRANCH  32  33
ENDBRANCH  29  32
ENDBRANCH  28  29
ENDBRANCH  23  28
ENDBRANCH  22  23
ENDBRANCH   1  22
TORSDOF 12
