REMARK  Name = ZINC47541419
REMARK  8 active torsions:
REMARK  status: ('A' for Active; 'I' for Inactive)
REMARK    1  A    between atoms: C_1  and  C_2
REMARK    2  A    between atoms: C_4  and  C_25
REMARK    3  A    between atoms: C_7  and  N_8
REMARK    4  A    between atoms: N_11  and  C_12
REMARK    5  A    between atoms: C_12  and  C_13
REMARK    6  A    between atoms: C_18  and  O_19
REMARK    7  A    between atoms: O_19  and  C_20
REMARK    8  A    between atoms: N_27  and  C_28
REMARK                            x       y       z     vdW  Elec       q    Type
REMARK                         _______ _______ _______ _____ _____    ______ ____
ROOT
ATOM      1  N   UNL     1       0.422   0.578   2.655  0.00  0.00    -0.269 N 
ATOM      2  C   UNL     1       0.207  -0.274   3.676  0.00  0.00    +0.304 C 
ATOM      3  O   UNL     1       0.189  -1.473   3.475  0.00  0.00    -0.252 OA
ATOM      4  N   UNL     1       0.011   0.203   4.921  0.00  0.00    -0.295 N 
ATOM      5  H   UNL     1       0.502   1.530   2.825  0.00  0.00    +0.156 HD
ATOM      6  H   UNL     1       0.025   1.159   5.082  0.00  0.00    +0.151 HD
ENDROOT
BRANCH   1  13
ATOM      7  C   UNL     1      -0.500   2.229   0.534  0.00  0.00    +0.045 C 
ATOM      8  C   UNL     1       0.092   0.866   0.283  0.00  0.00    -0.028 A 
ATOM      9  C   UNL     1       0.203   0.391  -1.004  0.00  0.00    +0.018 A 
ATOM     10  C   UNL     1       0.752  -0.873  -1.236  0.00  0.00    +0.037 A 
ATOM     11  C   UNL     1       1.187  -1.651  -0.159  0.00  0.00    +0.015 A 
ATOM     12  C   UNL     1       1.073  -1.170   1.125  0.00  0.00    +0.024 A 
ATOM     13  C   UNL     1       0.531   0.091   1.352  0.00  0.00    +0.038 A 
BRANCH  10  14
ATOM     14  C   UNL     1       0.873  -1.385  -2.615  0.00  0.00    +0.244 C 
ATOM     15  O   UNL     1       0.493  -0.708  -3.550  0.00  0.00    -0.270 OA
ATOM     16  N   UNL     1       1.403  -2.604  -2.837  0.00  0.00    -0.314 N 
ATOM     17  C   UNL     1       1.522  -3.113  -4.205  0.00  0.00    +0.128 C 
ATOM     18  H   UNL     1       1.705  -3.145  -2.090  0.00  0.00    +0.149 HD
ENDBRANCH  10  14
ENDBRANCH   1  13
BRANCH   4  19
ATOM     19  C   UNL     1      -0.224  -0.723   6.032  0.00  0.00    +0.144 C 
BRANCH  19  20
ATOM     20  C   UNL     1      -0.411   0.058   7.307  0.00  0.00    +0.011 A 
ATOM     21  C   UNL     1       0.638   0.193   8.196  0.00  0.00    +0.009 A 
ATOM     22  C   UNL     1       0.467   0.909   9.366  0.00  0.00    +0.001 A 
ATOM     23  C   UNL     1      -0.754   1.493   9.649  0.00  0.00    +0.004 A 
ATOM     24  C   UNL     1      -1.806   1.362   8.763  0.00  0.00    +0.046 A 
ATOM     25  C   UNL     1      -1.635   0.648   7.586  0.00  0.00    +0.126 A 
BRANCH  25  26
ATOM     26  O   UNL     1      -2.667   0.522   6.710  0.00  0.00    -0.488 OA
BRANCH  26  27
ATOM     27  C   UNL     1      -3.862   1.247   7.007  0.00  0.00    +0.173 C 
ATOM     28  C   UNL     1      -4.769   0.413   7.936  0.00  0.00    +0.044 C 
ATOM     29  C   UNL     1      -6.204   0.723   7.443  0.00  0.00    +0.004 C 
ATOM     30  C   UNL     1      -6.028   0.802   5.906  0.00  0.00    +0.004 C 
ATOM     31  C   UNL     1      -4.663   1.494   5.717  0.00  0.00    +0.044 C 
ENDBRANCH  26  27
ENDBRANCH  25  26
ENDBRANCH  19  20
ENDBRANCH   4  19
TORSDOF 6
