REMARK  Name = ZINC08759433
REMARK  9 active torsions:
REMARK  status: ('A' for Active; 'I' for Inactive)
REMARK    1  A    between atoms: C_1  and  C_2
REMARK    2  A    between atoms: C_2  and  C_4
REMARK    3  A    between atoms: C_2  and  S_20
REMARK    4  A    between atoms: N_6  and  C_7
REMARK    5  A    between atoms: C_10  and  N_17
REMARK    6  A    between atoms: C_12  and  C_13
REMARK    7  A    between atoms: S_20  and  C_21
REMARK    8  A    between atoms: C_26  and  O_31
REMARK    9  A    between atoms: O_31  and  C_32
REMARK                            x       y       z     vdW  Elec       q    Type
REMARK                         _______ _______ _______ _____ _____    ______ ____
ROOT
ATOM      1  C   UNL     1       0.731  -0.500   1.224  0.00  0.00    +0.230 C 
ATOM      2  O   UNL     1       0.105  -0.894   2.185  0.00  0.00    -0.274 OA
ATOM      3  N   UNL     1       2.079  -0.519   1.244  0.00  0.00    -0.284 N 
ATOM      4  H   UNL     1       2.579  -0.280   0.448  0.00  0.00    +0.155 HD
ENDROOT
BRANCH   3   5
ATOM      5  C   UNL     1       2.756  -0.883   2.413  0.00  0.00    +0.045 A 
ATOM      6  C   UNL     1       2.143  -0.727   3.650  0.00  0.00    +0.026 A 
ATOM      7  C   UNL     1       2.814  -1.087   4.801  0.00  0.00    +0.034 A 
ATOM      8  C   UNL     1       4.095  -1.602   4.725  0.00  0.00    +0.127 A 
ATOM      9  C   UNL     1       4.708  -1.758   3.495  0.00  0.00    +0.047 A 
ATOM     10  C   UNL     1       4.040  -1.405   2.339  0.00  0.00    +0.078 A 
BRANCH  10  11
ATOM     11  C   UNL     1       4.707  -1.581   0.999  0.00  0.00    +0.419 C 
ATOM     12  F   UNL     1       5.985  -2.120   1.181  0.00  0.00    -0.166 F 
ATOM     13  F   UNL     1       3.944  -2.448   0.209  0.00  0.00    -0.166 F 
ATOM     14  F   UNL     1       4.810  -0.340   0.362  0.00  0.00    -0.166 F 
ENDBRANCH  10  11
BRANCH   8  15
ATOM     15  N   UNL     1       4.812  -1.987   5.961  0.00  0.00    +0.056 N 
ATOM     16  O   UNL     1       4.277  -1.851   7.037  0.00  0.00    -0.126 OA
ATOM     17  O   UNL     1       5.932  -2.437   5.896  0.00  0.00    -0.126 OA
ENDBRANCH   8  15
ENDBRANCH   3   5
BRANCH   1  19
ATOM     18  C   UNL     1      -0.015   1.540   0.028  0.00  0.00    +0.029 C 
ATOM     19  C   UNL     1       0.003   0.010   0.007  0.00  0.00    +0.137 C 
BRANCH  19  20
ATOM     20  S   UNL     1      -1.701  -0.614   0.017  0.00  0.00    -0.075 S 
BRANCH  20  21
ATOM     21  C   UNL     1      -2.365  -0.062  -1.519  0.00  0.00    +0.168 A 
ATOM     22  N   UNL     1      -3.641  -0.295  -1.953  0.00  0.00    -0.333 N 
ATOM     23  H   UNL     1      -4.329  -0.785  -1.477  0.00  0.00    +0.168 HD
ATOM     24  C   UNL     1      -3.767   0.300  -3.197  0.00  0.00    +0.070 A 
ATOM     25  C   UNL     1      -4.803   0.400  -4.113  0.00  0.00    +0.073 A 
ATOM     26  C   UNL     1      -4.607   1.080  -5.302  0.00  0.00    +0.122 A 
ATOM     27  C   UNL     1      -3.376   1.665  -5.582  0.00  0.00    +0.048 A 
ATOM     28  C   UNL     1      -2.339   1.573  -4.681  0.00  0.00    +0.033 A 
ATOM     29  C   UNL     1      -2.523   0.889  -3.477  0.00  0.00    +0.090 A 
ATOM     30  N   UNL     1      -1.713   0.638  -2.413  0.00  0.00    -0.222 NA
BRANCH  26  31
ATOM     31  O   UNL     1      -5.623   1.178  -6.201  0.00  0.00    -0.495 OA
ATOM     32  C   UNL     1      -5.354   1.894  -7.408  0.00  0.00    +0.277 C 
ENDBRANCH  26  31
ENDBRANCH  20  21
ENDBRANCH  19  20
ENDBRANCH   1  19
TORSDOF 7
