REMARK  Name = ZINC38546308
REMARK  6 active torsions:
REMARK  status: ('A' for Active; 'I' for Inactive)
REMARK    1  A    between atoms: C_1  and  C_2
REMARK    2  A    between atoms: N_5  and  C_8
REMARK    3  A    between atoms: C_8  and  C_10
REMARK    4  A    between atoms: C_8  and  C_16
REMARK    5  A    between atoms: C_20  and  N_21
REMARK    6  A    between atoms: C_22  and  C_24
REMARK                            x       y       z     vdW  Elec       q    Type
REMARK                         _______ _______ _______ _____ _____    ______ ____
ROOT
ATOM      1  C   UNL     1       0.243  -4.497   2.503  0.00  0.00    -0.025 A 
ATOM      2  C   UNL     1       1.075  -5.549   2.121  0.00  0.00    -0.033 A 
ATOM      3  C   UNL     1       1.596  -6.308   3.122  0.00  0.00    -0.005 A 
ATOM      4  S   UNL     1       0.942  -5.575   4.598  0.00  0.00    -0.078 S 
ATOM      5  C   UNL     1      -0.004  -4.273   3.821  0.00  0.00    +0.074 A 
ATOM      6  C   UNL     1       2.507  -7.486   2.993  0.00  0.00    +0.043 C 
ATOM      7  C   UNL     1       2.488  -7.953   1.530  0.00  0.00    +0.005 C 
ATOM      8  C   UNL     1       2.665  -6.732   0.622  0.00  0.00    +0.005 C 
ATOM      9  C   UNL     1       1.408  -5.862   0.665  0.00  0.00    +0.036 C 
ENDROOT
BRANCH   5  10
ATOM     10  N   UNL     1      -0.793  -3.285   4.414  0.00  0.00    -0.273 N 
ATOM     11  C   UNL     1      -0.803  -3.145   5.754  0.00  0.00    +0.284 C 
ATOM     12  O   UNL     1      -0.124  -3.879   6.448  0.00  0.00    -0.266 OA
ATOM     13  H   UNL     1      -1.334  -2.700   3.861  0.00  0.00    +0.156 HD
BRANCH  11  14
ATOM     14  C   UNL     1      -1.631  -2.107   6.377  0.00  0.00    +0.189 A 
ATOM     15  C   UNL     1      -1.730  -1.854   7.715  0.00  0.00    +0.054 A 
ATOM     16  C   UNL     1      -2.627  -0.784   7.859  0.00  0.00    +0.042 A 
ATOM     17  C   UNL     1      -3.031  -0.435   6.618  0.00  0.00    +0.196 A 
ATOM     18  O   UNL     1      -2.426  -1.232   5.727  0.00  0.00    -0.458 OA
ENDBRANCH  11  14
ENDBRANCH   5  10
BRANCH   1  19
ATOM     19  C   UNL     1      -0.376  -3.606   1.457  0.00  0.00    -0.004 C 
BRANCH  19  24
ATOM     20  C   UNL     1       1.122   1.879   1.901  0.00  0.00    +0.007 C 
ATOM     21  C   UNL     1       0.974   0.435   1.415  0.00  0.00    -0.018 C 
ATOM     22  C   UNL     1      -0.503   0.133   1.152  0.00  0.00    -0.015 C 
ATOM     23  C   UNL     1      -0.653  -1.334   0.743  0.00  0.00    -0.077 C 
ATOM     24  N   UNL     1      -0.160  -2.199   1.821  0.00  0.00    +0.387 N 
ATOM     25  C   UNL     1       1.274  -1.965   2.031  0.00  0.00    -0.077 C 
ATOM     26  C   UNL     1       1.498  -0.522   2.490  0.00  0.00    -0.015 C 
ATOM     27  H   UNL     1      -0.661  -1.993   2.672  0.00  0.00    -0.080 HD
ENDBRANCH  19  24
BRANCH  19  28
ATOM     28  C   UNL     1      -1.856  -3.881   1.375  0.00  0.00    -0.057 A 
ATOM     29  C   UNL     1      -2.747  -3.083   2.068  0.00  0.00    +0.002 A 
ATOM     30  C   UNL     1      -4.104  -3.335   1.992  0.00  0.00    +0.000 A 
ATOM     31  C   UNL     1      -4.570  -4.386   1.223  0.00  0.00    +0.000 A 
ATOM     32  C   UNL     1      -3.679  -5.183   0.530  0.00  0.00    +0.000 A 
ATOM     33  C   UNL     1      -2.322  -4.928   0.602  0.00  0.00    +0.002 A 
ENDBRANCH  19  28
ENDBRANCH   1  19
TORSDOF 5
