REMARK  Name = ZINC40031451
REMARK  6 active torsions:
REMARK  status: ('A' for Active; 'I' for Inactive)
REMARK    1  A    between atoms: C_2  and  C_3
REMARK    2  A    between atoms: C_3  and  N_4
REMARK    3  A    between atoms: C_5  and  C_21
REMARK    4  A    between atoms: C_24  and  O_27
REMARK    5  A    between atoms: O_27  and  C_28
REMARK    6  A    between atoms: C_28  and  C_29
REMARK                            x       y       z     vdW  Elec       q    Type
REMARK                         _______ _______ _______ _____ _____    ______ ____
ROOT
ATOM      1  N   UNL     1       1.367  -1.676   1.111  0.00  0.00    -0.280 N 
ATOM      2  C   UNL     1       1.875  -1.379   2.461  0.00  0.00    +0.145 C 
ATOM      3  C   UNL     1       1.718  -2.642   3.242  0.00  0.00    +0.072 A 
ATOM      4  C   UNL     1       2.053  -2.966   4.633  0.00  0.00    +0.199 A 
ATOM      5  O   UNL     1       2.385  -2.127   5.452  0.00  0.00    -0.287 OA
ATOM      6  C   UNL     1       1.949  -4.413   4.947  0.00  0.00    +0.066 A 
ATOM      7  C   UNL     1       2.423  -4.907   6.163  0.00  0.00    +0.035 A 
ATOM      8  C   UNL     1       2.323  -6.254   6.436  0.00  0.00    +0.042 A 
ATOM      9  C   UNL     1       1.753  -7.112   5.504  0.00  0.00    +0.023 A 
ATOM     10  C   UNL     1       1.281  -6.635   4.302  0.00  0.00    +0.048 A 
ATOM     11  C   UNL     1       1.368  -5.276   4.003  0.00  0.00    +0.140 A 
ATOM     12  O   UNL     1       0.887  -4.832   2.820  0.00  0.00    -0.450 OA
ATOM     13  C   UNL     1       1.165  -3.577   2.415  0.00  0.00    +0.199 A 
ATOM     14  C   UNL     1       0.952  -2.958   1.095  0.00  0.00    +0.283 C 
ATOM     15  O   UNL     1       0.473  -3.523   0.131  0.00  0.00    -0.267 OA
ATOM     16 CL   UNL     1       2.909  -6.879   7.946  0.00  0.00    -0.084 Cl
ENDROOT
BRANCH   2  17
ATOM     17  C   UNL     1       1.065  -0.273   3.089  0.00  0.00    -0.022 A 
ATOM     18  C   UNL     1      -0.307  -0.242   2.922  0.00  0.00    +0.009 A 
ATOM     19  C   UNL     1      -1.052   0.770   3.496  0.00  0.00    +0.046 A 
ATOM     20  C   UNL     1      -0.421   1.755   4.242  0.00  0.00    +0.121 A 
ATOM     21  C   UNL     1       0.955   1.722   4.408  0.00  0.00    +0.046 A 
ATOM     22  C   UNL     1       1.695   0.705   3.836  0.00  0.00    +0.009 A 
BRANCH  20  23
ATOM     23  O   UNL     1      -1.151   2.752   4.807  0.00  0.00    -0.488 OA
BRANCH  23  24
ATOM     24  C   UNL     1      -0.436   3.733   5.561  0.00  0.00    +0.256 C 
BRANCH  24  25
ATOM     25  C   UNL     1      -1.404   4.751   6.108  0.00  0.00    +0.006 C 
ATOM     26  C   UNL     1      -1.307   5.143   7.354  0.00  0.00    +0.007 C 
ENDBRANCH  24  25
ENDBRANCH  23  24
ENDBRANCH  20  23
ENDBRANCH   2  17
BRANCH   1  27
ATOM     27  C   UNL     1       1.317  -0.740  -0.015  0.00  0.00    +0.136 C 
BRANCH  27  29
ATOM     28  C   UNL     1      -0.016   1.306   0.009  0.00  0.00    +0.005 C 
ATOM     29  C   UNL     1       0.002  -0.004   0.002  0.00  0.00    -0.016 C 
ENDBRANCH  27  29
ENDBRANCH   1  27
TORSDOF 6
