REMARK  Name = ZINC09614658
REMARK  5 active torsions:
REMARK  status: ('A' for Active; 'I' for Inactive)
REMARK    1  A    between atoms: C_6  and  C_7
REMARK    2  A    between atoms: C_7  and  N_52
REMARK    3  A    between atoms: C_19  and  C_21
REMARK    4  A    between atoms: C_21  and  S_22
REMARK    5  A    between atoms: S_22  and  C_23
REMARK                            x       y       z     vdW  Elec       q    Type
REMARK                         _______ _______ _______ _____ _____    ______ ____
ROOT
ATOM      1  C   UNL     1       5.765  -2.440   0.769  0.00  0.00    -0.059 C 
ATOM      2  C   UNL     1       6.722  -2.807  -0.368  0.00  0.00    +0.089 C 
ATOM      3  N   UNL     1       8.108  -2.695   0.106  0.00  0.00    -0.305 N 
ATOM      4  C   UNL     1       8.397  -1.328   0.563  0.00  0.00    +0.089 C 
ATOM      5  C   UNL     1       7.440  -0.961   1.700  0.00  0.00    -0.059 C 
ATOM      6  C   UNL     1       8.992  -3.085  -0.864  0.00  0.00    +0.198 A 
ATOM      7  N   UNL     1       8.949  -4.361  -1.333  0.00  0.00    -0.295 N 
ATOM      8  H   UNL     1       8.298  -4.988  -0.981  0.00  0.00    +0.172 HD
ATOM      9  C   UNL     1       9.813  -4.751  -2.294  0.00  0.00    +0.253 A 
ATOM     10  O   UNL     1       9.786  -5.891  -2.730  0.00  0.00    -0.268 OA
ATOM     11  C   UNL     1      10.749  -3.821  -2.780  0.00  0.00    +0.094 A 
ATOM     12  C   UNL     1      10.749  -2.556  -2.267  0.00  0.00    +0.060 A 
ATOM     13  N   UNL     1       9.872  -2.219  -1.324  0.00  0.00    -0.220 NA
ATOM     14  N   UNL     1       6.051  -1.056   1.204  0.00  0.00    +0.384 N 
ATOM     15  H   UNL     1       5.939  -0.425   0.402  0.00  0.00    -0.081 HD
ENDROOT
BRANCH  14  16
ATOM     16  C   UNL     1       5.106  -0.655   2.267  0.00  0.00    -0.043 C 
BRANCH  16  22
ATOM     17  C   UNL     1       2.886  -1.646   1.677  0.00  0.00    +0.005 A 
ATOM     18  C   UNL     1       1.617  -1.552   1.135  0.00  0.00    +0.050 A 
ATOM     19  C   UNL     1       1.183  -0.356   0.589  0.00  0.00    +0.166 A 
ATOM     20  C   UNL     1       2.029   0.752   0.587  0.00  0.00    +0.166 A 
ATOM     21  C   UNL     1       3.298   0.650   1.131  0.00  0.00    +0.051 A 
ATOM     22  C   UNL     1       3.724  -0.547   1.675  0.00  0.00    -0.060 A 
ATOM     23  O   UNL     1       1.376   1.797  -0.001  0.00  0.00    -0.453 OA
ATOM     24  C   UNL     1      -0.018   1.436   0.010  0.00  0.00    +0.466 C 
ATOM     25  O   UNL     1       0.002  -0.004   0.002  0.00  0.00    -0.453 OA
ENDBRANCH  16  22
ENDBRANCH  14  16
BRANCH  12  26
ATOM     26  C   UNL     1      11.741  -1.540  -2.770  0.00  0.00    +0.132 C 
BRANCH  26  27
ATOM     27  S   UNL     1      10.899  -0.360  -3.860  0.00  0.00    -0.091 S 
BRANCH  27  28
ATOM     28  C   UNL     1      12.177   0.747  -4.358  0.00  0.00    +0.160 A 
ATOM     29  N   UNL     1      13.456   0.747  -4.035  0.00  0.00    -0.133 NA
ATOM     30  N   UNL     1      14.290   1.716  -4.544  0.00  0.00    -0.125 NA
ATOM     31  C   UNL     1      13.807   2.639  -5.352  0.00  0.00    +0.180 A 
ATOM     32  S   UNL     1      12.088   2.163  -5.443  0.00  0.00    -0.025 S 
ATOM     33  N   UNL     1      14.463   3.696  -5.972  0.00  0.00    -0.336 N 
ATOM     34  H   UNL     1      15.413   3.828  -5.829  0.00  0.00    +0.144 HD
ATOM     35  H   UNL     1      13.970   4.302  -6.547  0.00  0.00    +0.144 HD
ENDBRANCH  27  28
ENDBRANCH  26  27
ENDBRANCH  12  26
TORSDOF 5
