REMARK  Name = ZINC59270412
REMARK  3 active torsions:
REMARK  status: ('A' for Active; 'I' for Inactive)
REMARK    1  A    between atoms: C_6  and  C_7
REMARK    2  A    between atoms: C_7  and  C_9
REMARK    3  A    between atoms: C_10  and  C_11
REMARK                            x       y       z     vdW  Elec       q    Type
REMARK                         _______ _______ _______ _____ _____    ______ ____
ROOT
ATOM      1  C   UNL     1      -1.266  -0.762   0.010  0.00  0.00    +0.186 C 
ATOM      2  O   UNL     1      -1.247  -1.979   0.004  0.00  0.00    -0.287 OA
ENDROOT
BRANCH   1   8
ATOM      3  C   UNL     1      -0.017   1.393   0.010  0.00  0.00    +0.013 A 
ATOM      4  C   UNL     1       1.167   2.097   0.002  0.00  0.00    +0.024 A 
ATOM      5  C   UNL     1       2.381   1.418  -0.013  0.00  0.00    +0.037 A 
ATOM      6  C   UNL     1       2.403   0.026  -0.021  0.00  0.00    -0.025 A 
ATOM      7  C   UNL     1       1.224  -0.683  -0.013  0.00  0.00    +0.017 A 
ATOM      8  C   UNL     1       0.002  -0.004   0.002  0.00  0.00    +0.022 A 
ATOM      9  C   UNL     1       3.722  -0.702  -0.037  0.00  0.00    +0.046 C 
ATOM     10  C   UNL     1       4.739   0.102  -0.847  0.00  0.00    +0.101 C 
ATOM     11  C   UNL     1       4.725   1.540  -0.404  0.00  0.00    +0.218 C 
ATOM     12  O   UNL     1       5.759   2.174  -0.391  0.00  0.00    -0.275 OA
ATOM     13  N   UNL     1       3.579   2.132  -0.021  0.00  0.00    -0.285 N 
ATOM     14  H   UNL     1       3.586   3.063   0.251  0.00  0.00    +0.155 HD
ENDBRANCH   1   8
BRANCH   1  15
ATOM     15  C   UNL     1      -2.504  -0.071   0.026  0.00  0.00    +0.052 C 
ATOM     16  C   UNL     1      -3.665  -0.765   0.034  0.00  0.00    +0.012 C 
BRANCH  16  17
ATOM     17  C   UNL     1      -4.948  -0.050   0.050  0.00  0.00    -0.020 A 
ATOM     18  C   UNL     1      -6.151  -0.766   0.064  0.00  0.00    +0.057 A 
ATOM     19  C   UNL     1      -7.355  -0.089   0.080  0.00  0.00    +0.168 A 
ATOM     20  C   UNL     1      -7.371   1.307   0.083  0.00  0.00    +0.184 A 
ATOM     21  C   UNL     1      -6.177   2.018   0.069  0.00  0.00    +0.087 A 
ATOM     22  C   UNL     1      -4.972   1.350   0.058  0.00  0.00    +0.031 A 
ATOM     23 CL   UNL     1      -6.205   3.754   0.072  0.00  0.00    -0.080 Cl
ATOM     24  O   UNL     1      -8.669   1.726   0.099  0.00  0.00    -0.451 OA
ATOM     25  C   UNL     1      -9.448   0.585  -0.307  0.00  0.00    +0.466 C 
ATOM     26  O   UNL     1      -8.643  -0.540   0.095  0.00  0.00    -0.453 OA
ENDBRANCH  16  17
ENDBRANCH   1  15
TORSDOF 3
