REMARK  Name = ZINC48397893
REMARK  5 active torsions:
REMARK  status: ('A' for Active; 'I' for Inactive)
REMARK    1  A    between atoms: C_3  and  C_6
REMARK    2  A    between atoms: C_6  and  N_7
REMARK    3  A    between atoms: C_8  and  S_12
REMARK    4  A    between atoms: S_12  and  C_13
REMARK    5  A    between atoms: C_13  and  C_14
REMARK                            x       y       z     vdW  Elec       q    Type
REMARK                         _______ _______ _______ _____ _____    ______ ____
ROOT
ATOM      1  N   UNL     1       4.234   2.004   1.353  0.00  0.00    -0.215 N 
ATOM      2  C   UNL     1       4.131   3.103   2.137  0.00  0.00    +0.210 A 
ATOM      3  N   UNL     1       4.685   2.808   3.292  0.00  0.00    -0.101 NA
ATOM      4  N   UNL     1       5.127   1.602   3.284  0.00  0.00    -0.022 NA
ATOM      5  N   UNL     1       4.887   1.044   2.147  0.00  0.00    -0.043 NA
ENDROOT
BRANCH   1   6
ATOM      6  C   UNL     1       3.761   1.845  -0.024  0.00  0.00    +0.190 C 
BRANCH   6   9
ATOM      7  C   UNL     1      -0.016   1.351   0.009  0.00  0.00    +0.008 A 
ATOM      8  C   UNL     1       1.183   2.038   0.002  0.00  0.00    +0.013 A 
ATOM      9  C   UNL     1       2.343   1.336  -0.013  0.00  0.00    +0.011 A 
ATOM     10  S   UNL     1       1.754  -0.349  -0.017  0.00  0.00    -0.100 S 
ATOM     11  C   UNL     1       0.002  -0.004   0.002  0.00  0.00    +0.045 A 
ENDBRANCH   6   9
ENDBRANCH   1   6
BRANCH   2  12
ATOM     12  S   UNL     1       3.393   4.640   1.692  0.00  0.00    -0.080 S 
BRANCH  12  13
ATOM     13  C   UNL     1       3.587   5.665   3.176  0.00  0.00    +0.112 C 
BRANCH  13  14
ATOM     14  C   UNL     1       2.989   7.027   2.927  0.00  0.00    -0.037 A 
ATOM     15  C   UNL     1       3.771   8.038   2.401  0.00  0.00    +0.006 A 
ATOM     16  C   UNL     1       3.224   9.287   2.173  0.00  0.00    +0.020 A 
ATOM     17  C   UNL     1       1.893   9.524   2.471  0.00  0.00    +0.041 A 
ATOM     18  C   UNL     1       1.112   8.511   2.998  0.00  0.00    +0.020 A 
ATOM     19  C   UNL     1       1.659   7.261   3.220  0.00  0.00    +0.006 A 
ATOM     20 CL   UNL     1       1.206  11.092   2.185  0.00  0.00    -0.084 Cl
ENDBRANCH  13  14
ENDBRANCH  12  13
ENDBRANCH   2  12
TORSDOF 5
