REMARK  Name = ZINC00870772
REMARK  13 active torsions:
REMARK  status: ('A' for Active; 'I' for Inactive)
REMARK    1  A    between atoms: C_1  and  C_2
REMARK    2  A    between atoms: C_3  and  C_32
REMARK    3  A    between atoms: C_4  and  C_25
REMARK    4  A    between atoms: C_10  and  C_15
REMARK    5  A    between atoms: C_18  and  O_23
REMARK    6  A    between atoms: C_19  and  O_21
REMARK    7  A    between atoms: O_21  and  C_22
REMARK    8  A    between atoms: O_23  and  C_24
REMARK    9  A    between atoms: C_28  and  O_31
REMARK   10  A    between atoms: C_32  and  O_34
REMARK   11  A    between atoms: O_34  and  C_35
REMARK   12  A    between atoms: C_35  and  C_36
REMARK   13  A    between atoms: C_35  and  C_37
REMARK                            x       y       z     vdW  Elec       q    Type
REMARK                         _______ _______ _______ _____ _____    ______ ____
ROOT
ATOM      1  C   UNL     1       2.361  -0.231   0.213  0.00  0.00    +0.061 C 
ATOM      2  C   UNL     1       2.365   1.271   0.094  0.00  0.00    +0.016 C 
ATOM      3  C   UNL     1       1.230   1.919  -0.221  0.00  0.00    +0.065 C 
ATOM      4  C   UNL     1       1.193   3.415  -0.334  0.00  0.00    +0.092 C 
ATOM      5  C   UNL     1       2.582   3.980  -0.491  0.00  0.00    +0.024 C 
ATOM      6  C   UNL     1       3.667   3.245  -0.165  0.00  0.00    +0.016 C 
ATOM      7  N   UNL     1       3.524   1.966   0.302  0.00  0.00    -0.321 N 
ATOM      8  C   UNL     1       5.058   3.810  -0.301  0.00  0.00    +0.059 C 
ATOM      9  C   UNL     1       5.095   4.812  -1.458  0.00  0.00    +0.032 C 
ATOM     10  C   UNL     1       4.069   5.916  -1.177  0.00  0.00    +0.088 C 
ATOM     11  C   UNL     1       2.715   5.289  -0.985  0.00  0.00    +0.162 C 
ATOM     12  O   UNL     1       1.719   5.926  -1.263  0.00  0.00    -0.292 OA
ATOM     13  H   UNL     1       4.355   1.497   0.850  0.00  0.00    +0.152 HD
ENDROOT
BRANCH   9  14
ATOM     14  C   UNL     1       6.473   5.412  -1.565  0.00  0.00    -0.040 A 
ATOM     15  C   UNL     1       7.005   6.114  -0.499  0.00  0.00    +0.008 A 
ATOM     16  C   UNL     1       8.269   6.666  -0.593  0.00  0.00    +0.049 A 
ATOM     17  C   UNL     1       9.006   6.515  -1.756  0.00  0.00    +0.161 A 
ATOM     18  C   UNL     1       8.471   5.808  -2.829  0.00  0.00    +0.162 A 
ATOM     19  C   UNL     1       7.206   5.253  -2.726  0.00  0.00    +0.053 A 
BRANCH  18  20
ATOM     20  O   UNL     1       9.191   5.657  -3.973  0.00  0.00    -0.491 OA
ATOM     21  C   UNL     1       8.579   4.919  -5.032  0.00  0.00    +0.277 C 
ENDBRANCH  18  20
BRANCH  17  22
ATOM     22  O   UNL     1      10.250   7.057  -1.850  0.00  0.00    -0.491 OA
ATOM     23  C   UNL     1      10.735   7.769  -0.710  0.00  0.00    +0.277 C 
ENDBRANCH  17  22
ENDBRANCH   9  14
BRANCH   4  24
ATOM     24  C   UNL     1       0.562   3.989   0.908  0.00  0.00    -0.035 A 
ATOM     25  C   UNL     1       1.132   3.752   2.145  0.00  0.00    +0.008 A 
ATOM     26  C   UNL     1       0.559   4.283   3.284  0.00  0.00    +0.046 A 
ATOM     27  C   UNL     1      -0.597   5.044   3.187  0.00  0.00    +0.117 A 
ATOM     28  C   UNL     1      -1.170   5.276   1.946  0.00  0.00    +0.046 A 
ATOM     29  C   UNL     1      -0.590   4.748   0.809  0.00  0.00    +0.008 A 
BRANCH  27  30
ATOM     30  O   UNL     1      -1.167   5.562   4.307  0.00  0.00    -0.507 OA
ATOM     31  H   UNL     1      -2.083   6.166   4.230  0.00  0.00    +0.292 HD
ENDBRANCH  27  30
ENDBRANCH   4  24
BRANCH   3  32
ATOM     32  C   UNL     1       0.047   1.177  -0.444  0.00  0.00    +0.338 C 
ATOM     33  O   UNL     1       0.087  -0.039  -0.471  0.00  0.00    -0.245 OA
BRANCH  32  34
ATOM     34  O   UNL     1      -1.126   1.817  -0.632  0.00  0.00    -0.459 OA
BRANCH  34  35
ATOM     35  C   UNL     1      -2.280   1.005  -0.858  0.00  0.00    +0.171 C 
ATOM     36  C   UNL     1      -2.941   0.675   0.481  0.00  0.00    +0.052 C 
ATOM     37  C   UNL     1      -3.271   1.762  -1.744  0.00  0.00    +0.052 C 
ENDBRANCH  34  35
ENDBRANCH  32  34
ENDBRANCH   3  32
TORSDOF 8
