REMARK  Name = ZINC00612419
REMARK  4 active torsions:
REMARK  status: ('A' for Active; 'I' for Inactive)
REMARK    1  A    between atoms: C_4  and  C_7
REMARK    2  A    between atoms: C_7  and  C_8
REMARK    3  A    between atoms: C_8  and  C_9
REMARK    4  A    between atoms: C_12  and  C_17
REMARK                            x       y       z     vdW  Elec       q    Type
REMARK                         _______ _______ _______ _____ _____    ______ ____
ROOT
ATOM      1  C   UNL     1       5.487  -1.699   1.381  0.00  0.00    +0.103 A 
ATOM      2  N   UNL     1       6.191  -2.088   0.361  0.00  0.00    -0.160 NA
ATOM      3  N   UNL     1       7.394  -2.761   0.526  0.00  0.00    -0.186 N 
ATOM      4  C   UNL     1       8.407  -3.325  -0.237  0.00  0.00    +0.187 A 
ATOM      5  N   UNL     1       9.297  -3.828   0.588  0.00  0.00    -0.126 NA
ATOM      6  N   UNL     1       8.928  -3.627   1.806  0.00  0.00    -0.120 NA
ATOM      7  C   UNL     1       7.794  -2.992   1.819  0.00  0.00    +0.218 A 
ATOM      8  S   UNL     1       6.481  -2.253   2.758  0.00  0.00    -0.031 S 
ENDROOT
BRANCH   4   9
ATOM      9  C   UNL     1       8.473  -3.356  -1.712  0.00  0.00    +0.039 A 
ATOM     10  C   UNL     1       7.454  -2.776  -2.472  0.00  0.00    +0.013 A 
ATOM     11  C   UNL     1       7.522  -2.807  -3.849  0.00  0.00    +0.001 A 
ATOM     12  C   UNL     1       8.596  -3.411  -4.479  0.00  0.00    +0.001 A 
ATOM     13  C   UNL     1       9.608  -3.988  -3.734  0.00  0.00    +0.021 A 
ATOM     14  C   UNL     1       9.556  -3.959  -2.354  0.00  0.00    +0.052 A 
ATOM     15 CL   UNL     1      10.831  -4.678  -1.421  0.00  0.00    -0.083 Cl
ENDBRANCH   4   9
BRANCH   1  16
ATOM     16  C   UNL     1       4.171  -0.963   1.399  0.00  0.00    +0.069 C 
BRANCH  16  17
ATOM     17  C   UNL     1       3.711  -0.707  -0.038  0.00  0.00    +0.042 C 
BRANCH  17  21
ATOM     18  C   UNL     1      -0.017   1.378   0.010  0.00  0.00    +0.000 A 
ATOM     19  C   UNL     1       1.171   2.086   0.002  0.00  0.00    +0.000 A 
ATOM     20  C   UNL     1       2.377   1.411  -0.013  0.00  0.00    +0.003 A 
ATOM     21  C   UNL     1       2.396   0.029  -0.020  0.00  0.00    -0.047 A 
ATOM     22  C   UNL     1       1.208  -0.679  -0.012  0.00  0.00    +0.003 A 
ATOM     23  C   UNL     1       0.002  -0.004   0.002  0.00  0.00    +0.000 A 
ENDBRANCH  17  21
ENDBRANCH  16  17
ENDBRANCH   1  16
TORSDOF 4
