REMARK  Name = ZINC40562324
REMARK  7 active torsions:
REMARK  status: ('A' for Active; 'I' for Inactive)
REMARK    1  A    between atoms: C_1  and  C_2
REMARK    2  A    between atoms: C_2  and  C_4
REMARK    3  A    between atoms: C_2  and  O_28
REMARK    4  A    between atoms: N_6  and  C_7
REMARK    5  A    between atoms: C_15  and  C_16
REMARK    6  A    between atoms: C_16  and  C_18
REMARK    7  A    between atoms: O_28  and  C_29
REMARK                            x       y       z     vdW  Elec       q    Type
REMARK                         _______ _______ _______ _____ _____    ______ ____
ROOT
ATOM      1  C   UNL     1       0.890  -0.981   3.410  0.00  0.00    +0.091 A 
ATOM      2  C   UNL     1       0.283  -1.303   4.708  0.00  0.00    +0.042 A 
ATOM      3  C   UNL     1      -0.986  -1.117   5.257  0.00  0.00    +0.013 A 
ATOM      4  C   UNL     1      -1.242  -1.541   6.531  0.00  0.00    +0.001 A 
ATOM      5  C   UNL     1      -0.248  -2.154   7.280  0.00  0.00    +0.004 A 
ATOM      6  C   UNL     1       1.012  -2.346   6.755  0.00  0.00    +0.047 A 
ATOM      7  C   UNL     1       1.295  -1.924   5.461  0.00  0.00    +0.138 A 
ATOM      8  O   UNL     1       2.408  -1.977   4.702  0.00  0.00    -0.450 OA
ATOM      9  C   UNL     1       2.193  -1.432   3.484  0.00  0.00    +0.197 A 
ENDROOT
BRANCH   1  12
ATOM     10  C   UNL     1      -0.720   0.523   2.538  0.00  0.00    +0.258 C 
ATOM     11  O   UNL     1      -1.024   0.841   3.668  0.00  0.00    -0.271 OA
ATOM     12  N   UNL     1       0.278  -0.358   2.331  0.00  0.00    -0.279 N 
ATOM     13  H   UNL     1       0.569  -0.558   1.427  0.00  0.00    +0.155 HD
BRANCH  10  15
ATOM     14  C   UNL     1      -2.219   0.010   0.631  0.00  0.00    +0.062 C 
ATOM     15  C   UNL     1      -1.458   1.116   1.365  0.00  0.00    +0.256 C 
BRANCH  15  16
ATOM     16  O   UNL     1      -2.382   2.101   1.832  0.00  0.00    -0.480 OA
BRANCH  16  17
ATOM     17  C   UNL     1      -2.636   3.150   1.006  0.00  0.00    +0.122 A 
ATOM     18  C   UNL     1      -3.421   4.206   1.445  0.00  0.00    +0.047 A 
ATOM     19  C   UNL     1      -3.678   5.271   0.604  0.00  0.00    +0.023 A 
ATOM     20  C   UNL     1      -3.153   5.285  -0.676  0.00  0.00    +0.041 A 
ATOM     21  C   UNL     1      -2.370   4.232  -1.116  0.00  0.00    +0.023 A 
ATOM     22  C   UNL     1      -2.106   3.168  -0.276  0.00  0.00    +0.047 A 
ATOM     23 CL   UNL     1      -3.477   6.624  -1.732  0.00  0.00    -0.084 Cl
ENDBRANCH  16  17
ENDBRANCH  15  16
ENDBRANCH  10  15
ENDBRANCH   1  12
BRANCH   9  24
ATOM     24  C   UNL     1       3.154  -1.335   2.447  0.00  0.00    +0.230 C 
ATOM     25  O   UNL     1       2.830  -0.906   1.354  0.00  0.00    -0.283 OA
BRANCH  24  26
ATOM     26  C   UNL     1       4.549  -1.754   2.692  0.00  0.00    +0.029 A 
ATOM     27  C   UNL     1       4.890  -2.389   3.889  0.00  0.00    +0.015 A 
ATOM     28  C   UNL     1       6.192  -2.777   4.116  0.00  0.00    +0.050 A 
ATOM     29  C   UNL     1       7.171  -2.540   3.157  0.00  0.00    +0.162 A 
ATOM     30  C   UNL     1       6.837  -1.909   1.961  0.00  0.00    +0.163 A 
ATOM     31  C   UNL     1       5.530  -1.522   1.726  0.00  0.00    +0.061 A 
ATOM     32  O   UNL     1       7.782  -1.677   1.008  0.00  0.00    -0.485 OA
ATOM     33  C   UNL     1       9.149  -1.749   1.428  0.00  0.00    +0.270 C 
ATOM     34  C   UNL     1       9.325  -3.017   2.274  0.00  0.00    +0.270 C 
ATOM     35  O   UNL     1       8.450  -2.928   3.404  0.00  0.00    -0.485 OA
ENDBRANCH  24  26
ENDBRANCH   9  24
TORSDOF 6
