REMARK  Name = ZINC39687478
REMARK  8 active torsions:
REMARK  status: ('A' for Active; 'I' for Inactive)
REMARK    1  A    between atoms: C_1  and  C_2
REMARK    2  A    between atoms: C_2  and  C_3
REMARK    3  A    between atoms: C_3  and  C_4
REMARK    4  A    between atoms: C_4  and  C_5
REMARK    5  A    between atoms: C_5  and  C_7
REMARK    6  A    between atoms: C_5  and  C_8
REMARK    7  A    between atoms: C_12  and  C_21
REMARK    8  A    between atoms: N_23  and  C_24
REMARK                            x       y       z     vdW  Elec       q    Type
REMARK                         _______ _______ _______ _____ _____    ______ ____
ROOT
ATOM      1  C   UNL     1       1.433  -3.978  -2.534  0.00  0.00    +0.218 C 
ATOM      2  O   UNL     1       0.789  -4.594  -1.711  0.00  0.00    -0.275 OA
ATOM      3  N   UNL     1       2.111  -4.641  -3.492  0.00  0.00    -0.300 N 
ATOM      4  C   UNL     1       3.031  -4.077  -4.508  0.00  0.00    +0.121 C 
ATOM      5  C   UNL     1       4.182  -5.103  -4.605  0.00  0.00    +0.100 C 
ATOM      6  C   UNL     1       3.569  -6.427  -4.119  0.00  0.00    -0.004 C 
ATOM      7  C   UNL     1       2.112  -6.098  -3.762  0.00  0.00    +0.115 C 
ATOM      8  C   UNL     1       3.619  -7.472  -5.230  0.00  0.00    -0.010 C 
ATOM      9  C   UNL     1       3.058  -8.796  -4.704  0.00  0.00    -0.082 C 
ATOM     10  N   UNL     1       3.848  -9.241  -3.550  0.00  0.00    +0.379 N 
ATOM     11  C   UNL     1       3.720  -8.275  -2.452  0.00  0.00    -0.082 C 
ATOM     12  C   UNL     1       4.309  -6.929  -2.883  0.00  0.00    -0.010 C 
ATOM     13  H   UNL     1       3.515 -10.143  -3.244  0.00  0.00    -0.086 HD
ATOM     14  H   UNL     1       4.818  -9.317  -3.818  0.00  0.00    -0.086 HD
ENDROOT
BRANCH   5  15
ATOM     15  C   UNL     1       4.651  -5.232  -6.032  0.00  0.00    +0.218 C 
ATOM     16  O   UNL     1       3.857  -5.131  -6.943  0.00  0.00    -0.275 OA
ATOM     17  N   UNL     1       5.953  -5.459  -6.295  0.00  0.00    -0.312 N 
ATOM     18  H   UNL     1       6.588  -5.539  -5.566  0.00  0.00    +0.149 HD
BRANCH  17  19
ATOM     19  C   UNL     1       6.409  -5.584  -7.682  0.00  0.00    +0.076 C 
ATOM     20  C   UNL     1       6.211  -7.026  -8.155  0.00  0.00    +0.041 C 
ATOM     21  C   UNL     1       6.657  -7.144  -9.616  0.00  0.00    +0.108 C 
ATOM     22  N   UNL     1       8.038  -6.656  -9.731  0.00  0.00    -0.317 N 
ATOM     23  C   UNL     1       8.357  -5.315  -9.222  0.00  0.00    +0.108 C 
ATOM     24  C   UNL     1       7.892  -5.216  -7.766  0.00  0.00    +0.041 C 
ATOM     25  C   UNL     1       9.023  -7.447 -10.309  0.00  0.00    +0.099 A 
ATOM     26  C   UNL     1      10.349  -7.026 -10.282  0.00  0.00    +0.042 A 
ATOM     27  C   UNL     1      11.320  -7.823 -10.861  0.00  0.00    +0.005 A 
ATOM     28  C   UNL     1      10.931  -9.019 -11.450  0.00  0.00    +0.018 A 
ATOM     29  C   UNL     1       9.597  -9.375 -11.440  0.00  0.00    +0.084 A 
ATOM     30  N   UNL     1       8.693  -8.597 -10.875  0.00  0.00    -0.350 N 
ATOM     31  H   UNL     1       7.763  -8.873 -10.879  0.00  0.00    +0.166 HD
ENDBRANCH  17  19
ENDBRANCH   5  15
BRANCH   1  32
ATOM     32  C   UNL     1       1.474  -2.473  -2.485  0.00  0.00    +0.072 C 
ATOM     33  C   UNL     1       2.707  -2.022  -1.699  0.00  0.00    +0.017 C 
BRANCH  32  34
ATOM     34  C   UNL     1       0.211  -1.950  -1.798  0.00  0.00    +0.012 C 
BRANCH  34  35
ATOM     35  C   UNL     1       0.193  -0.421  -1.859  0.00  0.00    +0.000 C 
BRANCH  35  37
ATOM     36  C   UNL     1      -1.088   1.630  -1.232  0.00  0.00    +0.004 C 
ATOM     37  C   UNL     1      -1.070   0.102  -1.171  0.00  0.00    -0.003 C 
ENDBRANCH  35  37
ENDBRANCH  34  35
ENDBRANCH  32  34
ENDBRANCH   1  32
TORSDOF 6
