REMARK  Name = ZINC09777222
REMARK  13 active torsions:
REMARK  status: ('A' for Active; 'I' for Inactive)
REMARK    1  A    between atoms: C_1  and  C_2
REMARK    2  A    between atoms: C_7  and  N_12
REMARK    3  A    between atoms: C_9  and  C_11
REMARK    4  A    between atoms: C_13  and  C_15
REMARK    5  A    between atoms: C_23  and  C_35
REMARK    6  A    between atoms: N_29  and  C_30
REMARK    7  A    between atoms: C_30  and  C_31
REMARK    8  A    between atoms: C_31  and  C_32
REMARK    9  A    between atoms: C_32  and  C_33
REMARK   10  A    between atoms: C_32  and  C_34
REMARK   11  A    between atoms: N_37  and  C_38
REMARK   12  A    between atoms: C_41  and  O_44
REMARK   13  A    between atoms: O_44  and  C_45
REMARK                            x       y       z     vdW  Elec       q    Type
REMARK                         _______ _______ _______ _____ _____    ______ ____
ROOT
ATOM      1  C   UNL     1      -0.928  -4.057  -1.475  0.00  0.00    +0.198 C 
ATOM      2  C   UNL     1      -1.349  -2.620  -1.458  0.00  0.00    +0.127 C 
ATOM      3  C   UNL     1      -0.561  -1.763  -2.432  0.00  0.00    +0.009 C 
ATOM      4  C   UNL     1      -1.048  -0.537  -2.308  0.00  0.00    +0.004 C 
ATOM      5  C   UNL     1      -2.104  -0.640  -1.200  0.00  0.00    +0.155 C 
ATOM      6  O   UNL     1      -2.621  -2.018  -1.417  0.00  0.00    -0.358 OA
ATOM      7  C   UNL     1      -1.214  -0.820   0.091  0.00  0.00    +0.123 C 
ATOM      8  C   UNL     1      -0.869  -2.286   0.012  0.00  0.00    +0.128 C 
ATOM      9  C   UNL     1       0.479  -2.881  -0.010  0.00  0.00    +0.223 C 
ATOM     10  O   UNL     1       1.461  -2.466   0.569  0.00  0.00    -0.275 OA
ATOM     11  N   UNL     1       0.412  -3.994  -0.813  0.00  0.00    -0.287 N 
ENDROOT
BRANCH   1  13
ATOM     12  N   UNL     1      -1.911  -4.934  -3.569  0.00  0.00    -0.311 N 
ATOM     13  C   UNL     1      -0.807  -4.565  -2.889  0.00  0.00    +0.237 C 
ATOM     14  O   UNL     1       0.283  -4.643  -3.414  0.00  0.00    -0.274 OA
ATOM     15  H   UNL     1      -2.783  -4.872  -3.149  0.00  0.00    +0.149 HD
BRANCH  12  21
ATOM     16  C   UNL     1      -4.061  -7.743  -7.023  0.00  0.00    +0.008 C 
ATOM     17  C   UNL     1      -2.865  -6.844  -6.701  0.00  0.00    -0.009 C 
ATOM     18  C   UNL     1      -2.842  -5.659  -7.669  0.00  0.00    +0.003 C 
ATOM     19  C   UNL     1      -1.647  -4.760  -7.346  0.00  0.00    +0.002 C 
ATOM     20  C   UNL     1      -1.770  -4.244  -5.911  0.00  0.00    +0.022 C 
ATOM     21  C   UNL     1      -1.793  -5.428  -4.943  0.00  0.00    +0.076 C 
ATOM     22  C   UNL     1      -2.988  -6.327  -5.266  0.00  0.00    +0.009 C 
ATOM     23  C   UNL     1      -3.011  -7.512  -4.298  0.00  0.00    +0.009 C 
ENDBRANCH  12  21
ENDBRANCH   1  13
BRANCH   7  24
ATOM     24  C   UNL     1       0.026   0.033   0.017  0.00  0.00    +0.224 C 
ATOM     25  O   UNL     1       1.007  -0.373  -0.569  0.00  0.00    -0.275 OA
ATOM     26  N   UNL     1       0.045   1.247   0.602  0.00  0.00    -0.285 N 
ATOM     27  H   UNL     1      -0.760   1.600   1.013  0.00  0.00    +0.155 HD
BRANCH  26  28
ATOM     28  C   UNL     1       1.225   2.001   0.612  0.00  0.00    +0.034 A 
ATOM     29  C   UNL     1       1.527   2.804   1.704  0.00  0.00    +0.027 A 
ATOM     30  C   UNL     1       2.693   3.545   1.714  0.00  0.00    +0.047 A 
ATOM     31  C   UNL     1       3.557   3.494   0.630  0.00  0.00    +0.120 A 
ATOM     32  C   UNL     1       3.254   2.696  -0.463  0.00  0.00    +0.047 A 
ATOM     33  C   UNL     1       2.091   1.951  -0.473  0.00  0.00    +0.027 A 
BRANCH  31  34
ATOM     34  O   UNL     1       4.702   4.227   0.639  0.00  0.00    -0.495 OA
ATOM     35  C   UNL     1       4.951   5.027   1.797  0.00  0.00    +0.277 C 
ENDBRANCH  31  34
ENDBRANCH  26  28
ENDBRANCH   7  24
BRANCH  11  36
ATOM     36  C   UNL     1       1.489  -4.971  -0.992  0.00  0.00    +0.109 C 
BRANCH  36  37
ATOM     37  C   UNL     1       1.352  -6.079   0.054  0.00  0.00    +0.022 C 
BRANCH  37  38
ATOM     38  C   UNL     1       2.477  -7.100  -0.133  0.00  0.00    -0.016 C 
ATOM     39  C   UNL     1       3.823  -6.434   0.156  0.00  0.00    +0.007 C 
ATOM     40  C   UNL     1       2.269  -8.270   0.830  0.00  0.00    +0.007 C 
ENDBRANCH  37  38
ENDBRANCH  36  37
ENDBRANCH  11  36
TORSDOF 8
