REMARK  Name = ZINC67101655
REMARK  9 active torsions:
REMARK  status: ('A' for Active; 'I' for Inactive)
REMARK    1  A    between atoms: C_4  and  C_7
REMARK    2  A    between atoms: C_7  and  C_8
REMARK    3  A    between atoms: C_8  and  C_9
REMARK    4  A    between atoms: N_11  and  N_12
REMARK    5  A    between atoms: N_15  and  C_16
REMARK    6  A    between atoms: C_16  and  C_17
REMARK    7  A    between atoms: C_17  and  N_18
REMARK    8  A    between atoms: C_19  and  C_21
REMARK    9  A    between atoms: C_21  and  C_22
REMARK                            x       y       z     vdW  Elec       q    Type
REMARK                         _______ _______ _______ _____ _____    ______ ____
ROOT
ATOM      1  N   UNL     1       4.685  -4.293   4.910  0.00  0.00    -0.218 N 
ATOM      2  C   UNL     1       4.917  -5.612   5.064  0.00  0.00    +0.316 C 
ATOM      3  O   UNL     1       5.505  -6.015   6.049  0.00  0.00    -0.251 OA
ATOM      4  N   UNL     1       4.496  -6.484   4.127  0.00  0.00    -0.297 N 
ATOM      5  H   UNL     1       4.988  -3.665   5.585  0.00  0.00    +0.174 HD
ATOM      6  H   UNL     1       4.027  -6.163   3.341  0.00  0.00    +0.150 HD
ENDROOT
BRANCH   1   9
ATOM      7  C   UNL     1       3.776  -2.510   3.620  0.00  0.00    +0.229 C 
ATOM      8  O   UNL     1       4.154  -1.725   4.464  0.00  0.00    -0.274 OA
ATOM      9  N   UNL     1       4.008  -3.829   3.775  0.00  0.00    -0.233 N 
ATOM     10  H   UNL     1       3.705  -4.457   3.100  0.00  0.00    +0.173 HD
BRANCH   7  11
ATOM     11  C   UNL     1       3.047  -2.011   2.400  0.00  0.00    +0.097 C 
BRANCH  11  12
ATOM     12  C   UNL     1       2.917  -0.488   2.470  0.00  0.00    +0.013 C 
BRANCH  12  16
ATOM     13  C   UNL     1      -0.019   1.526   0.010  0.00  0.00    +0.000 C 
ATOM     14  C   UNL     1       1.417   2.055  -0.000  0.00  0.00    +0.000 C 
ATOM     15  C   UNL     1       2.157   1.548   1.239  0.00  0.00    +0.003 C 
ATOM     16  C   UNL     1       2.178   0.019   1.231  0.00  0.00    -0.011 C 
ATOM     17  C   UNL     1       0.742  -0.511   1.242  0.00  0.00    +0.003 C 
ATOM     18  C   UNL     1       0.002  -0.004   0.002  0.00  0.00    +0.000 C 
ENDBRANCH  12  16
ENDBRANCH  11  12
ENDBRANCH   7  11
ENDBRANCH   1   9
BRANCH   4  19
ATOM     19  C   UNL     1       4.748  -7.918   4.295  0.00  0.00    +0.124 C 
BRANCH  19  20
ATOM     20  C   UNL     1       4.173  -8.680   3.099  0.00  0.00    +0.123 C 
BRANCH  20  21
ATOM     21  N   UNL     1       4.424 -10.113   3.267  0.00  0.00    -0.314 N 
ATOM     22  C   UNL     1       4.004 -10.985   2.329  0.00  0.00    +0.213 C 
ATOM     23  O   UNL     1       3.417 -10.584   1.347  0.00  0.00    -0.276 OA
ATOM     24  H   UNL     1       4.893 -10.434   4.053  0.00  0.00    +0.149 HD
BRANCH  22  25
ATOM     25  C   UNL     1       4.263 -12.460   2.502  0.00  0.00    +0.099 C 
BRANCH  25  26
ATOM     26  C   UNL     1       3.688 -13.222   1.306  0.00  0.00    -0.002 C 
ATOM     27  C   UNL     1       2.164 -13.077   1.294  0.00  0.00    +0.004 C 
ATOM     28  C   UNL     1       1.589 -13.839   0.099  0.00  0.00    +0.000 C 
ATOM     29  C   UNL     1       1.960 -15.319   0.211  0.00  0.00    +0.000 C 
ATOM     30  C   UNL     1       3.483 -15.464   0.224  0.00  0.00    +0.000 C 
ATOM     31  C   UNL     1       4.058 -14.702   1.419  0.00  0.00    +0.004 C 
ENDBRANCH  25  26
ENDBRANCH  22  25
ENDBRANCH  20  21
ENDBRANCH  19  20
ENDBRANCH   4  19
TORSDOF 9
