REMARK  Name = ZINC22056658
REMARK  11 active torsions:
REMARK  status: ('A' for Active; 'I' for Inactive)
REMARK    1  A    between atoms: C_1  and  C_2
REMARK    2  A    between atoms: C_8  and  C_10
REMARK    3  A    between atoms: C_10  and  C_12
REMARK    4  A    between atoms: C_10  and  S_13
REMARK    5  A    between atoms: S_13  and  C_14
REMARK    6  A    between atoms: C_17  and  C_20
REMARK    7  A    between atoms: N_18  and  N_19
REMARK    8  A    between atoms: C_23  and  C_26
REMARK    9  A    between atoms: C_26  and  C_27
REMARK   10  A    between atoms: C_26  and  C_28
REMARK   11  A    between atoms: C_26  and  C_29
REMARK                            x       y       z     vdW  Elec       q    Type
REMARK                         _______ _______ _______ _____ _____    ______ ____
ROOT
ATOM      1  C   UNL     1      -0.576   7.447  -4.722  0.00  0.00    +0.209 A 
ATOM      2  N   UNL     1      -1.673   6.834  -5.106  0.00  0.00    -0.121 NA
ATOM      3  N   UNL     1      -2.160   7.411  -6.146  0.00  0.00    -0.127 NA
ATOM      4  C   UNL     1      -1.399   8.421  -6.495  0.00  0.00    +0.182 A 
ATOM      5  N   UNL     1      -0.360   8.476  -5.594  0.00  0.00    -0.224 N 
ENDROOT
BRANCH   4   6
ATOM      6  C   UNL     1      -1.615   9.330  -7.642  0.00  0.00    +0.021 A 
ATOM      7  C   UNL     1      -2.865   9.391  -8.261  0.00  0.00    +0.012 A 
ATOM      8  C   UNL     1      -3.062  10.244  -9.326  0.00  0.00    +0.005 A 
ATOM      9  C   UNL     1      -2.021  11.030  -9.789  0.00  0.00    -0.042 A 
ATOM     10  C   UNL     1      -0.778  10.970  -9.184  0.00  0.00    +0.005 A 
ATOM     11  C   UNL     1      -0.570  10.125  -8.113  0.00  0.00    +0.012 A 
BRANCH   9  12
ATOM     12  C   UNL     1      -2.242  11.955 -10.958  0.00  0.00    -0.013 C 
ATOM     13  C   UNL     1      -1.292  11.575 -12.096  0.00  0.00    +0.015 C 
ATOM     14  C   UNL     1      -3.689  11.833 -11.439  0.00  0.00    +0.015 C 
ATOM     15  C   UNL     1      -1.969  13.397 -10.526  0.00  0.00    +0.015 C 
ENDBRANCH   9  12
ENDBRANCH   4   6
BRANCH   5  16
ATOM     16  N   UNL     1       0.671   9.371  -5.576  0.00  0.00    -0.295 N 
ATOM     17  H   UNL     1       0.729  10.159  -6.342  0.00  0.00    +0.163 HD
ATOM     18  H   UNL     1       1.443   9.305  -4.795  0.00  0.00    +0.163 HD
ENDBRANCH   5  16
BRANCH   1  19
ATOM     19  S   UNL     1       0.434   7.018  -3.343  0.00  0.00    -0.072 S 
BRANCH  19  20
ATOM     20  C   UNL     1      -0.487   5.594  -2.710  0.00  0.00    +0.137 C 
ATOM     21  C   UNL     1      -0.452   4.465  -3.742  0.00  0.00    +0.029 C 
BRANCH  20  29
ATOM     22  C   UNL     1      -1.767   0.485   0.718  0.00  0.00    +0.007 C 
ATOM     23  C   UNL     1      -1.603   2.002   0.602  0.00  0.00    -0.011 C 
ATOM     24  C   UNL     1      -2.091   2.464  -0.773  0.00  0.00    +0.022 C 
ATOM     25  C   UNL     1      -1.958   3.986  -0.872  0.00  0.00    +0.108 C 
ATOM     26  N   UNL     1      -0.570   4.360  -0.568  0.00  0.00    -0.301 N 
ATOM     27  C   UNL     1       0.029   3.891   0.689  0.00  0.00    +0.108 C 
ATOM     28  C   UNL     1      -0.127   2.369   0.771  0.00  0.00    +0.022 C 
ATOM     29  C   UNL     1       0.141   5.120  -1.425  0.00  0.00    +0.229 C 
ATOM     30  O   UNL     1       1.286   5.422  -1.162  0.00  0.00    -0.274 OA
ENDBRANCH  20  29
ENDBRANCH  19  20
ENDBRANCH   1  19
TORSDOF 6
