REMARK  Name = ZINC15017246
REMARK  7 active torsions:
REMARK  status: ('A' for Active; 'I' for Inactive)
REMARK    1  A    between atoms: C_1  and  C_2
REMARK    2  A    between atoms: C_2  and  C_3
REMARK    3  A    between atoms: C_2  and  C_4
REMARK    4  A    between atoms: C_2  and  C_5
REMARK    5  A    between atoms: C_8  and  C_11
REMARK    6  A    between atoms: C_17  and  C_20
REMARK    7  A    between atoms: C_25  and  O_26
REMARK                            x       y       z     vdW  Elec       q    Type
REMARK                         _______ _______ _______ _____ _____    ______ ____
ROOT
ATOM      1  C   UNL     1       2.695  -1.860  -4.732  0.00  0.00    +0.186 A 
ATOM      2  N   UNL     1       2.291  -2.822  -5.538  0.00  0.00    -0.126 NA
ATOM      3  N   UNL     1       3.134  -2.976  -6.505  0.00  0.00    -0.120 NA
ATOM      4  C   UNL     1       4.106  -2.131  -6.373  0.00  0.00    +0.213 A 
ATOM      5  N   UNL     1       3.871  -1.383  -5.237  0.00  0.00    -0.186 N 
ATOM      6  N   UNL     1       4.733  -0.387  -4.795  0.00  0.00    -0.166 NA
ATOM      7  C   UNL     1       5.624   0.177  -5.528  0.00  0.00    +0.083 C 
ATOM      8  C   UNL     1       5.879  -0.088  -6.983  0.00  0.00    +0.135 C 
ATOM      9  S   UNL     1       5.539  -1.841  -7.363  0.00  0.00    -0.078 S 
ENDROOT
BRANCH   1  13
ATOM     10  C   UNL     1       0.707  -0.490  -1.238  0.00  0.00    -0.042 A 
ATOM     11  C   UNL     1       0.033  -1.285  -2.147  0.00  0.00    +0.005 A 
ATOM     12  C   UNL     1       0.672  -1.733  -3.284  0.00  0.00    +0.012 A 
ATOM     13  C   UNL     1       2.003  -1.383  -3.517  0.00  0.00    +0.021 A 
ATOM     14  C   UNL     1       2.678  -0.580  -2.595  0.00  0.00    +0.012 A 
ATOM     15  C   UNL     1       2.025  -0.135  -1.464  0.00  0.00    +0.005 A 
BRANCH  10  17
ATOM     16  C   UNL     1      -0.019   1.526   0.010  0.00  0.00    +0.015 C 
ATOM     17  C   UNL     1       0.002  -0.004   0.002  0.00  0.00    -0.013 C 
ATOM     18  C   UNL     1       0.742  -0.511   1.242  0.00  0.00    +0.015 C 
ATOM     19  C   UNL     1      -1.433  -0.534   0.013  0.00  0.00    +0.015 C 
ENDBRANCH  10  17
ENDBRANCH   1  13
BRANCH   7  20
ATOM     20  C   UNL     1       6.482   1.182  -4.876  0.00  0.00    +0.040 A 
ATOM     21  C   UNL     1       7.471   1.843  -5.609  0.00  0.00    +0.013 A 
ATOM     22  C   UNL     1       8.270   2.783  -4.993  0.00  0.00    +0.001 A 
ATOM     23  C   UNL     1       8.097   3.074  -3.650  0.00  0.00    +0.004 A 
ATOM     24  C   UNL     1       7.123   2.427  -2.914  0.00  0.00    +0.046 A 
ATOM     25  C   UNL     1       6.306   1.485  -3.519  0.00  0.00    +0.126 A 
BRANCH  25  26
ATOM     26  O   UNL     1       5.345   0.853  -2.798  0.00  0.00    -0.506 OA
ATOM     27  H   UNL     1       5.644   0.037  -2.374  0.00  0.00    +0.292 HD
ENDBRANCH  25  26
ENDBRANCH   7  20
TORSDOF 4
