REMARK  Name = ZINC12367114
REMARK  10 active torsions:
REMARK  status: ('A' for Active; 'I' for Inactive)
REMARK    1  A    between atoms: C_1  and  C_2
REMARK    2  A    between atoms: C_8  and  C_9
REMARK    3  A    between atoms: C_8  and  N_56
REMARK    4  A    between atoms: C_9  and  C_10
REMARK    5  A    between atoms: C_10  and  N_11
REMARK    6  A    between atoms: N_11  and  S_12
REMARK    7  A    between atoms: S_12  and  C_15
REMARK    8  A    between atoms: C_18  and  S_20
REMARK    9  A    between atoms: S_20  and  C_23
REMARK   10  A    between atoms: C_26  and  C_29
REMARK                            x       y       z     vdW  Elec       q    Type
REMARK                         _______ _______ _______ _____ _____    ______ ____
ROOT
ATOM      1  C   UNL     1      -2.168   9.757   4.671  0.00  0.00    +0.144 A 
ATOM      2  C   UNL     1      -3.226   9.597   3.839  0.00  0.00    +0.038 A 
ATOM      3  C   UNL     1      -3.541   8.328   3.391  0.00  0.00    +0.037 A 
ATOM      4  C   UNL     1      -2.782   7.280   3.797  0.00  0.00    +0.134 A 
ATOM      5  S   UNL     1      -1.582   8.080   4.850  0.00  0.00    -0.050 S 
ENDROOT
BRANCH   1   6
ATOM      6  S   UNL     1      -1.538  11.235   5.394  0.00  0.00    +0.065 S 
ATOM      7  O   UNL     1      -0.172  10.989   5.696  0.00  0.00    -0.153 OA
ATOM      8  O   UNL     1      -1.952  12.305   4.556  0.00  0.00    -0.153 OA
BRANCH   6   9
ATOM      9  N   UNL     1      -2.313  11.441   6.843  0.00  0.00    -0.190 NA
ATOM     10  H   UNL     1      -2.901  12.202   6.975  0.00  0.00    +0.148 HD
BRANCH   9  11
ATOM     11  C   UNL     1      -2.112  10.474   7.925  0.00  0.00    +0.104 C 
BRANCH  11  12
ATOM     12  C   UNL     1      -2.618  11.069   9.241  0.00  0.00    -0.002 C 
BRANCH  12  13
ATOM     13  C   UNL     1      -2.408  10.059  10.371  0.00  0.00    -0.077 C 
BRANCH  13  20
ATOM     14  C   UNL     1      -0.934   9.657  12.733  0.00  0.00    -0.013 C 
ATOM     15  C   UNL     1      -2.454   9.823  12.780  0.00  0.00    -0.072 C 
ATOM     16  C   UNL     1      -2.851  10.523  14.081  0.00  0.00    -0.016 C 
ATOM     17  C   UNL     1      -4.371  10.705  14.114  0.00  0.00    -0.003 C 
ATOM     18  C   UNL     1      -4.808  11.508  12.885  0.00  0.00    -0.019 C 
ATOM     19  C   UNL     1      -4.354  10.779  11.618  0.00  0.00    -0.078 C 
ATOM     20  N   UNL     1      -2.880  10.658  11.636  0.00  0.00    +0.381 N 
ATOM     21  H   UNL     1      -2.470  11.594  11.736  0.00  0.00    -0.081 HD
ENDBRANCH  13  20
ENDBRANCH  12  13
ENDBRANCH  11  12
ENDBRANCH   9  11
ENDBRANCH   6   9
ENDBRANCH   1   6
BRANCH   4  22
ATOM     22  S   UNL     1      -2.942   5.572   3.395  0.00  0.00    +0.048 S 
ATOM     23  O   UNL     1      -4.299   5.368   3.027  0.00  0.00    -0.162 OA
ATOM     24  O   UNL     1      -2.321   4.848   4.447  0.00  0.00    -0.162 OA
BRANCH  22  25
ATOM     25  C   UNL     1      -1.979   5.285   1.948  0.00  0.00    +0.182 A 
ATOM     26  C   UNL     1      -0.651   4.923   2.072  0.00  0.00    +0.048 A 
ATOM     27  C   UNL     1       0.098   4.699   0.927  0.00  0.00    +0.017 A 
ATOM     28  C   UNL     1      -0.519   4.849  -0.306  0.00  0.00    +0.073 A 
ATOM     29  C   UNL     1      -1.850   5.220  -0.352  0.00  0.00    +0.125 A 
ATOM     30  N   UNL     1      -2.534   5.418   0.759  0.00  0.00    -0.236 NA
BRANCH  28  31
ATOM     31  C   UNL     1       0.252   4.618  -1.579  0.00  0.00    +0.419 C 
ATOM     32  F   UNL     1       0.142   3.274  -1.953  0.00  0.00    -0.166 F 
ATOM     33  F   UNL     1       1.599   4.936  -1.373  0.00  0.00    -0.166 F 
ATOM     34  F   UNL     1      -0.268   5.428  -2.594  0.00  0.00    -0.166 F 
ENDBRANCH  28  31
ENDBRANCH  22  25
ENDBRANCH   4  22
TORSDOF 9
