REMARK  Name = ZINC12635773
REMARK  5 active torsions:
REMARK  status: ('A' for Active; 'I' for Inactive)
REMARK    1  A    between atoms: C_5  and  N_7
REMARK    2  A    between atoms: C_12  and  C_14
REMARK    3  A    between atoms: C_12  and  C_26
REMARK    4  A    between atoms: C_12  and  N_62
REMARK    5  A    between atoms: N_30  and  C_31
REMARK                            x       y       z     vdW  Elec       q    Type
REMARK                         _______ _______ _______ _____ _____    ______ ____
ROOT
ATOM      1  C   UNL     1       3.510   0.737  -0.027  0.00  0.00    +0.040 C 
ENDROOT
BRANCH   1   2
ATOM      2  C   UNL     1       3.690   1.164  -1.461  0.00  0.00    +0.029 A 
ATOM      3  C   UNL     1       3.926   2.455  -1.758  0.00  0.00    +0.201 A 
ATOM      4  O   UNL     1       4.099   2.892  -3.010  0.00  0.00    -0.462 OA
ATOM      5  C   UNL     1       4.039   2.069  -4.077  0.00  0.00    +0.138 A 
ATOM      6  C   UNL     1       4.218   2.556  -5.366  0.00  0.00    +0.048 A 
ATOM      7  C   UNL     1       4.153   1.696  -6.441  0.00  0.00    +0.023 A 
ATOM      8  C   UNL     1       3.910   0.342  -6.252  0.00  0.00    +0.042 A 
ATOM      9  C   UNL     1       3.730  -0.161  -4.981  0.00  0.00    +0.035 A 
ATOM     10  C   UNL     1       3.793   0.700  -3.886  0.00  0.00    +0.066 A 
ATOM     11  C   UNL     1       3.607   0.208  -2.507  0.00  0.00    +0.194 A 
ATOM     12  O   UNL     1       3.391  -0.969  -2.276  0.00  0.00    -0.287 OA
ATOM     13 CL   UNL     1       3.832  -0.722  -7.621  0.00  0.00    -0.084 Cl
ENDBRANCH   1   2
BRANCH   1  19
ATOM     14  N   UNL     1       6.065   2.382   2.908  0.00  0.00    -0.331 N 
ATOM     15  C   UNL     1       4.616   2.438   3.146  0.00  0.00    +0.086 C 
ATOM     16  C   UNL     1       3.917   1.399   2.267  0.00  0.00    -0.058 C 
ATOM     17  C   UNL     1       5.675   1.612   0.617  0.00  0.00    -0.058 C 
ATOM     18  C   UNL     1       6.374   2.651   1.496  0.00  0.00    +0.086 C 
ATOM     19  N   UNL     1       4.217   1.694   0.850  0.00  0.00    +0.391 N 
ATOM     20  H   UNL     1       3.897   2.645   0.632  0.00  0.00    -0.080 HD
BRANCH  14  25
ATOM     21  C   UNL     1       7.325   4.011   5.953  0.00  0.00    +0.002 A 
ATOM     22  C   UNL     1       8.093   5.025   5.411  0.00  0.00    +0.003 A 
ATOM     23  C   UNL     1       8.190   5.164   4.038  0.00  0.00    +0.040 A 
ATOM     24  C   UNL     1       7.519   4.289   3.204  0.00  0.00    +0.144 A 
ATOM     25  C   UNL     1       6.746   3.269   3.748  0.00  0.00    +0.065 A 
ATOM     26  C   UNL     1       6.648   3.136   5.126  0.00  0.00    +0.026 A 
ATOM     27  F   UNL     1       7.614   4.426   1.863  0.00  0.00    -0.204 F 
ENDBRANCH  14  25
ENDBRANCH   1  19
BRANCH   1  28
ATOM     28  C   UNL     1       2.043   0.744   0.319  0.00  0.00    +0.143 A 
ATOM     29  N   UNL     1       1.283   1.798   0.483  0.00  0.00    -0.115 NA
ATOM     30  N   UNL     1       0.095   1.391   0.769  0.00  0.00    -0.023 NA
ATOM     31  N   UNL     1       0.077   0.104   0.792  0.00  0.00    -0.044 NA
ATOM     32  N   UNL     1       1.260  -0.333   0.519  0.00  0.00    -0.227 N 
BRANCH  32  33
ATOM     33  C   UNL     1       1.673  -1.736   0.442  0.00  0.00    +0.111 C 
ATOM     34  C   UNL     1       0.822  -2.480  -0.608  0.00  0.00    +0.027 C 
ATOM     35  C   UNL     1       0.608  -3.887   0.005  0.00  0.00    +0.002 C 
ATOM     36  C   UNL     1       0.424  -3.579   1.512  0.00  0.00    +0.002 C 
ATOM     37  C   UNL     1       1.420  -2.435   1.789  0.00  0.00    +0.027 C 
ENDBRANCH  32  33
ENDBRANCH   1  28
TORSDOF 5
