REMARK  Name = ZINC23716703
REMARK  7 active torsions:
REMARK  status: ('A' for Active; 'I' for Inactive)
REMARK    1  A    between atoms: C_1  and  O_2
REMARK    2  A    between atoms: O_2  and  C_3
REMARK    3  A    between atoms: C_6  and  C_9
REMARK    4  A    between atoms: C_9  and  N_10
REMARK    5  A    between atoms: C_20  and  N_21
REMARK    6  A    between atoms: N_21  and  N_22
REMARK    7  A    between atoms: C_23  and  C_25
REMARK                            x       y       z     vdW  Elec       q    Type
REMARK                         _______ _______ _______ _____ _____    ______ ____
ROOT
ATOM      1  N   UNL     1      -3.680   1.790   0.803  0.00  0.00    -0.230 N 
ATOM      2  C   UNL     1      -2.532   1.097   0.725  0.00  0.00    +0.254 C 
ATOM      3  O   UNL     1      -2.543  -0.103   0.924  0.00  0.00    -0.270 OA
ATOM      4  C   UNL     1      -1.264   1.763   0.399  0.00  0.00    +0.045 A 
ATOM      5  C   UNL     1      -0.067   1.051   0.323  0.00  0.00    +0.013 A 
ATOM      6  C   UNL     1       1.103   1.713   0.019  0.00  0.00    +0.001 A 
ATOM      7  C   UNL     1       1.104   3.082  -0.207  0.00  0.00    +0.001 A 
ATOM      8  C   UNL     1      -0.068   3.806  -0.131  0.00  0.00    +0.009 A 
ATOM      9  C   UNL     1      -1.258   3.155   0.174  0.00  0.00    +0.000 A 
ATOM     10  C   UNL     1      -2.541   3.884   0.269  0.00  0.00    +0.060 C 
ATOM     11  C   UNL     1      -2.602   5.243   0.054  0.00  0.00    +0.101 C 
ATOM     12  C   UNL     1      -3.747   3.115   0.597  0.00  0.00    +0.255 C 
ATOM     13  O   UNL     1      -4.820   3.685   0.682  0.00  0.00    -0.269 OA
ENDROOT
BRANCH  11  14
ATOM     14  N   UNL     1      -3.808   5.863  -0.033  0.00  0.00    -0.271 N 
ATOM     15  H   UNL     1      -4.734   5.269  -0.027  0.00  0.00    +0.169 HD
BRANCH  14  16
ATOM     16  N   UNL     1      -3.872   7.259  -0.131  0.00  0.00    -0.233 N 
ATOM     17  C   UNL     1      -5.068   7.874  -0.217  0.00  0.00    +0.267 C 
ATOM     18  O   UNL     1      -6.092   7.217  -0.210  0.00  0.00    -0.268 OA
ATOM     19  H   UNL     1      -2.946   7.853  -0.137  0.00  0.00    +0.173 HD
BRANCH  17  20
ATOM     20  C   UNL     1      -5.135   9.335  -0.320  0.00  0.00    +0.076 A 
ATOM     21  C   UNL     1      -6.246  10.152  -0.423  0.00  0.00    +0.024 A 
ATOM     22  C   UNL     1      -6.046  11.520  -0.503  0.00  0.00    -0.036 A 
ATOM     23  C   UNL     1      -4.752  11.955  -0.486  0.00  0.00    -0.006 A 
ATOM     24  S   UNL     1      -3.804  10.523  -0.352  0.00  0.00    -0.088 S 
ATOM     25  C   UNL     1      -4.274  13.372  -0.567  0.00  0.00    +0.043 C 
ATOM     26  C   UNL     1      -5.439  14.249  -1.047  0.00  0.00    +0.005 C 
ATOM     27  C   UNL     1      -6.685  13.905  -0.226  0.00  0.00    +0.005 C 
ATOM     28  C   UNL     1      -7.197  12.517  -0.613  0.00  0.00    +0.036 C 
ENDBRANCH  17  20
ENDBRANCH  14  16
ENDBRANCH  11  14
BRANCH   1  29
ATOM     29  C   UNL     1      -4.913   1.068   1.128  0.00  0.00    +0.152 C 
BRANCH  29  33
ATOM     30  C   UNL     1      -6.766  -0.279  -2.480  0.00  0.00    +0.120 A 
ATOM     31  C   UNL     1      -5.846  -1.087  -1.828  0.00  0.00    +0.046 A 
ATOM     32  C   UNL     1      -5.248  -0.649  -0.662  0.00  0.00    +0.009 A 
ATOM     33  C   UNL     1      -5.566   0.593  -0.144  0.00  0.00    -0.029 A 
ATOM     34  C   UNL     1      -6.487   1.398  -0.790  0.00  0.00    +0.009 A 
ATOM     35  C   UNL     1      -7.083   0.968  -1.959  0.00  0.00    +0.046 A 
BRANCH  30  37
ATOM     36  C   UNL     1      -8.292   0.178  -4.245  0.00  0.00    +0.277 C 
ATOM     37  O   UNL     1      -7.355  -0.707  -3.627  0.00  0.00    -0.495 OA
ENDBRANCH  30  37
ENDBRANCH  29  33
ENDBRANCH   1  29
TORSDOF 6
