REMARK  Name = ZINC33809404
REMARK  8 active torsions:
REMARK  status: ('A' for Active; 'I' for Inactive)
REMARK    1  A    between atoms: C_1  and  C_2
REMARK    2  A    between atoms: C_2  and  C_4
REMARK    3  A    between atoms: C_2  and  N_12
REMARK    4  A    between atoms: C_7  and  O_10
REMARK    5  A    between atoms: O_10  and  C_11
REMARK    6  A    between atoms: C_13  and  C_15
REMARK    7  A    between atoms: C_18  and  C_20
REMARK    8  A    between atoms: C_23  and  N_26
REMARK                            x       y       z     vdW  Elec       q    Type
REMARK                         _______ _______ _______ _____ _____    ______ ____
ROOT
ATOM      1  N   UNL     1      -0.721   1.571  -1.179  0.00  0.00    -0.302 N 
ATOM      2  C   UNL     1      -1.773   0.883  -1.664  0.00  0.00    +0.280 C 
ATOM      3  O   UNL     1      -2.135  -0.142  -1.116  0.00  0.00    -0.267 OA
ATOM      4  H   UNL     1      -0.395   2.497  -1.674  0.00  0.00    +0.150 HD
ENDROOT
BRANCH   2   5
ATOM      5  C   UNL     1      -2.482   1.368  -2.851  0.00  0.00    +0.190 A 
ATOM      6  C   UNL     1      -3.564   0.762  -3.452  0.00  0.00    +0.055 A 
ATOM      7  C   UNL     1      -3.920   1.562  -4.542  0.00  0.00    +0.050 A 
ATOM      8  C   UNL     1      -3.047   2.611  -4.573  0.00  0.00    +0.136 A 
ATOM      9  O   UNL     1      -2.185   2.484  -3.550  0.00  0.00    -0.450 OA
BRANCH   8  10
ATOM     10  C   UNL     1      -3.049   3.703  -5.567  0.00  0.00    +0.017 A 
ATOM     11  C   UNL     1      -3.998   3.718  -6.591  0.00  0.00    +0.014 A 
ATOM     12  C   UNL     1      -3.997   4.745  -7.513  0.00  0.00    +0.033 A 
ATOM     13  C   UNL     1      -3.052   5.752  -7.430  0.00  0.00    +0.126 A 
ATOM     14  C   UNL     1      -2.105   5.741  -6.421  0.00  0.00    +0.033 A 
ATOM     15  C   UNL     1      -2.098   4.723  -5.490  0.00  0.00    +0.014 A 
BRANCH  13  16
ATOM     16  N   UNL     1      -3.053   6.847  -8.426  0.00  0.00    +0.056 N 
ATOM     17  O   UNL     1      -2.222   7.735  -8.357  0.00  0.00    -0.126 OA
ATOM     18  O   UNL     1      -3.885   6.860  -9.316  0.00  0.00    -0.126 OA
ENDBRANCH  13  16
ENDBRANCH   8  10
ENDBRANCH   2   5
BRANCH   1  20
ATOM     19  C   UNL     1      -0.729   1.579   1.267  0.00  0.00    +0.033 C 
ATOM     20  C   UNL     1      -0.013   1.086   0.008  0.00  0.00    +0.100 C 
BRANCH  20  21
ATOM     21  C   UNL     1       1.401   1.607  -0.003  0.00  0.00    -0.027 A 
ATOM     22  C   UNL     1       1.656   2.903  -0.413  0.00  0.00    +0.009 A 
ATOM     23  C   UNL     1       2.950   3.385  -0.419  0.00  0.00    +0.046 A 
ATOM     24  C   UNL     1       3.997   2.565  -0.023  0.00  0.00    +0.120 A 
ATOM     25  C   UNL     1       3.739   1.264   0.383  0.00  0.00    +0.046 A 
ATOM     26  C   UNL     1       2.442   0.788   0.393  0.00  0.00    +0.009 A 
BRANCH  24  27
ATOM     27  O   UNL     1       5.271   3.035  -0.033  0.00  0.00    -0.495 OA
ATOM     28  C   UNL     1       5.462   4.384  -0.463  0.00  0.00    +0.277 C 
ENDBRANCH  24  27
ENDBRANCH  20  21
ENDBRANCH   1  20
TORSDOF 6
