REMARK  Name = ZINC02620300
REMARK  8 active torsions:
REMARK  status: ('A' for Active; 'I' for Inactive)
REMARK    1  A    between atoms: C_1  and  C_2
REMARK    2  A    between atoms: C_5  and  N_9
REMARK    3  A    between atoms: C_6  and  C_8
REMARK    4  A    between atoms: C_13  and  S_15
REMARK    5  A    between atoms: S_15  and  C_16
REMARK    6  A    between atoms: C_16  and  C_17
REMARK    7  A    between atoms: N_19  and  C_20
REMARK    8  A    between atoms: C_21  and  C_28
REMARK                            x       y       z     vdW  Elec       q    Type
REMARK                         _______ _______ _______ _____ _____    ______ ____
ROOT
ATOM      1  C   UNL     1       7.166   6.458   0.452  0.00  0.00    +0.172 C 
ENDROOT
BRANCH   1   2
ATOM      2  C   UNL     1       8.243   7.505   0.573  0.00  0.00    +0.228 C 
ATOM      3  O   UNL     1       7.942   8.677   0.659  0.00  0.00    -0.275 OA
ATOM      4  N   UNL     1       9.540   7.139   0.587  0.00  0.00    -0.279 N 
ATOM      5  H   UNL     1       9.780   6.202   0.518  0.00  0.00    +0.155 HD
BRANCH   4   6
ATOM      6  C   UNL     1      10.531   8.103   0.698  0.00  0.00    +0.084 A 
ATOM      7  C   UNL     1      11.903   7.926   0.735  0.00  0.00    +0.068 A 
ATOM      8  C   UNL     1      12.737   9.121   0.855  0.00  0.00    -0.023 A 
ATOM      9  C   UNL     1      12.064  10.283   0.927  0.00  0.00    -0.004 A 
ATOM     10  S   UNL     1      10.352   9.819   0.833  0.00  0.00    -0.077 S 
ATOM     11  C   UNL     1      12.988  11.464   1.052  0.00  0.00    +0.043 C 
ATOM     12  C   UNL     1      14.368  10.926   0.614  0.00  0.00    +0.010 C 
ATOM     13  C   UNL     1      14.235   9.423   0.932  0.00  0.00    +0.037 C 
BRANCH   7  14
ATOM     14  C   UNL     1      12.499   6.588   0.653  0.00  0.00    +0.244 C 
ATOM     15  O   UNL     1      12.785   6.115  -0.431  0.00  0.00    -0.270 OA
ATOM     16  N   UNL     1      12.729   5.883   1.778  0.00  0.00    -0.325 N 
ATOM     17  H   UNL     1      12.501   6.260   2.642  0.00  0.00    +0.145 HD
ATOM     18  H   UNL     1      13.123   4.998   1.724  0.00  0.00    +0.145 HD
ENDBRANCH   7  14
ENDBRANCH   4   6
ENDBRANCH   1   2
BRANCH   1  19
ATOM     19  S   UNL     1       5.539   7.259   0.463  0.00  0.00    -0.088 S 
BRANCH  19  24
ATOM     20  N   UNL     1       1.163   3.483   0.009  0.00  0.00    -0.292 N 
ATOM     21  C   UNL     1       2.355   4.191   0.107  0.00  0.00    +0.187 A 
ATOM     22  N   UNL     1       3.595   3.742   0.117  0.00  0.00    -0.125 NA
ATOM     23  N   UNL     1       4.644   4.627   0.218  0.00  0.00    -0.133 NA
ATOM     24  C   UNL     1       4.403   5.920   0.316  0.00  0.00    +0.160 A 
ATOM     25  S   UNL     1       2.618   5.951   0.258  0.00  0.00    -0.024 S 
ATOM     26  H   UNL     1       0.315   3.946   0.104  0.00  0.00    +0.154 HD
BRANCH  20  31
ATOM     27  C   UNL     1       1.251  -2.107  -0.943  0.00  0.00    +0.044 C 
ATOM     28  C   UNL     1       1.228  -0.621  -0.689  0.00  0.00    -0.050 A 
ATOM     29  C   UNL     1       2.399   0.110  -0.766  0.00  0.00    +0.005 A 
ATOM     30  C   UNL     1       2.381   1.471  -0.535  0.00  0.00    +0.024 A 
ATOM     31  C   UNL     1       1.185   2.106  -0.225  0.00  0.00    +0.036 A 
ATOM     32  C   UNL     1       0.010   1.368  -0.149  0.00  0.00    -0.029 A 
ATOM     33  C   UNL     1       0.035   0.007  -0.381  0.00  0.00    +0.008 A 
ATOM     34  C   UNL     1      -1.291   2.053   0.181  0.00  0.00    +0.045 C 
ENDBRANCH  20  31
ENDBRANCH  19  24
ENDBRANCH   1  19
TORSDOF 6
