REMARK  Name = ZINC39217607
REMARK  2 active torsions:
REMARK  status: ('A' for Active; 'I' for Inactive)
REMARK    1  A    between atoms: C_5  and  C_24
REMARK    2  A    between atoms: C_12  and  C_14
REMARK                            x       y       z     vdW  Elec       q    Type
REMARK                         _______ _______ _______ _____ _____    ______ ____
ROOT
ATOM      1  C   UNL     1       0.778   0.066   2.900  0.00  0.00    +0.004 C 
ATOM      2  C   UNL     1       1.843   0.962   2.817  0.00  0.00    +0.027 C 
ATOM      3  C   UNL     1       2.744   0.900   1.796  0.00  0.00    +0.077 C 
ATOM      4  N   UNL     1       3.859   1.651   1.489  0.00  0.00    -0.213 NA
ATOM      5  C   UNL     1       4.407   1.081   0.250  0.00  0.00    +0.314 C 
ATOM      6  N   UNL     1       3.533  -0.036  -0.121  0.00  0.00    -0.247 NA
ATOM      7  C   UNL     1       2.586  -0.140   0.756  0.00  0.00    +0.105 C 
ATOM      8  C   UNL     1       1.436  -1.078   0.881  0.00  0.00    +0.061 C 
ATOM      9  C   UNL     1       0.570  -0.923   1.973  0.00  0.00    +0.025 C 
ATOM     10  N   UNL     1       1.235  -2.039  -0.021  0.00  0.00    -0.283 N 
ATOM     11  C   UNL     1       0.138  -2.792   0.042  0.00  0.00    +0.223 C 
ATOM     12  O   UNL     1      -0.959  -2.269   0.035  0.00  0.00    -0.275 OA
ATOM     13  H   UNL     1       1.888  -2.191  -0.722  0.00  0.00    +0.155 HD
ENDROOT
BRANCH  11  14
ATOM     14  C   UNL     1       0.258  -4.293   0.119  0.00  0.00    +0.048 C 
ATOM     15  C   UNL     1       1.042  -4.677   1.376  0.00  0.00    +0.019 C 
ATOM     16  C   UNL     1       1.163  -6.200   1.455  0.00  0.00    -0.009 C 
ATOM     17  C   UNL     1      -0.234  -6.821   1.516  0.00  0.00    +0.007 C 
ATOM     18  C   UNL     1      -1.018  -6.436   0.260  0.00  0.00    -0.009 C 
ATOM     19  C   UNL     1      -1.140  -4.913   0.181  0.00  0.00    +0.019 C 
ATOM     20  C   UNL     1      -0.284  -6.954  -0.978  0.00  0.00    +0.007 C 
ATOM     21  C   UNL     1       1.113  -6.334  -1.040  0.00  0.00    -0.009 C 
ATOM     22  C   UNL     1       1.897  -6.718   0.217  0.00  0.00    +0.007 C 
ATOM     23  C   UNL     1       0.992  -4.811  -1.119  0.00  0.00    +0.019 C 
ENDBRANCH  11  14
BRANCH   5  24
ATOM     24  C   UNL     1       4.409   2.137  -0.857  0.00  0.00    +0.430 C 
ATOM     25  F   UNL     1       5.223   3.210  -0.476  0.00  0.00    -0.167 F 
ATOM     26  F   UNL     1       4.902   1.574  -2.038  0.00  0.00    -0.167 F 
ATOM     27  F   UNL     1       3.103   2.594  -1.067  0.00  0.00    -0.167 F 
ENDBRANCH   5  24
TORSDOF 2
