REMARK  Name = ZINC65356224
REMARK  9 active torsions:
REMARK  status: ('A' for Active; 'I' for Inactive)
REMARK    1  A    between atoms: C_1  and  C_2
REMARK    2  A    between atoms: C_2  and  O_3
REMARK    3  A    between atoms: O_3  and  C_4
REMARK    4  A    between atoms: C_4  and  C_6
REMARK    5  A    between atoms: C_6  and  C_7
REMARK    6  A    between atoms: C_12  and  C_14
REMARK    7  A    between atoms: C_14  and  C_15
REMARK    8  A    between atoms: C_17  and  C_32
REMARK    9  A    between atoms: C_22  and  C_31
REMARK                            x       y       z     vdW  Elec       q    Type
REMARK                         _______ _______ _______ _____ _____    ______ ____
ROOT
ATOM      1  C   UNL     1       2.742  -8.908   0.581  0.00  0.00    +0.111 C 
ENDROOT
BRANCH   1   2
ATOM      2  C   UNL     1       2.509 -10.366   0.182  0.00  0.00    +0.114 C 
ATOM      3  C   UNL     1       2.910 -11.291   1.334  0.00  0.00    +0.034 C 
ATOM      4  C   UNL     1       4.413 -11.385   1.417  0.00  0.00    -0.001 A 
ATOM      5  C   UNL     1       4.971 -11.803   2.598  0.00  0.00    +0.019 A 
ATOM      6  C   UNL     1       6.354 -11.912   2.720  0.00  0.00    +0.024 A 
ATOM      7  C   UNL     1       7.263 -12.313   3.801  0.00  0.00    -0.005 A 
ATOM      8  C   UNL     1       8.502 -12.211   3.304  0.00  0.00    +0.199 A 
ATOM      9  O   UNL     1       8.457 -11.789   2.028  0.00  0.00    -0.463 OA
ATOM     10  C   UNL     1       7.184 -11.593   1.631  0.00  0.00    +0.139 A 
ATOM     11  C   UNL     1       6.607 -11.170   0.444  0.00  0.00    +0.093 A 
ATOM     12  C   UNL     1       5.227 -11.063   0.338  0.00  0.00    +0.139 A 
ATOM     13  O   UNL     1       4.709 -10.626  -0.843  0.00  0.00    -0.425 OA
ATOM     14  C   UNL     1       3.374 -10.718  -1.012  0.00  0.00    +0.316 C 
ATOM     15  O   UNL     1       2.890 -11.065  -2.064  0.00  0.00    -0.250 OA
ATOM     16  C   UNL     1       6.878 -12.751   5.190  0.00  0.00    +0.047 C 
ATOM     17  C   UNL     1       2.328 -12.685   1.093  0.00  0.00    +0.013 C 
ENDBRANCH   1   2
BRANCH   1  23
ATOM     18  C   UNL     1       1.450  -3.859  -2.489  0.00  0.00    +0.061 A 
ATOM     19  C   UNL     1       0.947  -4.602  -3.506  0.00  0.00    +0.072 A 
ATOM     20  S   UNL     1       1.198  -6.251  -2.868  0.00  0.00    -0.060 S 
ATOM     21  C   UNL     1       1.903  -5.828  -1.400  0.00  0.00    +0.165 A 
ATOM     22  N   UNL     1       2.356  -6.664  -0.386  0.00  0.00    -0.265 N 
ATOM     23  C   UNL     1       2.252  -8.001  -0.518  0.00  0.00    +0.219 C 
ATOM     24  O   UNL     1       1.763  -8.475  -1.522  0.00  0.00    -0.275 OA
ATOM     25  N   UNL     1       1.927  -4.513  -1.447  0.00  0.00    -0.229 NA
ATOM     26  H   UNL     1       2.747  -6.285   0.417  0.00  0.00    +0.157 HD
BRANCH  18  27
ATOM     27  C   UNL     1       1.468  -2.353  -2.550  0.00  0.00    +0.176 C 
BRANCH  27  28
ATOM     28  C   UNL     1       0.775  -1.794  -1.334  0.00  0.00    +0.313 C 
ATOM     29  O   UNL     1       0.314  -2.540  -0.504  0.00  0.00    -0.250 OA
BRANCH  28  30
ATOM     30  O   UNL     1       0.671  -0.465  -1.174  0.00  0.00    -0.465 OA
BRANCH  30  32
ATOM     31  C   UNL     1      -0.019   1.526   0.010  0.00  0.00    +0.048 C 
ATOM     32  C   UNL     1       0.002  -0.004   0.002  0.00  0.00    +0.229 C 
ENDBRANCH  30  32
ENDBRANCH  28  30
ENDBRANCH  27  28
ENDBRANCH  18  27
ENDBRANCH   1  23
TORSDOF 6
