REMARK  Name = ZINC36156209
REMARK  19 active torsions:
REMARK  status: ('A' for Active; 'I' for Inactive)
REMARK    1  A    between atoms: C_1  and  C_2
REMARK    2  A    between atoms: C_2  and  C_3
REMARK    3  A    between atoms: C_3  and  N_4
REMARK    4  A    between atoms: N_4  and  C_5
REMARK    5  A    between atoms: N_4  and  C_16
REMARK    6  A    between atoms: C_5  and  C_6
REMARK    7  A    between atoms: C_9  and  O_14
REMARK    8  A    between atoms: C_10  and  O_12
REMARK    9  A    between atoms: O_12  and  C_13
REMARK   10  A    between atoms: O_14  and  C_15
REMARK   11  A    between atoms: C_16  and  C_17
REMARK   12  A    between atoms: C_20  and  C_22
REMARK   13  A    between atoms: C_22  and  C_23
REMARK   14  A    between atoms: C_22  and  C_31
REMARK   15  A    between atoms: C_22  and  O_39
REMARK   16  A    between atoms: C_26  and  O_29
REMARK   17  A    between atoms: O_29  and  C_30
REMARK   18  A    between atoms: C_34  and  O_37
REMARK   19  A    between atoms: O_37  and  C_38
REMARK                            x       y       z     vdW  Elec       q    Type
REMARK                         _______ _______ _______ _____ _____    ______ ____
ROOT
ATOM      1  C   UNL     1      -3.230  -2.275  -2.837  0.00  0.00    +0.089 A 
ATOM      2  C   UNL     1      -3.296  -2.598  -4.141  0.00  0.00    +0.043 A 
ATOM      3  C   UNL     1      -3.996  -1.553  -4.787  0.00  0.00    +0.048 A 
ATOM      4  C   UNL     1      -4.316  -0.654  -3.839  0.00  0.00    +0.146 A 
ATOM      5  O   UNL     1      -3.854  -1.099  -2.659  0.00  0.00    -0.463 OA
ENDROOT
BRANCH   1   6
ATOM      6  C   UNL     1      -2.572  -3.096  -1.758  0.00  0.00    -0.003 C 
BRANCH   6   7
ATOM      7  N   UNL     1      -1.165  -2.696  -1.628  0.00  0.00    +0.387 N 
ATOM      8  H   UNL     1      -0.709  -2.772  -2.525  0.00  0.00    -0.081 HD
BRANCH   7   9
ATOM      9  C   UNL     1      -1.092  -1.306  -1.157  0.00  0.00    -0.078 C 
BRANCH   9  11
ATOM     10  C   UNL     1       0.429   0.645  -0.807  0.00  0.00    +0.002 C 
ATOM     11  C   UNL     1       0.366  -0.842  -1.161  0.00  0.00    -0.022 C 
ENDBRANCH   9  11
ENDBRANCH   7   9
BRANCH   7  12
ATOM     12  C   UNL     1      -0.493  -3.576  -0.662  0.00  0.00    -0.042 C 
BRANCH  12  13
ATOM     13  C   UNL     1      -0.446  -4.979  -1.209  0.00  0.00    -0.060 A 
ATOM     14  C   UNL     1      -1.414  -5.896  -0.840  0.00  0.00    +0.005 A 
ATOM     15  C   UNL     1      -1.375  -7.185  -1.339  0.00  0.00    +0.049 A 
ATOM     16  C   UNL     1      -0.365  -7.560  -2.211  0.00  0.00    +0.161 A 
ATOM     17  C   UNL     1       0.608  -6.637  -2.582  0.00  0.00    +0.162 A 
ATOM     18  C   UNL     1       0.560  -5.346  -2.082  0.00  0.00    +0.051 A 
BRANCH  17  19
ATOM     19  O   UNL     1       1.601  -7.001  -3.438  0.00  0.00    -0.491 OA
ATOM     20  C   UNL     1       2.565  -6.002  -3.775  0.00  0.00    +0.277 C 
ENDBRANCH  17  19
BRANCH  16  21
ATOM     21  O   UNL     1      -0.326  -8.827  -2.703  0.00  0.00    -0.491 OA
ATOM     22  C   UNL     1      -1.357  -9.721  -2.278  0.00  0.00    +0.277 C 
ENDBRANCH  16  21
ENDBRANCH  12  13
ENDBRANCH   7  12
ENDBRANCH   6   7
ENDBRANCH   1   6
BRANCH   4  23
ATOM     23  C   UNL     1      -5.069   0.632  -4.062  0.00  0.00    +0.174 C 
BRANCH  23  24
ATOM     24  C   UNL     1      -5.850   0.979  -2.821  0.00  0.00    -0.004 A 
ATOM     25  C   UNL     1      -7.232   0.942  -2.842  0.00  0.00    +0.011 A 
ATOM     26  C   UNL     1      -7.951   1.259  -1.706  0.00  0.00    +0.046 A 
ATOM     27  C   UNL     1      -7.285   1.615  -0.543  0.00  0.00    +0.120 A 
ATOM     28  C   UNL     1      -5.898   1.651  -0.523  0.00  0.00    +0.046 A 
ATOM     29  C   UNL     1      -5.184   1.328  -1.661  0.00  0.00    +0.011 A 
BRANCH  27  30
ATOM     30  O   UNL     1      -7.989   1.929   0.576  0.00  0.00    -0.495 OA
ATOM     31  C   UNL     1      -7.237   2.286   1.738  0.00  0.00    +0.277 C 
ENDBRANCH  27  30
ENDBRANCH  23  24
BRANCH  23  32
ATOM     32  C   UNL     1      -4.093   1.740  -4.367  0.00  0.00    -0.004 A 
ATOM     33  C   UNL     1      -2.894   1.811  -3.681  0.00  0.00    +0.011 A 
ATOM     34  C   UNL     1      -1.998   2.825  -3.958  0.00  0.00    +0.046 A 
ATOM     35  C   UNL     1      -2.301   3.772  -4.925  0.00  0.00    +0.120 A 
ATOM     36  C   UNL     1      -3.504   3.698  -5.612  0.00  0.00    +0.046 A 
ATOM     37  C   UNL     1      -4.395   2.679  -5.335  0.00  0.00    +0.011 A 
BRANCH  35  38
ATOM     38  O   UNL     1      -1.422   4.771  -5.199  0.00  0.00    -0.495 OA
ATOM     39  C   UNL     1      -1.800   5.711  -6.207  0.00  0.00    +0.277 C 
ENDBRANCH  35  38
ENDBRANCH  23  32
BRANCH  23  40
ATOM     40  O   UNL     1      -5.967   0.474  -5.162  0.00  0.00    -0.372 OA
ATOM     41  H   UNL     1      -5.532   0.249  -5.996  0.00  0.00    +0.212 HD
ENDBRANCH  23  40
ENDBRANCH   4  23
TORSDOF 14
