REMARK  Name = ZINC64409165
REMARK  10 active torsions:
REMARK  status: ('A' for Active; 'I' for Inactive)
REMARK    1  A    between atoms: C_1  and  C_2
REMARK    2  A    between atoms: C_3  and  C_32
REMARK    3  A    between atoms: C_10  and  C_31
REMARK    4  A    between atoms: C_11  and  C_15
REMARK    5  A    between atoms: C_12  and  C_14
REMARK    6  A    between atoms: C_15  and  C_16
REMARK    7  A    between atoms: C_16  and  C_17
REMARK    8  A    between atoms: N_19  and  C_20
REMARK    9  A    between atoms: C_20  and  C_21
REMARK   10  A    between atoms: C_21  and  C_22
REMARK                            x       y       z     vdW  Elec       q    Type
REMARK                         _______ _______ _______ _____ _____    ______ ____
ROOT
ATOM      1  C   UNL     1       0.104  -7.403   1.487  0.00  0.00    +0.048 C 
ENDROOT
BRANCH   1  12
ATOM      2  C   UNL     1      -0.018   1.503   0.010  0.00  0.00    +0.051 C 
ATOM      3  C   UNL     1       0.002  -0.004   0.002  0.00  0.00    +0.037 A 
ATOM      4  C   UNL     1       0.006  -0.705  -1.190  0.00  0.00    +0.050 A 
ATOM      5  N   UNL     1       0.025  -2.029  -1.162  0.00  0.00    -0.215 NA
ATOM      6  C   UNL     1       0.039  -2.684  -0.013  0.00  0.00    +0.255 A 
ATOM      7  N   UNL     1       0.036  -2.050   1.149  0.00  0.00    -0.171 NA
ATOM      8  C   UNL     1       0.023  -0.724   1.196  0.00  0.00    +0.278 A 
ATOM      9  O   UNL     1       0.025  -0.078   2.387  0.00  0.00    -0.265 OA
ATOM     10  N   UNL     1       0.059  -4.079  -0.026  0.00  0.00    -0.202 N 
ATOM     11  C   UNL     1       0.070  -4.890   1.065  0.00  0.00    +0.048 A 
ATOM     12  C   UNL     1       0.087  -6.168   0.624  0.00  0.00    -0.003 A 
ATOM     13  C   UNL     1       0.087  -6.142  -0.776  0.00  0.00    +0.064 A 
ATOM     14  N   UNL     1       0.064  -4.894  -1.165  0.00  0.00    -0.169 NA
ATOM     15  C   UNL     1       0.104  -7.347  -1.680  0.00  0.00    +0.068 C 
ATOM     16  C   UNL     1       0.065  -4.445   2.505  0.00  0.00    +0.066 C 
ATOM     17  C   UNL     1      -0.011   0.030  -2.506  0.00  0.00    +0.066 C 
ENDBRANCH   1  12
BRANCH   1  18
ATOM     18  C   UNL     1      -1.333  -7.841   1.779  0.00  0.00    +0.100 C 
BRANCH  18  19
ATOM     19  C   UNL     1      -1.316  -9.076   2.642  0.00  0.00    +0.213 C 
ATOM     20  O   UNL     1      -0.259  -9.559   2.990  0.00  0.00    -0.276 OA
ATOM     21  N   UNL     1      -2.476  -9.644   3.029  0.00  0.00    -0.315 N 
ATOM     22  H   UNL     1      -3.321  -9.258   2.751  0.00  0.00    +0.149 HD
BRANCH  21  23
ATOM     23  C   UNL     1      -2.459 -10.845   3.868  0.00  0.00    +0.108 C 
BRANCH  23  24
ATOM     24  C   UNL     1      -3.896 -11.283   4.160  0.00  0.00    +0.052 C 
BRANCH  24  25
ATOM     25  C   UNL     1      -3.879 -12.518   5.023  0.00  0.00    -0.040 C 
ATOM     26  C   UNL     1      -3.978 -12.569   6.371  0.00  0.00    -0.001 A 
ATOM     27  C   UNL     1      -4.124 -11.530   7.398  0.00  0.00    +0.010 A 
ATOM     28  C   UNL     1      -4.198 -11.898   8.697  0.00  0.00    +0.001 A 
ATOM     29  C   UNL     1      -4.138 -13.243   9.087  0.00  0.00    +0.002 A 
ATOM     30  C   UNL     1      -4.004 -14.254   8.202  0.00  0.00    +0.026 A 
ATOM     31  C   UNL     1      -3.918 -13.982   6.809  0.00  0.00    +0.043 A 
ATOM     32  N   UNL     1      -3.787 -14.773   5.772  0.00  0.00    -0.380 N 
ATOM     33  C   UNL     1      -3.755 -13.951   4.557  0.00  0.00    +0.144 C 
ATOM     34  H   UNL     1      -3.725 -15.741   5.802  0.00  0.00    +0.160 HD
ENDBRANCH  24  25
ENDBRANCH  23  24
ENDBRANCH  21  23
ENDBRANCH  18  19
ENDBRANCH   1  18
TORSDOF 6
