REMARK  Name = ZINC67204883
REMARK  7 active torsions:
REMARK  status: ('A' for Active; 'I' for Inactive)
REMARK    1  A    between atoms: C_1  and  O_2
REMARK    2  A    between atoms: O_2  and  C_3
REMARK    3  A    between atoms: C_3  and  C_5
REMARK    4  A    between atoms: C_6  and  C_20
REMARK    5  A    between atoms: C_11  and  C_13
REMARK    6  A    between atoms: C_20  and  N_21
REMARK    7  A    between atoms: N_24  and  C_27
REMARK                            x       y       z     vdW  Elec       q    Type
REMARK                         _______ _______ _______ _____ _____    ______ ____
ROOT
ATOM      1  C   UNL     1       1.309  -2.159  -0.898  0.00  0.00    +0.079 C 
ATOM      2  C   UNL     1       1.167  -2.592  -2.169  0.00  0.00    +0.038 C 
ATOM      3  N   UNL     1       0.568  -3.788  -2.443  0.00  0.00    -0.271 N 
ATOM      4  C   UNL     1       0.084  -4.609  -1.502  0.00  0.00    +0.304 C 
ATOM      5  O   UNL     1      -0.433  -5.654  -1.844  0.00  0.00    -0.252 OA
ATOM      6  N   UNL     1       0.152  -4.314  -0.189  0.00  0.00    -0.288 N 
ATOM      7  C   UNL     1       0.786  -3.047   0.212  0.00  0.00    +0.144 C 
ATOM      8  H   UNL     1       0.488  -4.058  -3.372  0.00  0.00    +0.156 HD
ATOM      9  H   UNL     1      -0.206  -4.923   0.476  0.00  0.00    +0.151 HD
ENDROOT
BRANCH   7  10
ATOM     10  C   UNL     1      -0.225  -2.256   1.002  0.00  0.00    -0.022 A 
ATOM     11  C   UNL     1      -1.517  -2.121   0.531  0.00  0.00    +0.008 A 
ATOM     12  C   UNL     1      -2.445  -1.397   1.254  0.00  0.00    +0.038 A 
ATOM     13  C   UNL     1      -2.080  -0.807   2.453  0.00  0.00    +0.123 A 
ATOM     14  C   UNL     1      -0.785  -0.943   2.925  0.00  0.00    +0.038 A 
ATOM     15  C   UNL     1       0.140  -1.672   2.201  0.00  0.00    +0.008 A 
ATOM     16  F   UNL     1      -2.986  -0.098   3.161  0.00  0.00    -0.205 F 
ENDBRANCH   7  10
BRANCH   1  17
ATOM     17  C   UNL     1       1.930  -0.920  -0.613  0.00  0.00    +0.339 C 
ATOM     18  O   UNL     1       2.450  -0.279  -1.508  0.00  0.00    -0.245 OA
BRANCH  17  20
ATOM     19  C   UNL     1       2.591   0.808   0.867  0.00  0.00    +0.280 C 
ATOM     20  O   UNL     1       1.947  -0.449   0.651  0.00  0.00    -0.465 OA
ENDBRANCH  17  20
ENDBRANCH   1  17
BRANCH   2  21
ATOM     21  C   UNL     1       1.678  -1.742  -3.304  0.00  0.00    +0.136 C 
BRANCH  21  22
ATOM     22  N   UNL     1       3.106  -2.015  -3.517  0.00  0.00    -0.294 NA
ATOM     23  C   UNL     1       3.305  -3.346  -4.107  0.00  0.00    +0.103 C 
ATOM     24  C   UNL     1       4.803  -3.665  -4.145  0.00  0.00    +0.120 C 
ATOM     25  N   UNL     1       5.497  -2.568  -4.836  0.00  0.00    -0.325 N 
ATOM     26  C   UNL     1       5.241  -1.191  -4.388  0.00  0.00    +0.120 C 
ATOM     27  C   UNL     1       3.725  -0.969  -4.340  0.00  0.00    +0.103 C 
BRANCH  25  28
ATOM     28  C   UNL     1       6.378  -2.828  -5.890  0.00  0.00    +0.065 A 
ATOM     29  C   UNL     1       5.909  -2.867  -7.196  0.00  0.00    +0.026 A 
ATOM     30  C   UNL     1       6.781  -3.123  -8.236  0.00  0.00    +0.002 A 
ATOM     31  C   UNL     1       8.122  -3.341  -7.978  0.00  0.00    +0.003 A 
ATOM     32  C   UNL     1       8.595  -3.303  -6.679  0.00  0.00    +0.040 A 
ATOM     33  C   UNL     1       7.729  -3.041  -5.634  0.00  0.00    +0.144 A 
ATOM     34  F   UNL     1       8.192  -2.998  -4.365  0.00  0.00    -0.204 F 
ENDBRANCH  25  28
ENDBRANCH  21  22
ENDBRANCH   2  21
TORSDOF 6
