REMARK  Name = ZINC45536827
REMARK  9 active torsions:
REMARK  status: ('A' for Active; 'I' for Inactive)
REMARK    1  A    between atoms: C_4  and  C_29
REMARK    2  A    between atoms: C_5  and  C_7
REMARK    3  A    between atoms: C_7  and  N_8
REMARK    4  A    between atoms: C_9  and  C_11
REMARK    5  A    between atoms: C_11  and  C_12
REMARK    6  A    between atoms: C_12  and  S_13
REMARK    7  A    between atoms: S_13  and  C_14
REMARK    8  A    between atoms: C_14  and  C_15
REMARK    9  A    between atoms: C_29  and  N_30
REMARK                            x       y       z     vdW  Elec       q    Type
REMARK                         _______ _______ _______ _____ _____    ______ ____
ROOT
ATOM      1  N   UNL     1       1.490  -2.679   1.334  0.00  0.00    -0.311 N 
ATOM      2  C   UNL     1       1.553  -4.004   1.569  0.00  0.00    +0.214 C 
ATOM      3  O   UNL     1       1.394  -4.789   0.658  0.00  0.00    -0.276 OA
ATOM      4  H   UNL     1       1.617  -2.051   2.063  0.00  0.00    +0.149 HD
ENDROOT
BRANCH   1   5
ATOM      5  C   UNL     1       1.229  -2.186  -0.020  0.00  0.00    +0.139 C 
BRANCH   5  10
ATOM      6  C   UNL     1      -0.017   1.378   0.010  0.00  0.00    +0.000 A 
ATOM      7  C   UNL     1       1.171   2.085   0.002  0.00  0.00    +0.000 A 
ATOM      8  C   UNL     1       2.377   1.411  -0.013  0.00  0.00    +0.002 A 
ATOM      9  C   UNL     1       2.396   0.028  -0.020  0.00  0.00    -0.059 A 
ATOM     10  C   UNL     1       1.209  -0.679  -0.012  0.00  0.00    -0.029 A 
ATOM     11  C   UNL     1       0.002  -0.004   0.002  0.00  0.00    +0.005 A 
BRANCH   9  12
ATOM     12  C   UNL     1       3.711  -0.707  -0.038  0.00  0.00    -0.043 C 
BRANCH  12  13
ATOM     13  N   UNL     1       4.007  -1.149  -1.407  0.00  0.00    +0.382 N 
ATOM     14  C   UNL     1       4.197   0.024  -2.268  0.00  0.00    -0.078 C 
ATOM     15  C   UNL     1       4.425  -0.430  -3.712  0.00  0.00    -0.019 C 
ATOM     16  C   UNL     1       5.672  -1.316  -3.771  0.00  0.00    -0.004 C 
ATOM     17  C   UNL     1       5.493  -2.498  -2.813  0.00  0.00    -0.019 C 
ATOM     18  C   UNL     1       5.226  -1.967  -1.403  0.00  0.00    -0.078 C 
ATOM     19  H   UNL     1       3.236  -1.699  -1.756  0.00  0.00    -0.081 HD
ENDBRANCH  12  13
ENDBRANCH   9  12
ENDBRANCH   5  10
ENDBRANCH   1   5
BRANCH   2  20
ATOM     20  C   UNL     1       1.821  -4.511   2.962  0.00  0.00    +0.106 C 
BRANCH  20  21
ATOM     21  C   UNL     1       1.842  -6.041   2.954  0.00  0.00    +0.079 C 
BRANCH  21  22
ATOM     22  S   UNL     1       2.165  -6.651   4.631  0.00  0.00    -0.153 S 
BRANCH  22  23
ATOM     23  C   UNL     1       2.157  -8.456   4.451  0.00  0.00    +0.143 C 
BRANCH  23  24
ATOM     24  C   UNL     1       2.417  -9.096   5.790  0.00  0.00    +0.121 A 
ATOM     25  N   UNL     1       2.461 -10.450   5.885  0.00  0.00    -0.310 N 
ATOM     26  H   UNL     1       2.324 -10.986   5.088  0.00  0.00    +0.170 HD
ATOM     27  C   UNL     1       2.690 -11.062   7.062  0.00  0.00    +0.260 A 
ATOM     28  O   UNL     1       2.726 -12.279   7.131  0.00  0.00    -0.267 OA
ATOM     29  C   UNL     1       2.890 -10.258   8.230  0.00  0.00    +0.075 A 
ATOM     30  C   UNL     1       3.154 -10.707   9.605  0.00  0.00    -0.023 A 
ATOM     31  C   UNL     1       3.307  -9.750  10.537  0.00  0.00    -0.004 A 
ATOM     32  S   UNL     1       3.117  -8.217   9.657  0.00  0.00    -0.073 S 
ATOM     33  C   UNL     1       2.829  -8.872   8.035  0.00  0.00    +0.116 A 
ATOM     34  N   UNL     1       2.602  -8.337   6.838  0.00  0.00    -0.226 NA
ATOM     35  C   UNL     1       3.565 -10.325  11.904  0.00  0.00    +0.043 C 
ATOM     36  C   UNL     1       3.128 -11.802  11.793  0.00  0.00    +0.010 C 
ATOM     37  C   UNL     1       3.310 -12.069  10.286  0.00  0.00    +0.037 C 
ENDBRANCH  23  24
ENDBRANCH  22  23
ENDBRANCH  21  22
ENDBRANCH  20  21
ENDBRANCH   2  20
TORSDOF 9
