REMARK  Name = ZINC00352141
REMARK  5 active torsions:
REMARK  status: ('A' for Active; 'I' for Inactive)
REMARK    1  A    between atoms: C_1  and  C_2
REMARK    2  A    between atoms: C_6  and  C_9
REMARK    3  A    between atoms: C_7  and  O_8
REMARK    4  A    between atoms: C_12  and  C_21
REMARK    5  A    between atoms: C_12  and  O_25
REMARK                            x       y       z     vdW  Elec       q    Type
REMARK                         _______ _______ _______ _____ _____    ______ ____
ROOT
ATOM      1  C   UNL     1      -0.014   1.212   0.009  0.00  0.00    +0.272 C 
ATOM      2  O   UNL     1       0.094   0.001   0.005  0.00  0.00    -0.268 OA
ATOM      3  N   UNL     1      -1.237   1.779   0.042  0.00  0.00    -0.148 N 
ATOM      4  C   UNL     1      -2.517   1.056   0.155  0.00  0.00    +0.259 C 
ATOM      5  C   UNL     1      -3.562   2.171   0.012  0.00  0.00    +0.096 C 
ATOM      6  C   UNL     1      -4.470   2.252   1.241  0.00  0.00    +0.014 C 
ATOM      7  C   UNL     1      -5.258   3.564   1.178  0.00  0.00    +0.001 C 
ATOM      8  C   UNL     1      -4.328   4.770   1.289  0.00  0.00    +0.006 C 
ATOM      9  C   UNL     1      -3.370   4.812   0.088  0.00  0.00    +0.053 C 
ATOM     10  C   UNL     1      -2.728   3.443  -0.004  0.00  0.00    +0.045 C 
ATOM     11  N   UNL     1      -1.501   3.148  -0.018  0.00  0.00    -0.183 NA
ENDROOT
BRANCH   1  17
ATOM     12  C   UNL     1       4.963   1.670   0.111  0.00  0.00    +0.047 C 
ATOM     13  C   UNL     1       3.591   2.288   0.019  0.00  0.00    -0.008 A 
ATOM     14  C   UNL     1       3.458   3.657  -0.101  0.00  0.00    +0.007 A 
ATOM     15  C   UNL     1       2.202   4.234  -0.186  0.00  0.00    +0.001 A 
ATOM     16  C   UNL     1       1.071   3.446  -0.157  0.00  0.00    +0.017 A 
ATOM     17  C   UNL     1       1.191   2.061  -0.029  0.00  0.00    +0.080 A 
ATOM     18  C   UNL     1       2.465   1.480   0.056  0.00  0.00    +0.132 A 
BRANCH  18  19
ATOM     19  O   UNL     1       2.594   0.135   0.175  0.00  0.00    -0.506 OA
ATOM     20  H   UNL     1       2.656  -0.330  -0.671  0.00  0.00    +0.292 HD
ENDBRANCH  18  19
ENDBRANCH   1  17
BRANCH   4  21
ATOM     21  C   UNL     1      -2.659   0.030  -0.971  0.00  0.00    +0.438 C 
ATOM     22  F   UNL     1      -1.629  -0.912  -0.875  0.00  0.00    -0.166 F 
ATOM     23  F   UNL     1      -3.894  -0.617  -0.859  0.00  0.00    -0.166 F 
ATOM     24  F   UNL     1      -2.583   0.680  -2.207  0.00  0.00    -0.166 F 
ENDBRANCH   4  21
BRANCH   4  25
ATOM     25  O   UNL     1      -2.628   0.422   1.431  0.00  0.00    -0.363 OA
ATOM     26  H   UNL     1      -1.944  -0.240   1.601  0.00  0.00    +0.212 HD
ENDBRANCH   4  25
TORSDOF 4
