REMARK  Name = ZINC09008542
REMARK  11 active torsions:
REMARK  status: ('A' for Active; 'I' for Inactive)
REMARK    1  A    between atoms: C_1  and  N_55
REMARK    2  A    between atoms: C_2  and  N_55
REMARK    3  A    between atoms: C_3  and  C_4
REMARK    4  A    between atoms: C_3  and  N_55
REMARK    5  A    between atoms: C_4  and  C_5
REMARK    6  A    between atoms: C_5  and  N_6
REMARK    7  A    between atoms: C_7  and  C_27
REMARK    8  A    between atoms: C_10  and  C_11
REMARK    9  A    between atoms: C_10  and  O_22
REMARK   10  A    between atoms: C_17  and  O_20
REMARK   11  A    between atoms: O_20  and  C_21
REMARK                            x       y       z     vdW  Elec       q    Type
REMARK                         _______ _______ _______ _____ _____    ______ ____
ROOT
ATOM      1  N   UNL     1      -2.220  -0.455   0.876  0.00  0.00    -0.283 N 
ATOM      2  C   UNL     1      -1.125  -0.801  -0.034  0.00  0.00    +0.151 C 
ATOM      3  C   UNL     1      -1.757  -1.125  -1.367  0.00  0.00    +0.075 C 
ATOM      4  C   UNL     1      -1.103  -1.506  -2.527  0.00  0.00    +0.168 C 
ATOM      5  C   UNL     1      -3.137  -0.963  -1.195  0.00  0.00    +0.249 C 
ATOM      6  O   UNL     1      -3.989  -1.134  -2.049  0.00  0.00    -0.282 OA
ATOM      7  C   UNL     1      -3.384  -0.547   0.211  0.00  0.00    +0.288 C 
ATOM      8  O   UNL     1      -4.478  -0.322   0.688  0.00  0.00    -0.266 OA
ENDROOT
BRANCH   4   9
ATOM      9  C   UNL     1      -1.852  -1.654  -3.775  0.00  0.00    +0.171 A 
ATOM     10  C   UNL     1      -1.765  -2.716  -4.625  0.00  0.00    +0.061 A 
ATOM     11  C   UNL     1      -2.654  -2.457  -5.698  0.00  0.00    +0.025 A 
ATOM     12  C   UNL     1      -3.002  -3.161  -6.858  0.00  0.00    +0.012 A 
ATOM     13  C   UNL     1      -3.912  -2.632  -7.727  0.00  0.00    +0.004 A 
ATOM     14  C   UNL     1      -4.497  -1.399  -7.471  0.00  0.00    +0.049 A 
ATOM     15  C   UNL     1      -4.169  -0.686  -6.333  0.00  0.00    +0.163 A 
ATOM     16  C   UNL     1      -3.242  -1.208  -5.433  0.00  0.00    +0.177 A 
ATOM     17  O   UNL     1      -2.734  -0.757  -4.267  0.00  0.00    -0.448 OA
BRANCH  15  18
ATOM     18  O   UNL     1      -4.749   0.521  -6.093  0.00  0.00    -0.491 OA
ATOM     19  C   UNL     1      -5.689   0.992  -7.060  0.00  0.00    +0.277 C 
ENDBRANCH  15  18
ENDBRANCH   4   9
BRANCH   2  20
ATOM     20  C   UNL     1      -0.185   0.368  -0.178  0.00  0.00    +0.015 A 
ATOM     21  C   UNL     1       1.168   0.370  -0.266  0.00  0.00    +0.013 A 
ATOM     22  C   UNL     1       1.829   1.577  -0.396  0.00  0.00    +0.008 A 
ATOM     23  C   UNL     1       1.106   2.723  -0.431  0.00  0.00    +0.045 A 
ATOM     24  S   UNL     1      -0.564   2.110  -0.279  0.00  0.00    -0.099 S 
ENDBRANCH   2  20
BRANCH   4  25
ATOM     25  O   UNL     1       0.228  -1.741  -2.507  0.00  0.00    -0.503 OA
ATOM     26  H   UNL     1       0.535  -2.003  -3.422  0.00  0.00    +0.292 HD
ENDBRANCH   4  25
BRANCH   1  27
ATOM     27  C   UNL     1      -2.071  -0.071   2.282  0.00  0.00    +0.107 C 
BRANCH  27  28
ATOM     28  C   UNL     1      -1.905   1.446   2.382  0.00  0.00    +0.000 C 
BRANCH  28  29
ATOM     29  C   UNL     1      -1.749   1.847   3.851  0.00  0.00    -0.078 C 
BRANCH  29  32
ATOM     30  C   UNL     1      -2.815   3.996   3.524  0.00  0.00    -0.097 C 
ATOM     31  C   UNL     1      -1.203   3.703   5.306  0.00  0.00    -0.097 C 
ATOM     32  N   UNL     1      -1.569   3.312   3.929  0.00  0.00    +0.376 N 
ATOM     33  H   UNL     1      -0.814   3.589   3.291  0.00  0.00    -0.083 HD
ENDBRANCH  29  32
ENDBRANCH  28  29
ENDBRANCH  27  28
ENDBRANCH   1  27
TORSDOF 8
