REMARK  Name = ZINC21251958
REMARK  8 active torsions:
REMARK  status: ('A' for Active; 'I' for Inactive)
REMARK    1  A    between atoms: C_1  and  O_2
REMARK    2  A    between atoms: O_2  and  C_3
REMARK    3  A    between atoms: C_5  and  C_13
REMARK    4  A    between atoms: C_7  and  O_11
REMARK    5  A    between atoms: C_8  and  O_9
REMARK    6  A    between atoms: O_9  and  C_10
REMARK    7  A    between atoms: O_11  and  C_12
REMARK    8  A    between atoms: C_18  and  C_28
REMARK                            x       y       z     vdW  Elec       q    Type
REMARK                         _______ _______ _______ _____ _____    ______ ____
ROOT
ATOM      1  C   UNL     1       1.235  -0.513   0.747  0.00  0.00    +0.032 C 
ATOM      2  C   UNL     1       0.002  -0.004   0.002  0.00  0.00    +0.059 C 
ATOM      3  C   UNL     1      -0.018   1.515   0.010  0.00  0.00    +0.017 C 
ATOM      4  C   UNL     1       1.130   2.213   0.003  0.00  0.00    +0.039 C 
ATOM      5  C   UNL     1       1.253   3.718   0.008  0.00  0.00    +0.172 C 
ATOM      6  N   UNL     1       0.014   4.423  -0.243  0.00  0.00    -0.329 N 
ATOM      7  C   UNL     1      -1.053   4.341   0.651  0.00  0.00    +0.049 A 
ATOM      8  C   UNL     1      -1.500   5.451   1.349  0.00  0.00    +0.025 A 
ATOM      9  C   UNL     1      -2.533   5.310   2.260  0.00  0.00    +0.002 A 
ATOM     10  C   UNL     1      -3.113   4.073   2.476  0.00  0.00    +0.002 A 
ATOM     11  C   UNL     1      -2.679   2.966   1.767  0.00  0.00    +0.025 A 
ATOM     12  C   UNL     1      -1.663   3.110   0.839  0.00  0.00    +0.052 A 
ATOM     13  N   UNL     1      -1.258   2.067   0.014  0.00  0.00    -0.316 N 
ATOM     14  C   UNL     1       2.373   1.537  -0.001  0.00  0.00    +0.163 C 
ATOM     15  O   UNL     1       3.397   2.193  -0.034  0.00  0.00    -0.292 OA
ATOM     16  C   UNL     1       2.473   0.042   0.033  0.00  0.00    +0.088 C 
ATOM     17  H   UNL     1      -0.096   5.035  -1.150  0.00  0.00    +0.147 HD
ATOM     18  H   UNL     1      -2.030   1.690  -0.673  0.00  0.00    +0.152 HD
ENDROOT
BRANCH   1  21
ATOM     19  C   UNL     1       1.264  -4.118   1.883  0.00  0.00    +0.165 A 
ATOM     20  C   UNL     1       1.240  -2.731   1.904  0.00  0.00    +0.053 A 
ATOM     21  C   UNL     1       1.262  -2.020   0.719  0.00  0.00    -0.036 A 
ATOM     22  C   UNL     1       1.303  -2.687  -0.491  0.00  0.00    +0.053 A 
ATOM     23  C   UNL     1       1.333  -4.073  -0.520  0.00  0.00    +0.165 A 
ATOM     24  C   UNL     1       1.311  -4.792   0.669  0.00  0.00    +0.204 A 
BRANCH  19  26
ATOM     25  C   UNL     1       1.195  -4.058   4.260  0.00  0.00    +0.277 C 
ATOM     26  O   UNL     1       1.243  -4.817   3.050  0.00  0.00    -0.491 OA
ENDBRANCH  19  26
BRANCH  24  27
ATOM     27  O   UNL     1       1.336  -6.152   0.644  0.00  0.00    -0.488 OA
ATOM     28  C   UNL     1       0.075  -6.823   0.596  0.00  0.00    +0.277 C 
ENDBRANCH  24  27
BRANCH  23  29
ATOM     29  O   UNL     1       1.379  -4.728  -1.711  0.00  0.00    -0.491 OA
ATOM     30  C   UNL     1       1.400  -3.925  -2.893  0.00  0.00    +0.277 C 
ENDBRANCH  23  29
ENDBRANCH   1  21
BRANCH   5  31
ATOM     31  C   UNL     1       1.784   4.149   1.351  0.00  0.00    +0.130 A 
ATOM     32  C   UNL     1       3.060   4.474   1.625  0.00  0.00    +0.047 A 
ATOM     33  C   UNL     1       3.110   4.814   2.997  0.00  0.00    +0.041 A 
ATOM     34  C   UNL     1       1.862   4.676   3.479  0.00  0.00    +0.195 A 
ATOM     35  O   UNL     1       1.062   4.279   2.476  0.00  0.00    -0.466 OA
ENDBRANCH   5  31
TORSDOF 5
