REMARK  Name = ZINC08586082
REMARK  10 active torsions:
REMARK  status: ('A' for Active; 'I' for Inactive)
REMARK    1  A    between atoms: C_1  and  C_2
REMARK    2  A    between atoms: C_9  and  C_13
REMARK    3  A    between atoms: C_10  and  O_12
REMARK    4  A    between atoms: C_13  and  C_15
REMARK    5  A    between atoms: C_13  and  N_66
REMARK    6  A    between atoms: N_19  and  C_20
REMARK    7  A    between atoms: C_25  and  C_26
REMARK    8  A    between atoms: C_25  and  N_66
REMARK    9  A    between atoms: C_32  and  C_33
REMARK   10  A    between atoms: C_32  and  N_66
REMARK                            x       y       z     vdW  Elec       q    Type
REMARK                         _______ _______ _______ _____ _____    ______ ____
ROOT
ATOM      1  C   UNL     1      -2.723   4.028   0.728  0.00  0.00    +0.040 C 
ENDROOT
BRANCH   1  10
ATOM      2  C   UNL     1       0.722   7.824  -4.635  0.00  0.00    +0.044 C 
ATOM      3  C   UNL     1      -0.220   7.759  -3.461  0.00  0.00    -0.050 A 
ATOM      4  C   UNL     1      -0.858   8.919  -3.026  0.00  0.00    +0.005 A 
ATOM      5  C   UNL     1      -1.714   8.895  -1.969  0.00  0.00    +0.029 A 
ATOM      6  C   UNL     1      -1.963   7.684  -1.300  0.00  0.00    +0.075 A 
ATOM      7  C   UNL     1      -1.313   6.506  -1.743  0.00  0.00    +0.001 A 
ATOM      8  C   UNL     1      -0.436   6.568  -2.837  0.00  0.00    +0.013 A 
ATOM      9  C   UNL     1      -1.563   5.292  -1.073  0.00  0.00    +0.017 A 
ATOM     10  C   UNL     1      -2.426   5.303  -0.018  0.00  0.00    +0.008 A 
ATOM     11  C   UNL     1      -3.042   6.500   0.368  0.00  0.00    +0.215 A 
ATOM     12  N   UNL     1      -2.801   7.632  -0.258  0.00  0.00    -0.213 NA
BRANCH  11  13
ATOM     13  O   UNL     1      -3.903   6.494   1.415  0.00  0.00    -0.492 OA
ATOM     14  H   UNL     1      -3.483   6.659   2.271  0.00  0.00    +0.294 HD
ENDBRANCH  11  13
ENDBRANCH   1  10
BRANCH   1  15
ATOM     15  C   UNL     1      -3.919   3.351   0.111  0.00  0.00    +0.143 A 
ATOM     16  N   UNL     1      -3.927   2.606  -0.968  0.00  0.00    -0.115 NA
ATOM     17  N   UNL     1      -5.136   2.212  -1.171  0.00  0.00    -0.023 NA
ATOM     18  N   UNL     1      -5.901   2.686  -0.250  0.00  0.00    -0.044 NA
ATOM     19  N   UNL     1      -5.186   3.389   0.562  0.00  0.00    -0.227 N 
BRANCH  19  20
ATOM     20  C   UNL     1      -5.665   4.099   1.751  0.00  0.00    +0.111 C 
ATOM     21  C   UNL     1      -6.489   3.145   2.640  0.00  0.00    +0.027 C 
ATOM     22  C   UNL     1      -7.629   4.035   3.197  0.00  0.00    +0.002 C 
ATOM     23  C   UNL     1      -7.975   4.942   1.990  0.00  0.00    +0.002 C 
ATOM     24  C   UNL     1      -6.609   5.242   1.338  0.00  0.00    +0.027 C 
ENDBRANCH  19  20
ENDBRANCH   1  15
BRANCH   1  25
ATOM     25  N   UNL     1      -1.554   3.129   0.623  0.00  0.00    +0.397 N 
ATOM     26  H   UNL     1      -1.343   2.972  -0.370  0.00  0.00    -0.079 HD
BRANCH  25  27
ATOM     27  C   UNL     1      -0.380   3.749   1.272  0.00  0.00    -0.039 C 
BRANCH  27  28
ATOM     28  C   UNL     1       0.865   3.053   0.785  0.00  0.00    -0.046 A 
ATOM     29  C   UNL     1       1.386   1.975   1.485  0.00  0.00    +0.005 A 
ATOM     30  C   UNL     1       2.530   1.363   0.998  0.00  0.00    +0.020 A 
ATOM     31  C   UNL     1       3.115   1.849  -0.156  0.00  0.00    +0.111 A 
ATOM     32  N   UNL     1       2.595   2.880  -0.793  0.00  0.00    -0.263 NA
ATOM     33  C   UNL     1       1.505   3.484  -0.361  0.00  0.00    +0.112 A 
ENDBRANCH  27  28
ENDBRANCH  25  27
BRANCH  25  34
ATOM     34  C   UNL     1      -1.856   1.830   1.260  0.00  0.00    -0.001 C 
BRANCH  34  35
ATOM     35  C   UNL     1      -2.076   2.007   2.741  0.00  0.00    +0.089 A 
ATOM     36  C   UNL     1      -3.265   2.185   3.344  0.00  0.00    +0.042 A 
ATOM     37  C   UNL     1      -3.009   2.300   4.729  0.00  0.00    +0.041 A 
ATOM     38  C   UNL     1      -1.678   2.184   4.890  0.00  0.00    +0.195 A 
ATOM     39  O   UNL     1      -1.119   2.007   3.683  0.00  0.00    -0.470 OA
ENDBRANCH  34  35
ENDBRANCH  25  34
ENDBRANCH   1  25
TORSDOF 9
