REMARK  Name = ZINC06321348
REMARK  9 active torsions:
REMARK  status: ('A' for Active; 'I' for Inactive)
REMARK    1  A    between atoms: C_1  and  C_2
REMARK    2  A    between atoms: C_6  and  C_15
REMARK    3  A    between atoms: C_13  and  C_14
REMARK    4  A    between atoms: C_15  and  C_17
REMARK    5  A    between atoms: C_15  and  N_74
REMARK    6  A    between atoms: N_21  and  C_22
REMARK    7  A    between atoms: C_22  and  C_23
REMARK    8  A    between atoms: C_31  and  C_34
REMARK    9  A    between atoms: C_34  and  C_35
REMARK                            x       y       z     vdW  Elec       q    Type
REMARK                         _______ _______ _______ _____ _____    ______ ____
ROOT
ATOM      1  C   UNL     1       4.884   3.977  -0.023  0.00  0.00    +0.039 C 
ENDROOT
BRANCH   1   7
ATOM      2  C   UNL     1      -2.572   3.855   0.044  0.00  0.00    +0.044 C 
ATOM      3  C   UNL     1      -1.246   3.139   0.029  0.00  0.00    -0.047 A 
ATOM      4  C   UNL     1      -0.087   3.862   0.022  0.00  0.00    +0.013 A 
ATOM      5  C   UNL     1       1.144   3.197   0.008  0.00  0.00    -0.001 A 
ATOM      6  C   UNL     1       2.405   3.941  -0.000  0.00  0.00    +0.017 A 
ATOM      7  C   UNL     1       3.568   3.243  -0.015  0.00  0.00    +0.011 A 
ATOM      8  C   UNL     1       3.550   1.831  -0.021  0.00  0.00    +0.251 A 
ATOM      9  O   UNL     1       4.606   1.224  -0.035  0.00  0.00    -0.268 OA
ATOM     10  N   UNL     1       2.397   1.140  -0.015  0.00  0.00    -0.322 N 
ATOM     11  H   UNL     1       2.420   0.171  -0.020  0.00  0.00    +0.169 HD
ATOM     12  C   UNL     1       1.181   1.790   0.000  0.00  0.00    +0.049 A 
ATOM     13  C   UNL     1      -0.013   1.076   0.008  0.00  0.00    +0.030 A 
ATOM     14  C   UNL     1      -1.214   1.751   0.017  0.00  0.00    -0.046 A 
ATOM     15  C   UNL     1      -2.506   0.975   0.020  0.00  0.00    +0.044 C 
ENDBRANCH   1   7
BRANCH   1  21
ATOM     16  C   UNL     1       4.997   3.674   2.376  0.00  0.00    -0.077 C 
ATOM     17  C   UNL     1       5.823   3.052   3.505  0.00  0.00    -0.015 C 
ATOM     18  C   UNL     1       7.188   3.743   3.571  0.00  0.00    -0.010 C 
ATOM     19  C   UNL     1       7.888   3.605   2.216  0.00  0.00    -0.015 C 
ATOM     20  C   UNL     1       7.002   4.211   1.126  0.00  0.00    -0.077 C 
ATOM     21  N   UNL     1       5.714   3.486   1.097  0.00  0.00    +0.389 N 
ATOM     22  H   UNL     1       5.897   2.485   0.962  0.00  0.00    -0.080 HD
BRANCH  18  23
ATOM     23  C   UNL     1       8.043   3.086   4.657  0.00  0.00    +0.038 C 
BRANCH  23  24
ATOM     24  C   UNL     1       7.415   3.329   6.006  0.00  0.00    -0.047 A 
ATOM     25  C   UNL     1       7.764   4.447   6.739  0.00  0.00    +0.003 A 
ATOM     26  C   UNL     1       7.184   4.672   7.974  0.00  0.00    +0.000 A 
ATOM     27  C   UNL     1       6.263   3.774   8.479  0.00  0.00    +0.000 A 
ATOM     28  C   UNL     1       5.918   2.653   7.748  0.00  0.00    +0.000 A 
ATOM     29  C   UNL     1       6.494   2.430   6.511  0.00  0.00    +0.003 A 
ENDBRANCH  23  24
ENDBRANCH  18  23
ENDBRANCH   1  21
BRANCH   1  30
ATOM     30  C   UNL     1       5.603   3.704  -1.319  0.00  0.00    +0.143 A 
ATOM     31  N   UNL     1       6.228   2.600  -1.650  0.00  0.00    -0.115 NA
ATOM     32  N   UNL     1       6.710   2.756  -2.834  0.00  0.00    -0.023 NA
ATOM     33  N   UNL     1       6.416   3.933  -3.264  0.00  0.00    -0.044 NA
ATOM     34  N   UNL     1       5.734   4.548  -2.358  0.00  0.00    -0.228 N 
BRANCH  34  35
ATOM     35  C   UNL     1       5.202   5.911  -2.445  0.00  0.00    +0.178 C 
BRANCH  35  36
ATOM     36  C   UNL     1       6.238   6.899  -1.905  0.00  0.00    +0.140 C 
ATOM     37  C   UNL     1       5.716   8.351  -2.038  0.00  0.00    +0.035 C 
ATOM     38  C   UNL     1       6.527   9.060  -0.919  0.00  0.00    +0.031 C 
ATOM     39  C   UNL     1       6.637   7.956   0.155  0.00  0.00    +0.160 C 
ATOM     40  O   UNL     1       6.431   6.697  -0.495  0.00  0.00    -0.375 OA
ENDBRANCH  35  36
ENDBRANCH  34  35
ENDBRANCH   1  30
TORSDOF 7
