REMARK  Name = ZINC09232677
REMARK  4 active torsions:
REMARK  status: ('A' for Active; 'I' for Inactive)
REMARK    1  A    between atoms: C_4  and  C_7
REMARK    2  A    between atoms: C_7  and  C_9
REMARK    3  A    between atoms: C_11  and  C_29
REMARK    4  A    between atoms: C_32  and  N_35
REMARK                            x       y       z     vdW  Elec       q    Type
REMARK                         _______ _______ _______ _____ _____    ______ ____
ROOT
ATOM      1  C   UNL     1       2.029  -2.729   1.194  0.00  0.00    +0.069 C 
ATOM      2  C   UNL     1       1.229  -2.186  -0.022  0.00  0.00    +0.016 C 
ATOM      3  C   UNL     1       2.035  -2.709  -1.216  0.00  0.00    -0.047 C 
ATOM      4  C   UNL     1       1.169  -2.902  -2.468  0.00  0.00    +0.052 C 
ATOM      5  S   UNL     1       1.051  -4.739  -2.540  0.00  0.00    -0.181 S 
ATOM      6  C   UNL     1       2.500  -5.148  -1.485  0.00  0.00    -0.005 C 
ATOM      7  C   UNL     1       2.645  -4.030   0.661  0.00  0.00    +0.052 C 
ATOM      8  C   UNL     1       1.761  -5.194   1.027  0.00  0.00    -0.024 A 
ATOM      9  C   UNL     1       0.476  -5.554   0.684  0.00  0.00    +0.043 A 
ATOM     10  C   UNL     1      -0.085  -6.704   1.221  0.00  0.00    +0.124 A 
ATOM     11  C   UNL     1       0.651  -7.490   2.087  0.00  0.00    +0.040 A 
ATOM     12  C   UNL     1       1.948  -7.147   2.411  0.00  0.00    +0.026 A 
ATOM     13  C   UNL     1       2.514  -5.992   1.881  0.00  0.00    +0.036 A 
ATOM     14  N   UNL     1       3.790  -5.444   2.054  0.00  0.00    -0.286 N 
ATOM     15  C   UNL     1       3.972  -4.343   1.296  0.00  0.00    +0.212 C 
ATOM     16  O   UNL     1       5.032  -3.772   1.139  0.00  0.00    -0.277 OA
ATOM     17  F   UNL     1      -1.352  -7.044   0.902  0.00  0.00    -0.205 F 
ATOM     18  H   UNL     1       4.456  -5.816   2.651  0.00  0.00    +0.155 HD
ATOM     19  N   UNL     1       2.848  -3.868  -0.769  0.00  0.00    +0.401 N 
ATOM     20  H   UNL     1       3.837  -3.661  -0.948  0.00  0.00    -0.078 HD
ENDROOT
BRANCH   2  21
ATOM     21  C   UNL     1       1.208  -0.679  -0.014  0.00  0.00    -0.045 A 
ATOM     22  C   UNL     1       0.002  -0.004   0.002  0.00  0.00    +0.006 A 
ATOM     23  C   UNL     1      -0.017   1.378   0.010  0.00  0.00    +0.033 A 
ATOM     24  C   UNL     1       1.171   2.086   0.002  0.00  0.00    +0.126 A 
ATOM     25  C   UNL     1       2.377   1.411  -0.014  0.00  0.00    +0.033 A 
ATOM     26  C   UNL     1       2.396   0.029  -0.021  0.00  0.00    +0.006 A 
BRANCH  24  27
ATOM     27  N   UNL     1       1.151   3.566   0.010  0.00  0.00    +0.056 N 
ATOM     28  O   UNL     1       0.088   4.160   0.023  0.00  0.00    -0.126 OA
ATOM     29  O   UNL     1       2.197   4.189   0.003  0.00  0.00    -0.126 OA
ENDBRANCH  24  27
ENDBRANCH   2  21
BRANCH   1  30
ATOM     30  C   UNL     1       3.078  -1.733   1.603  0.00  0.00    +0.166 C 
ATOM     31  O   UNL     1       4.179  -1.768   1.096  0.00  0.00    -0.292 OA
BRANCH  30  35
ATOM     32  C   UNL     1       2.188   1.200   4.536  0.00  0.00    +0.000 A 
ATOM     33  C   UNL     1       3.446   1.163   3.958  0.00  0.00    +0.001 A 
ATOM     34  C   UNL     1       3.743   0.213   3.005  0.00  0.00    +0.011 A 
ATOM     35  C   UNL     1       2.769  -0.715   2.621  0.00  0.00    +0.018 A 
ATOM     36  C   UNL     1       1.500  -0.667   3.205  0.00  0.00    +0.011 A 
ATOM     37  C   UNL     1       1.220   0.285   4.162  0.00  0.00    +0.001 A 
ENDBRANCH  30  35
ENDBRANCH   1  30
TORSDOF 4
