REMARK  Name = ZINC35893229
REMARK  9 active torsions:
REMARK  status: ('A' for Active; 'I' for Inactive)
REMARK    1  A    between atoms: C_1  and  C_2
REMARK    2  A    between atoms: C_2  and  C_3
REMARK    3  A    between atoms: C_6  and  C_9
REMARK    4  A    between atoms: C_13  and  C_23
REMARK    5  A    between atoms: N_19  and  C_20
REMARK    6  A    between atoms: C_20  and  C_21
REMARK    7  A    between atoms: C_20  and  C_22
REMARK    8  A    between atoms: N_25  and  C_26
REMARK    9  A    between atoms: C_26  and  C_27
REMARK                            x       y       z     vdW  Elec       q    Type
REMARK                         _______ _______ _______ _____ _____    ______ ____
ROOT
ATOM      1  C   UNL     1       2.710  -1.872  -4.750  0.00  0.00    +0.108 C 
ATOM      2  C   UNL     1       3.066  -3.352  -4.582  0.00  0.00    +0.028 C 
ATOM      3  C   UNL     1       3.906  -3.809  -5.777  0.00  0.00    +0.016 C 
ATOM      4  C   UNL     1       5.206  -3.002  -5.826  0.00  0.00    +0.092 C 
ATOM      5  C   UNL     1       4.874  -1.518  -6.008  0.00  0.00    +0.122 C 
ATOM      6  N   UNL     1       3.947  -1.104  -4.945  0.00  0.00    -0.278 N 
ATOM      7  C   UNL     1       4.228  -0.043  -4.163  0.00  0.00    +0.303 C 
ATOM      8  O   UNL     1       3.502   0.232  -3.228  0.00  0.00    -0.253 OA
ATOM      9  N   UNL     1       5.314   0.713  -4.417  0.00  0.00    -0.297 N 
ATOM     10  H   UNL     1       5.851   0.541  -5.207  0.00  0.00    +0.150 HD
ENDROOT
BRANCH   1  14
ATOM     11  C   UNL     1       0.697  -0.480  -1.248  0.00  0.00    -0.048 A 
ATOM     12  C   UNL     1       0.141  -0.267  -2.496  0.00  0.00    +0.004 A 
ATOM     13  C   UNL     1       0.792  -0.718  -3.629  0.00  0.00    +0.006 A 
ATOM     14  C   UNL     1       2.000  -1.380  -3.514  0.00  0.00    -0.027 A 
ATOM     15  C   UNL     1       2.557  -1.592  -2.267  0.00  0.00    +0.006 A 
ATOM     16  C   UNL     1       1.908  -1.138  -1.134  0.00  0.00    +0.004 A 
BRANCH  11  18
ATOM     17  C   UNL     1       0.441   1.437   0.304  0.00  0.00    +0.009 C 
ATOM     18  C   UNL     1      -0.013   0.011  -0.013  0.00  0.00    +0.032 C 
ENDBRANCH  11  18
ENDBRANCH   1  14
BRANCH   4  19
ATOM     19  C   UNL     1       6.048  -3.475  -6.984  0.00  0.00    +0.218 C 
ATOM     20  O   UNL     1       5.648  -4.370  -7.698  0.00  0.00    -0.275 OA
ATOM     21  N   UNL     1       7.245  -2.904  -7.224  0.00  0.00    -0.311 N 
ATOM     22  H   UNL     1       7.564  -2.189  -6.652  0.00  0.00    +0.149 HD
BRANCH  21  23
ATOM     23  C   UNL     1       8.063  -3.364  -8.348  0.00  0.00    +0.139 C 
BRANCH  23  24
ATOM     24  C   UNL     1       9.343  -2.569  -8.397  0.00  0.00    -0.027 A 
ATOM     25  C   UNL     1       9.399  -1.397  -9.127  0.00  0.00    +0.009 A 
ATOM     26  C   UNL     1      10.570  -0.664  -9.175  0.00  0.00    +0.050 A 
ATOM     27  C   UNL     1      11.691  -1.104  -8.489  0.00  0.00    +0.166 A 
ATOM     28  C   UNL     1      11.634  -2.285  -7.753  0.00  0.00    +0.167 A 
ATOM     29  C   UNL     1      10.456  -3.011  -7.706  0.00  0.00    +0.054 A 
ATOM     30  O   UNL     1      12.853  -2.499  -7.177  0.00  0.00    -0.453 OA
ATOM     31  C   UNL     1      13.772  -1.657  -7.897  0.00  0.00    +0.466 C 
ATOM     32  O   UNL     1      12.946  -0.578  -8.374  0.00  0.00    -0.453 OA
ENDBRANCH  23  24
ENDBRANCH  21  23
ENDBRANCH   4  19
BRANCH   9  33
ATOM     33  C   UNL     1       5.685   1.794  -3.501  0.00  0.00    +0.068 C 
ATOM     34  C   UNL     1       6.529   1.227  -2.357  0.00  0.00    +0.027 C 
ATOM     35  C   UNL     1       6.495   2.849  -4.258  0.00  0.00    +0.027 C 
ENDBRANCH   9  33
TORSDOF 6
