REMARK  Name = ZINC36056959
REMARK  8 active torsions:
REMARK  status: ('A' for Active; 'I' for Inactive)
REMARK    1  A    between atoms: C_1  and  C_2
REMARK    2  A    between atoms: C_2  and  C_3
REMARK    3  A    between atoms: C_2  and  C_4
REMARK    4  A    between atoms: C_2  and  C_5
REMARK    5  A    between atoms: C_15  and  C_16
REMARK    6  A    between atoms: C_15  and  O_20
REMARK    7  A    between atoms: C_23  and  C_26
REMARK    8  A    between atoms: C_26  and  N_28
REMARK                            x       y       z     vdW  Elec       q    Type
REMARK                         _______ _______ _______ _____ _____    ______ ____
ROOT
ATOM      1  C   UNL     1       0.745  -0.747  -1.154  0.00  0.00    +0.041 C 
ATOM      2  C   UNL     1       0.549  -2.268  -1.041  0.00  0.00    +0.010 C 
ATOM      3  C   UNL     1       1.272  -2.804   0.193  0.00  0.00    +0.001 C 
ATOM      4  C   UNL     1       2.786  -2.591   0.085  0.00  0.00    +0.014 C 
ATOM      5  C   UNL     1       3.062  -1.086   0.077  0.00  0.00    +0.097 C 
ATOM      6  C   UNL     1       2.235  -0.494  -1.058  0.00  0.00    +0.049 C 
ATOM      7  N   UNL     1       2.983   0.163  -1.832  0.00  0.00    -0.183 NA
ATOM      8  N   UNL     1       4.340   0.106  -1.510  0.00  0.00    -0.160 N 
ATOM      9  C   UNL     1       4.513  -0.771  -0.308  0.00  0.00    +0.258 C 
ATOM     10  C   UNL     1       5.359   0.758  -2.184  0.00  0.00    +0.184 A 
ATOM     11  N   UNL     1       5.287   1.552  -3.234  0.00  0.00    -0.221 NA
ATOM     12  C   UNL     1       6.382   2.102  -3.761  0.00  0.00    +0.101 A 
ATOM     13  C   UNL     1       7.602   1.832  -3.193  0.00  0.00    +0.078 A 
ATOM     14  S   UNL     1       7.115   0.751  -1.855  0.00  0.00    -0.058 S 
ENDROOT
BRANCH   1  16
ATOM     15  C   UNL     1      -0.365   1.377  -0.446  0.00  0.00    +0.011 C 
ATOM     16  C   UNL     1       0.019  -0.038  -0.008  0.00  0.00    -0.030 C 
ATOM     17  C   UNL     1       0.941   0.037   1.210  0.00  0.00    +0.011 C 
ATOM     18  C   UNL     1      -1.244  -0.820   0.356  0.00  0.00    +0.011 C 
ENDBRANCH   1  16
BRANCH   9  19
ATOM     19  C   UNL     1       5.266  -2.053  -0.670  0.00  0.00    +0.438 C 
ATOM     20  F   UNL     1       4.705  -2.614  -1.822  0.00  0.00    -0.166 F 
ATOM     21  F   UNL     1       6.612  -1.752  -0.906  0.00  0.00    -0.166 F 
ATOM     22  F   UNL     1       5.171  -2.964   0.387  0.00  0.00    -0.166 F 
ENDBRANCH   9  19
BRANCH   9  23
ATOM     23  O   UNL     1       5.177  -0.075   0.749  0.00  0.00    -0.363 OA
ATOM     24  H   UNL     1       6.098   0.147   0.556  0.00  0.00    +0.212 HD
ENDBRANCH   9  23
BRANCH  12  25
ATOM     25  C   UNL     1       6.284   2.985  -4.933  0.00  0.00    +0.096 C 
ATOM     26  S   UNL     1       4.755   3.314  -5.632  0.00  0.00    -0.034 S 
BRANCH  25  27
ATOM     27  N   UNL     1       7.397   3.535  -5.457  0.00  0.00    -0.351 N 
ATOM     28  H   UNL     1       8.262   3.349  -5.062  0.00  0.00    +0.143 HD
ATOM     29  H   UNL     1       7.332   4.118  -6.230  0.00  0.00    +0.143 HD
ENDBRANCH  25  27
ENDBRANCH  12  25
TORSDOF 5
