REMARK  Name = ZINC45373995
REMARK  4 active torsions:
REMARK  status: ('A' for Active; 'I' for Inactive)
REMARK    1  A    between atoms: C_3  and  O_16
REMARK    2  A    between atoms: C_6  and  C_7
REMARK    3  A    between atoms: C_7  and  C_8
REMARK    4  A    between atoms: O_16  and  C_17
REMARK                            x       y       z     vdW  Elec       q    Type
REMARK                         _______ _______ _______ _____ _____    ______ ____
ROOT
ATOM      1  C   UNL     1      -0.005   1.353  -0.231  0.00  0.00    +0.007 A 
ATOM      2  C   UNL     1       1.180   2.063  -0.240  0.00  0.00    +0.046 A 
ATOM      3  C   UNL     1       2.381   1.407  -0.012  0.00  0.00    +0.130 A 
ATOM      4  C   UNL     1       2.389   0.040   0.224  0.00  0.00    +0.046 A 
ATOM      5  C   UNL     1       1.202  -0.665   0.232  0.00  0.00    +0.007 A 
ATOM      6  C   UNL     1       0.005  -0.010   0.005  0.00  0.00    -0.046 A 
ENDROOT
BRANCH   6   7
ATOM      7  C   UNL     1      -1.289  -0.782   0.015  0.00  0.00    +0.059 C 
BRANCH   7   8
ATOM      8  C   UNL     1      -1.592  -1.287  -1.397  0.00  0.00    +0.146 C 
ATOM      9  C   UNL     1      -2.906  -2.055  -1.441  0.00  0.00    +0.234 C 
ATOM     10  O   UNL     1      -3.969  -1.536  -1.174  0.00  0.00    -0.274 OA
ATOM     11  N   UNL     1      -2.807  -3.326  -1.790  0.00  0.00    -0.246 N 
ATOM     12  C   UNL     1      -1.640  -3.925  -2.091  0.00  0.00    +0.279 C 
ATOM     13  O   UNL     1      -1.453  -5.080  -2.421  0.00  0.00    -0.263 OA
ATOM     14  S   UNL     1      -0.428  -2.624  -1.895  0.00  0.00    -0.054 S 
ATOM     15  H   UNL     1      -3.619  -3.856  -1.831  0.00  0.00    +0.158 HD
ENDBRANCH   7   8
ENDBRANCH   6   7
BRANCH   3  16
ATOM     16  O   UNL     1       3.549   2.103  -0.021  0.00  0.00    -0.438 OA
BRANCH  16  17
ATOM     17  C   UNL     1       3.848   2.859   1.066  0.00  0.00    +0.221 A 
ATOM     18  C   UNL     1       4.977   3.668   1.051  0.00  0.00    +0.069 A 
ATOM     19  C   UNL     1       5.272   4.433   2.165  0.00  0.00    +0.027 A 
ATOM     20  C   UNL     1       4.422   4.362   3.262  0.00  0.00    +0.059 A 
ATOM     21  C   UNL     1       3.316   3.535   3.206  0.00  0.00    +0.134 A 
ATOM     22  N   UNL     1       3.059   2.821   2.127  0.00  0.00    -0.220 NA
ATOM     23 CL   UNL     1       4.745   5.301   4.686  0.00  0.00    -0.082 Cl
ENDBRANCH  16  17
ENDBRANCH   3  16
TORSDOF 4
