REMARK  Name = ZINC40174242
REMARK  12 active torsions:
REMARK  status: ('A' for Active; 'I' for Inactive)
REMARK    1  A    between atoms: C_1  and  C_2
REMARK    2  A    between atoms: C_2  and  O_3
REMARK    3  A    between atoms: O_3  and  C_4
REMARK    4  A    between atoms: C_4  and  C_6
REMARK    5  A    between atoms: C_6  and  S_7
REMARK    6  A    between atoms: S_7  and  C_8
REMARK    7  A    between atoms: N_12  and  C_13
REMARK    8  A    between atoms: C_13  and  C_15
REMARK    9  A    between atoms: C_13  and  C_16
REMARK   10  A    between atoms: N_18  and  C_19
REMARK   11  A    between atoms: C_22  and  S_25
REMARK   12  A    between atoms: S_25  and  N_28
REMARK                            x       y       z     vdW  Elec       q    Type
REMARK                         _______ _______ _______ _____ _____    ______ ____
ROOT
ATOM      1  C   UNL     1      -4.306  -8.079  -1.229  0.00  0.00    +0.240 C 
ATOM      2  O   UNL     1      -5.153  -7.709  -2.014  0.00  0.00    -0.273 OA
ATOM      3  N   UNL     1      -3.632  -9.224  -1.455  0.00  0.00    -0.284 N 
ATOM      4  H   UNL     1      -2.908  -9.486  -0.865  0.00  0.00    +0.155 HD
ENDROOT
BRANCH   3   5
ATOM      5  C   UNL     1      -3.976 -10.035  -2.542  0.00  0.00    +0.034 A 
ATOM      6  C   UNL     1      -3.894 -11.417  -2.432  0.00  0.00    +0.025 A 
ATOM      7  C   UNL     1      -4.234 -12.215  -3.507  0.00  0.00    +0.030 A 
ATOM      8  C   UNL     1      -4.656 -11.639  -4.691  0.00  0.00    +0.106 A 
ATOM      9  C   UNL     1      -4.738 -10.263  -4.804  0.00  0.00    +0.030 A 
ATOM     10  C   UNL     1      -4.405  -9.460  -3.731  0.00  0.00    +0.025 A 
BRANCH   8  11
ATOM     11  S   UNL     1      -5.089 -12.661  -6.060  0.00  0.00    +0.061 S 
ATOM     12  O   UNL     1      -4.930 -11.865  -7.227  0.00  0.00    -0.153 OA
ATOM     13  O   UNL     1      -4.406 -13.893  -5.879  0.00  0.00    -0.153 OA
BRANCH  11  14
ATOM     14  N   UNL     1      -6.707 -12.993  -5.931  0.00  0.00    -0.177 NA
ATOM     15  C   UNL     1      -7.172 -14.169  -5.183  0.00  0.00    +0.109 C 
ATOM     16  C   UNL     1      -8.197 -13.716  -4.139  0.00  0.00    +0.017 C 
ATOM     17  C   UNL     1      -9.312 -12.930  -4.832  0.00  0.00    +0.003 C 
ATOM     18  C   UNL     1      -8.723 -11.687  -5.501  0.00  0.00    +0.017 C 
ATOM     19  C   UNL     1      -7.704 -12.114  -6.556  0.00  0.00    +0.109 C 
ENDBRANCH  11  14
ENDBRANCH   8  11
ENDBRANCH   3   5
BRANCH   1  20
ATOM     20  C   UNL     1      -4.006  -7.258  -0.001  0.00  0.00    +0.175 C 
ATOM     21  C   UNL     1      -4.272  -8.097   1.250  0.00  0.00    +0.041 C 
BRANCH  20  26
ATOM     22  C   UNL     1      -4.440  -4.772   0.011  0.00  0.00    +0.194 A 
ATOM     23  N   UNL     1      -5.499  -4.000   0.024  0.00  0.00    -0.121 NA
ATOM     24  N   UNL     1      -6.634  -4.822   0.042  0.00  0.00    -0.113 NA
ATOM     25  C   UNL     1      -6.231  -6.069   0.039  0.00  0.00    +0.216 A 
ATOM     26  N   UNL     1      -4.865  -6.071   0.015  0.00  0.00    -0.279 N 
ATOM     27  N   UNL     1      -7.049  -7.191   0.053  0.00  0.00    -0.328 N 
ATOM     28  H   UNL     1      -8.013  -7.088   0.065  0.00  0.00    +0.145 HD
ATOM     29  H   UNL     1      -6.655  -8.078   0.049  0.00  0.00    +0.145 HD
BRANCH  22  30
ATOM     30  S   UNL     1      -2.764  -4.231  -0.014  0.00  0.00    -0.075 S 
BRANCH  30  31
ATOM     31  C   UNL     1      -2.887  -2.421  -0.007  0.00  0.00    +0.197 C 
BRANCH  31  32
ATOM     32  C   UNL     1      -1.504  -1.823  -0.028  0.00  0.00    +0.317 C 
ATOM     33  O   UNL     1      -0.534  -2.543  -0.045  0.00  0.00    -0.250 OA
BRANCH  32  34
ATOM     34  O   UNL     1      -1.349  -0.489  -0.027  0.00  0.00    -0.464 OA
BRANCH  34  36
ATOM     35  C   UNL     1      -0.034   1.538  -0.043  0.00  0.00    +0.048 C 
ATOM     36  C   UNL     1      -0.010   0.008  -0.047  0.00  0.00    +0.229 C 
ENDBRANCH  34  36
ENDBRANCH  32  34
ENDBRANCH  31  32
ENDBRANCH  30  31
ENDBRANCH  22  30
ENDBRANCH  20  26
ENDBRANCH   1  20
TORSDOF 10
