REMARK  Name = ZINC39495466
REMARK  11 active torsions:
REMARK  status: ('A' for Active; 'I' for Inactive)
REMARK    1  A    between atoms: C_4  and  C_7
REMARK    2  A    between atoms: C_7  and  C_8
REMARK    3  A    between atoms: C_11  and  C_31
REMARK    4  A    between atoms: C_12  and  C_24
REMARK    5  A    between atoms: C_13  and  S_14
REMARK    6  A    between atoms: S_14  and  O_17
REMARK    7  A    between atoms: O_17  and  C_18
REMARK    8  A    between atoms: C_24  and  C_25
REMARK    9  A    between atoms: C_31  and  C_33
REMARK   10  A    between atoms: C_31  and  N_36
REMARK   11  A    between atoms: C_33  and  C_34
REMARK                            x       y       z     vdW  Elec       q    Type
REMARK                         _______ _______ _______ _____ _____    ______ ____
ROOT
ATOM      1  C   UNL     1       4.262  -0.365   1.818  0.00  0.00    -0.014 A 
ATOM      2  C   UNL     1       4.963   0.100   2.915  0.00  0.00    +0.006 A 
ATOM      3  C   UNL     1       5.055  -0.675   4.056  0.00  0.00    +0.006 A 
ATOM      4  C   UNL     1       4.447  -1.915   4.100  0.00  0.00    -0.021 A 
ATOM      5  C   UNL     1       3.745  -2.380   3.004  0.00  0.00    -0.010 A 
ATOM      6  C   UNL     1       3.649  -1.603   1.864  0.00  0.00    +0.135 A 
ENDROOT
BRANCH   6   7
ATOM      7  S   UNL     1       2.750  -2.194   0.469  0.00  0.00    +0.152 S 
ATOM      8  O   UNL     1       2.026  -1.085  -0.046  0.00  0.00    -0.131 OA
ATOM      9  O   UNL     1       3.668  -2.937  -0.321  0.00  0.00    -0.131 OA
BRANCH   7  10
ATOM     10  O   UNL     1       1.718  -3.186   0.985  0.00  0.00    -0.342 OA
BRANCH  10  11
ATOM     11  C   UNL     1       0.562  -2.611   1.409  0.00  0.00    +0.157 A 
ATOM     12  C   UNL     1       0.474  -2.094   2.694  0.00  0.00    +0.048 A 
ATOM     13  C   UNL     1      -0.702  -1.509   3.123  0.00  0.00    +0.004 A 
ATOM     14  C   UNL     1      -1.791  -1.440   2.273  0.00  0.00    +0.000 A 
ATOM     15  C   UNL     1      -1.705  -1.954   0.993  0.00  0.00    +0.004 A 
ATOM     16  C   UNL     1      -0.529  -2.534   0.557  0.00  0.00    +0.048 A 
ENDBRANCH  10  11
ENDBRANCH   7  10
ENDBRANCH   6   7
BRANCH   1  17
ATOM     17  C   UNL     1       4.162   0.479   0.574  0.00  0.00    +0.072 C 
BRANCH  17  21
ATOM     18  C   UNL     1       1.682   3.870   1.351  0.00  0.00    +0.000 A 
ATOM     19  C   UNL     1       2.968   3.824   1.855  0.00  0.00    +0.000 A 
ATOM     20  C   UNL     1       3.771   2.727   1.604  0.00  0.00    +0.004 A 
ATOM     21  C   UNL     1       3.287   1.675   0.849  0.00  0.00    -0.043 A 
ATOM     22  C   UNL     1       2.000   1.721   0.345  0.00  0.00    +0.004 A 
ATOM     23  C   UNL     1       1.198   2.819   0.595  0.00  0.00    +0.000 A 
ENDBRANCH  17  21
ENDBRANCH   1  17
BRANCH   5  24
ATOM     24  C   UNL     1       3.082  -3.733   3.052  0.00  0.00    +0.072 C 
BRANCH  24  25
ATOM     25  C   UNL     1       3.969  -4.751   2.383  0.00  0.00    -0.043 A 
ATOM     26  C   UNL     1       3.716  -5.139   1.081  0.00  0.00    +0.004 A 
ATOM     27  C   UNL     1       4.529  -6.073   0.467  0.00  0.00    +0.000 A 
ATOM     28  C   UNL     1       5.596  -6.619   1.155  0.00  0.00    +0.000 A 
ATOM     29  C   UNL     1       5.850  -6.230   2.457  0.00  0.00    +0.000 A 
ATOM     30  C   UNL     1       5.040  -5.293   3.070  0.00  0.00    +0.004 A 
ENDBRANCH  24  25
ENDBRANCH   5  24
BRANCH   4  31
ATOM     31  C   UNL     1       4.548  -2.760   5.344  0.00  0.00    +0.110 C 
BRANCH  31  32
ATOM     32  N   UNL     1       3.277  -2.714   6.071  0.00  0.00    -0.311 N 
ATOM     33  C   UNL     1       2.776  -1.531   6.478  0.00  0.00    +0.326 C 
ATOM     34  O   UNL     1       3.329  -0.498   6.164  0.00  0.00    -0.280 OA
ATOM     35  H   UNL     1       2.796  -3.535   6.259  0.00  0.00    +0.149 HD
ENDBRANCH  31  32
BRANCH  31  36
ATOM     36  C   UNL     1       5.667  -2.221   6.237  0.00  0.00    +0.097 C 
BRANCH  36  37
ATOM     37  C   UNL     1       5.851  -3.136   7.420  0.00  0.00    +0.225 C 
ATOM     38  O   UNL     1       6.938  -3.607   7.657  0.00  0.00    -0.301 OA
ENDBRANCH  36  37
ENDBRANCH  31  36
ENDBRANCH   4  31
TORSDOF 11
