REMARK  Name = ZINC20730459
REMARK  8 active torsions:
REMARK  status: ('A' for Active; 'I' for Inactive)
REMARK    1  A    between atoms: C_1  and  C_2
REMARK    2  A    between atoms: C_2  and  C_3
REMARK    3  A    between atoms: C_2  and  C_4
REMARK    4  A    between atoms: C_4  and  C_6
REMARK    5  A    between atoms: C_4  and  N_10
REMARK    6  A    between atoms: C_6  and  O_8
REMARK    7  A    between atoms: O_8  and  C_9
REMARK    8  A    between atoms: C_22  and  C_24
REMARK                            x       y       z     vdW  Elec       q    Type
REMARK                         _______ _______ _______ _____ _____    ______ ____
ROOT
ATOM      1  N   UNL     1       1.402   1.956   2.230  0.00  0.00    -0.286 N 
ATOM      2  C   UNL     1       2.401   1.210   1.719  0.00  0.00    +0.304 C 
ATOM      3  O   UNL     1       2.182   0.073   1.347  0.00  0.00    -0.253 OA
ATOM      4  N   UNL     1       3.643   1.723   1.620  0.00  0.00    -0.273 N 
ATOM      5  C   UNL     1       4.721   0.969   0.963  0.00  0.00    +0.116 C 
ATOM      6  C   UNL     1       5.174   1.727  -0.292  0.00  0.00    +0.076 C 
ATOM      7  C   UNL     1       5.332   3.187   0.051  0.00  0.00    +0.066 A 
ATOM      8  C   UNL     1       4.789   3.778   1.138  0.00  0.00    +0.064 A 
ATOM      9  N   UNL     1       5.145   5.090   1.103  0.00  0.00    -0.346 N 
ATOM     10  H   UNL     1       4.903   5.771   1.750  0.00  0.00    +0.167 HD
ATOM     11  C   UNL     1       5.900   5.265  -0.007  0.00  0.00    +0.197 A 
ATOM     12  N   UNL     1       6.006   4.120  -0.628  0.00  0.00    -0.240 NA
ATOM     13  C   UNL     1       3.955   3.059   2.162  0.00  0.00    +0.156 C 
ATOM     14  H   UNL     1       1.589   2.840   2.584  0.00  0.00    +0.151 HD
ENDROOT
BRANCH  13  15
ATOM     15  C   UNL     1       4.732   2.922   3.446  0.00  0.00    -0.020 A 
ATOM     16  C   UNL     1       5.996   2.363   3.433  0.00  0.00    +0.006 A 
ATOM     17  C   UNL     1       6.709   2.237   4.611  0.00  0.00    +0.002 A 
ATOM     18  C   UNL     1       6.158   2.671   5.802  0.00  0.00    +0.020 A 
ATOM     19  C   UNL     1       4.893   3.231   5.816  0.00  0.00    +0.041 A 
ATOM     20  C   UNL     1       4.183   3.362   4.636  0.00  0.00    +0.025 A 
ATOM     21 CL   UNL     1       4.201   3.776   7.312  0.00  0.00    -0.084 Cl
ENDBRANCH  13  15
BRANCH   1  22
ATOM     22  C   UNL     1       0.034   1.432   2.252  0.00  0.00    +0.186 C 
BRANCH  22  24
ATOM     23  C   UNL     1       0.828  -0.591   3.484  0.00  0.00    +0.009 C 
ATOM     24  C   UNL     1      -0.164   0.574   3.503  0.00  0.00    +0.014 C 
ATOM     25  C   UNL     1       0.075   1.427   4.750  0.00  0.00    +0.009 C 
ENDBRANCH  22  24
BRANCH  22  26
ATOM     26  C   UNL     1      -0.943   2.580   2.270  0.00  0.00    +0.328 C 
ATOM     27  O   UNL     1      -0.537   3.718   2.266  0.00  0.00    -0.249 OA
BRANCH  26  28
ATOM     28  O   UNL     1      -2.263   2.337   2.291  0.00  0.00    -0.467 OA
ATOM     29  C   UNL     1      -3.131   3.472   2.308  0.00  0.00    +0.280 C 
ENDBRANCH  26  28
ENDBRANCH  22  26
ENDBRANCH   1  22
TORSDOF 5
