REMARK  Name = ZINC35795645
REMARK  5 active torsions:
REMARK  status: ('A' for Active; 'I' for Inactive)
REMARK    1  A    between atoms: C_1  and  C_2
REMARK    2  A    between atoms: C_2  and  C_4
REMARK    3  A    between atoms: C_2  and  N_7
REMARK    4  A    between atoms: N_7  and  C_8
REMARK    5  A    between atoms: C_13  and  N_14
REMARK                            x       y       z     vdW  Elec       q    Type
REMARK                         _______ _______ _______ _____ _____    ______ ____
ROOT
ATOM      1  C   UNL     1      -2.005  -0.915   1.247  0.00  0.00    +0.060 A 
ATOM      2  C   UNL     1      -1.345  -0.677   2.443  0.00  0.00    +0.048 A 
ATOM      3  C   UNL     1      -2.067  -0.570   3.628  0.00  0.00    +0.039 A 
ATOM      4  C   UNL     1      -3.450  -0.704   3.590  0.00  0.00    -0.015 A 
ATOM      5  C   UNL     1      -4.106  -0.940   2.402  0.00  0.00    +0.040 A 
ATOM      6  C   UNL     1      -3.389  -1.042   1.224  0.00  0.00    +0.147 A 
ATOM      7  C   UNL     1      -3.932  -0.539   5.013  0.00  0.00    +0.133 C 
ATOM      8  C   UNL     1      -2.664  -0.304   5.806  0.00  0.00    +0.222 C 
ATOM      9  O   UNL     1      -2.587  -0.121   7.003  0.00  0.00    -0.275 OA
ATOM     10  N   UNL     1      -1.641  -0.337   4.936  0.00  0.00    -0.285 N 
ATOM     11  H   UNL     1      -0.713  -0.213   5.189  0.00  0.00    +0.155 HD
ENDROOT
BRANCH   6  12
ATOM     12  N   UNL     1      -4.091  -1.290  -0.054  0.00  0.00    +0.058 N 
ATOM     13  O   UNL     1      -3.709  -0.755  -1.069  0.00  0.00    -0.126 OA
ATOM     14  O   UNL     1      -5.048  -2.029  -0.085  0.00  0.00    -0.126 OA
ENDBRANCH   6  12
BRANCH   1  15
ATOM     15  N   UNL     1      -1.277  -1.022   0.059  0.00  0.00    -0.331 N 
ATOM     16  H   UNL     1      -1.726  -1.270  -0.764  0.00  0.00    +0.147 HD
BRANCH  15  18
ATOM     17  C   UNL     1       0.410   0.742  -0.099  0.00  0.00    +0.037 C 
ATOM     18  C   UNL     1       0.164  -0.760   0.058  0.00  0.00    +0.153 C 
BRANCH  18  19
ATOM     19  C   UNL     1       0.807  -1.497  -1.089  0.00  0.00    +0.230 C 
ATOM     20  O   UNL     1       0.129  -2.174  -1.832  0.00  0.00    -0.274 OA
ATOM     21  N   UNL     1       2.137  -1.403  -1.289  0.00  0.00    -0.328 N 
ATOM     22  H   UNL     1       2.680  -0.862  -0.695  0.00  0.00    +0.145 HD
ATOM     23  H   UNL     1       2.551  -1.877  -2.027  0.00  0.00    +0.145 HD
ENDBRANCH  18  19
ENDBRANCH  15  18
ENDBRANCH   1  15
TORSDOF 4
