REMARK  Name = ZINC25436810
REMARK  3 active torsions:
REMARK  status: ('A' for Active; 'I' for Inactive)
REMARK    1  A    between atoms: C_4  and  N_7
REMARK    2  A    between atoms: C_9  and  C_23
REMARK    3  A    between atoms: C_10  and  C_12
REMARK                            x       y       z     vdW  Elec       q    Type
REMARK                         _______ _______ _______ _____ _____    ______ ____
ROOT
ATOM      1  N   UNL     1       3.644  -0.615  -0.022  0.00  0.00    -0.239 N 
ATOM      2  C   UNL     1       3.756  -1.968   0.022  0.00  0.00    +0.122 A 
ATOM      3  C   UNL     1       5.070  -2.277  -0.032  0.00  0.00    +0.039 A 
ATOM      4  C   UNL     1       5.795  -1.071  -0.113  0.00  0.00    +0.107 A 
ATOM      5  N   UNL     1       4.933  -0.075  -0.112  0.00  0.00    -0.166 NA
ENDROOT
BRANCH   3   6
ATOM      6  C   UNL     1       5.656  -3.665  -0.009  0.00  0.00    +0.212 C 
ATOM      7  N   UNL     1       6.027  -4.078  -1.375  0.00  0.00    -0.293 N 
ATOM      8  C   UNL     1       5.072  -4.579  -2.219  0.00  0.00    +0.183 C 
ATOM      9  N   UNL     1       4.025  -5.240  -1.758  0.00  0.00    -0.183 NA
ATOM     10  C   UNL     1       3.878  -5.363  -0.418  0.00  0.00    +0.236 A 
ATOM     11  N   UNL     1       4.653  -4.627   0.467  0.00  0.00    -0.285 N 
ATOM     12  C   UNL     1       4.285  -4.979   1.730  0.00  0.00    +0.072 A 
ATOM     13  C   UNL     1       4.724  -4.588   2.989  0.00  0.00    +0.028 A 
ATOM     14  C   UNL     1       4.105  -5.169   4.084  0.00  0.00    +0.002 A 
ATOM     15  C   UNL     1       3.092  -6.101   3.945  0.00  0.00    +0.002 A 
ATOM     16  C   UNL     1       2.636  -6.509   2.705  0.00  0.00    +0.030 A 
ATOM     17  C   UNL     1       3.247  -5.936   1.583  0.00  0.00    +0.091 A 
ATOM     18  N   UNL     1       3.042  -6.115   0.258  0.00  0.00    -0.210 NA
ATOM     19  N   UNL     1       5.205  -4.390  -3.568  0.00  0.00    -0.331 N 
ATOM     20  H   UNL     1       5.969  -3.906  -3.917  0.00  0.00    +0.145 HD
ATOM     21  H   UNL     1       4.534  -4.740  -4.175  0.00  0.00    +0.145 HD
ATOM     22  H   UNL     1       6.946  -3.995  -1.675  0.00  0.00    +0.151 HD
ENDBRANCH   3   6
BRANCH   4  23
ATOM     23  C   UNL     1       7.270  -0.946  -0.191  0.00  0.00    +0.087 A 
ATOM     24  C   UNL     1       8.075  -2.053  -0.316  0.00  0.00    +0.028 A 
ATOM     25  C   UNL     1       9.522  -1.829  -0.385  0.00  0.00    +0.018 A 
ATOM     26  C   UNL     1      10.390  -2.856  -0.775  0.00  0.00    +0.011 A 
ATOM     27  C   UNL     1      11.734  -2.620  -0.834  0.00  0.00    +0.001 A 
ATOM     28  C   UNL     1      12.247  -1.372  -0.510  0.00  0.00    +0.004 A 
ATOM     29  C   UNL     1      11.409  -0.346  -0.121  0.00  0.00    +0.047 A 
ATOM     30  C   UNL     1      10.040  -0.564  -0.053  0.00  0.00    +0.139 A 
ATOM     31  O   UNL     1       9.199   0.426   0.332  0.00  0.00    -0.422 OA
ATOM     32  C   UNL     1       7.931   0.369  -0.143  0.00  0.00    +0.347 A 
ATOM     33  O   UNL     1       7.353   1.374  -0.516  0.00  0.00    -0.244 OA
ENDBRANCH   4  23
BRANCH   1  37
ATOM     34  C   UNL     1       0.084   1.551   0.072  0.00  0.00    +0.000 A 
ATOM     35  C   UNL     1       1.294   2.215  -0.018  0.00  0.00    +0.002 A 
ATOM     36  C   UNL     1       2.475   1.500  -0.049  0.00  0.00    +0.028 A 
ATOM     37  C   UNL     1       2.447   0.113   0.010  0.00  0.00    +0.065 A 
ATOM     38  C   UNL     1       1.231  -0.551   0.100  0.00  0.00    +0.028 A 
ATOM     39  C   UNL     1       0.053   0.170   0.131  0.00  0.00    +0.002 A 
ENDBRANCH   1  37
TORSDOF 3
