REMARK  Name = ZINC00106768
REMARK  3 active torsions:
REMARK  status: ('A' for Active; 'I' for Inactive)
REMARK    1  A    between atoms: C_4  and  C_7
REMARK    2  A    between atoms: C_9  and  C_12
REMARK    3  A    between atoms: C_15  and  C_18
REMARK                            x       y       z     vdW  Elec       q    Type
REMARK                         _______ _______ _______ _____ _____    ______ ____
ROOT
ATOM      1  C   UNL     1      -1.305   2.116   0.020  0.00  0.00    +0.259 A 
ATOM      2  N   UNL     1      -1.470   3.425   0.033  0.00  0.00    -0.187 NA
ATOM      3  C   UNL     1      -2.806   3.621   0.036  0.00  0.00    +0.202 A 
ATOM      4  N   UNL     1      -3.373   2.441   0.032  0.00  0.00    -0.056 NA
ATOM      5  O   UNL     1      -2.530   1.569   0.023  0.00  0.00    -0.332 OA
ENDROOT
BRANCH   1   9
ATOM      6  C   UNL     1       2.396   0.034  -0.020  0.00  0.00    +0.000 A 
ATOM      7  C   UNL     1       1.208  -0.674  -0.013  0.00  0.00    +0.001 A 
ATOM      8  C   UNL     1       0.002  -0.004   0.002  0.00  0.00    +0.013 A 
ATOM      9  C   UNL     1      -0.017   1.391   0.010  0.00  0.00    +0.039 A 
ATOM     10  C   UNL     1       1.186   2.100   0.002  0.00  0.00    +0.013 A 
ATOM     11  C   UNL     1       2.385   1.417  -0.013  0.00  0.00    +0.001 A 
ENDBRANCH   1   9
BRANCH   3  12
ATOM     12  C   UNL     1      -3.502   4.931   0.046  0.00  0.00    +0.022 A 
ATOM     13  C   UNL     1      -2.764   6.113   0.054  0.00  0.00    +0.012 A 
ATOM     14  C   UNL     1      -3.410   7.329   0.058  0.00  0.00    +0.011 A 
ATOM     15  C   UNL     1      -4.804   7.378   0.066  0.00  0.00    +0.003 A 
ATOM     16  C   UNL     1      -5.543   6.195   0.063  0.00  0.00    +0.011 A 
ATOM     17  C   UNL     1      -4.896   4.979   0.053  0.00  0.00    +0.012 A 
BRANCH  15  18
ATOM     18  C   UNL     1      -5.500   8.687   0.077  0.00  0.00    +0.102 A 
ATOM     19  C   UNL     1      -4.839   9.890   0.080  0.00  0.00    +0.097 A 
ATOM     20  S   UNL     1      -6.168  11.001   0.094  0.00  0.00    +0.029 S 
ATOM     21  N   UNL     1      -7.363   9.970   0.094  0.00  0.00    -0.110 NA
ATOM     22  N   UNL     1      -6.819   8.807   0.079  0.00  0.00    -0.141 NA
ENDBRANCH  15  18
ENDBRANCH   3  12
TORSDOF 3
