REMARK  Name = ZINC20958124
REMARK  8 active torsions:
REMARK  status: ('A' for Active; 'I' for Inactive)
REMARK    1  A    between atoms: C_4  and  C_7
REMARK    2  A    between atoms: C_7  and  C_9
REMARK    3  A    between atoms: C_7  and  N_32
REMARK    4  A    between atoms: C_9  and  N_10
REMARK    5  A    between atoms: C_11  and  C_13
REMARK    6  A    between atoms: C_18  and  N_19
REMARK    7  A    between atoms: C_20  and  C_22
REMARK    8  A    between atoms: C_25  and  N_29
REMARK                            x       y       z     vdW  Elec       q    Type
REMARK                         _______ _______ _______ _____ _____    ______ ____
ROOT
ATOM      1  C   UNL     1       3.678  -2.412  -0.047  0.00  0.00    +0.058 A 
ATOM      2  C   UNL     1       4.874  -3.133  -0.056  0.00  0.00    +0.015 A 
ATOM      3  C   UNL     1       6.078  -2.470   0.047  0.00  0.00    +0.001 A 
ATOM      4  C   UNL     1       6.109  -1.089   0.160  0.00  0.00    +0.002 A 
ATOM      5  C   UNL     1       4.936  -0.362   0.165  0.00  0.00    +0.024 A 
ATOM      6  C   UNL     1       3.713  -1.014   0.067  0.00  0.00    +0.046 A 
ENDROOT
BRANCH   1   8
ATOM      7  N   UNL     1       2.350  -4.462  -0.151  0.00  0.00    -0.313 N 
ATOM      8  C   UNL     1       2.387  -3.115  -0.158  0.00  0.00    +0.246 C 
ATOM      9  O   UNL     1       1.355  -2.480  -0.256  0.00  0.00    -0.270 OA
ATOM     10  H   UNL     1       3.284  -5.037  -0.063  0.00  0.00    +0.149 HD
BRANCH   7  11
ATOM     11  C   UNL     1       1.067  -5.161  -0.261  0.00  0.00    +0.094 C 
BRANCH  11  12
ATOM     12  C   UNL     1       1.314  -6.669  -0.351  0.00  0.00    -0.020 C 
BRANCH  12  16
ATOM     13  C   UNL     1       3.020  -8.054   3.312  0.00  0.00    +0.000 A 
ATOM     14  C   UNL     1       3.830  -7.821   2.216  0.00  0.00    +0.000 A 
ATOM     15  C   UNL     1       3.278  -7.373   1.031  0.00  0.00    +0.002 A 
ATOM     16  C   UNL     1       1.916  -7.157   0.941  0.00  0.00    -0.059 A 
ATOM     17  C   UNL     1       1.106  -7.385   2.038  0.00  0.00    +0.002 A 
ATOM     18  C   UNL     1       1.657  -7.837   3.222  0.00  0.00    +0.000 A 
ENDBRANCH  12  16
BRANCH  12  19
ATOM     19  N   UNL     1       0.040  -7.359  -0.590  0.00  0.00    +0.385 N 
ATOM     20  C   UNL     1      -0.570  -6.924  -1.873  0.00  0.00    -0.078 C 
ATOM     21  C   UNL     1      -1.552  -8.074  -2.207  0.00  0.00    -0.020 C 
ATOM     22  C   UNL     1      -0.784  -9.332  -1.742  0.00  0.00    -0.020 C 
ATOM     23  C   UNL     1       0.243  -8.819  -0.715  0.00  0.00    -0.078 C 
ATOM     24  H   UNL     1      -0.600  -7.114   0.270  0.00  0.00    -0.081 HD
ENDBRANCH  12  19
ENDBRANCH  11  12
ENDBRANCH   7  11
ENDBRANCH   1   8
BRANCH   6  25
ATOM     25  N   UNL     1       2.528  -0.283   0.077  0.00  0.00    -0.281 N 
ATOM     26  C   UNL     1       2.478   0.927  -0.514  0.00  0.00    +0.250 C 
ATOM     27  O   UNL     1       3.489   1.420  -0.977  0.00  0.00    -0.270 OA
ATOM     28  H   UNL     1       1.633  -0.694   0.567  0.00  0.00    +0.155 HD
BRANCH  26  29
ATOM     29  C   UNL     1       1.196   1.655  -0.598  0.00  0.00    +0.055 A 
ATOM     30  C   UNL     1       0.033   1.092  -0.068  0.00  0.00    +0.017 A 
ATOM     31  C   UNL     1      -1.162   1.775  -0.155  0.00  0.00    +0.033 A 
ATOM     32  C   UNL     1      -1.210   3.020  -0.758  0.00  0.00    +0.128 A 
ATOM     33  C   UNL     1      -0.064   3.584  -1.286  0.00  0.00    +0.053 A 
ATOM     34  C   UNL     1       1.140   2.910  -1.210  0.00  0.00    +0.055 A 
ATOM     35 CL   UNL     1       2.579   3.620  -1.873  0.00  0.00    -0.083 Cl
BRANCH  32  36
ATOM     36  N   UNL     1      -2.496   3.748  -0.844  0.00  0.00    +0.056 N 
ATOM     37  O   UNL     1      -2.543   4.841  -1.378  0.00  0.00    -0.126 OA
ATOM     38  O   UNL     1      -3.508   3.253  -0.380  0.00  0.00    -0.126 OA
ENDBRANCH  32  36
ENDBRANCH  26  29
ENDBRANCH   6  25
TORSDOF 8
