REMARK  Name = ZINC39024417
REMARK  7 active torsions:
REMARK  status: ('A' for Active; 'I' for Inactive)
REMARK    1  A    between atoms: C_1  and  C_2
REMARK    2  A    between atoms: C_2  and  C_3
REMARK    3  A    between atoms: C_3  and  N_4
REMARK    4  A    between atoms: C_11  and  O_36
REMARK    5  A    between atoms: C_13  and  C_17
REMARK    6  A    between atoms: C_17  and  N_19
REMARK    7  A    between atoms: C_23  and  C_26
REMARK                            x       y       z     vdW  Elec       q    Type
REMARK                         _______ _______ _______ _____ _____    ______ ____
ROOT
ATOM      1  C   UNL     1       3.241  -4.594   0.465  0.00  0.00    +0.253 C 
ATOM      2  O   UNL     1       3.734  -5.309   1.317  0.00  0.00    -0.273 OA
ENDROOT
BRANCH   1  11
ATOM      3  N   UNL     1       0.762  -1.976   1.234  0.00  0.00    -0.270 N 
ATOM      4  C   UNL     1      -0.277  -2.688   1.841  0.00  0.00    +0.042 A 
ATOM      5  C   UNL     1      -1.489  -2.064   2.106  0.00  0.00    +0.024 A 
ATOM      6  C   UNL     1      -2.511  -2.774   2.706  0.00  0.00    +0.002 A 
ATOM      7  C   UNL     1      -2.328  -4.102   3.044  0.00  0.00    +0.000 A 
ATOM      8  C   UNL     1      -1.121  -4.725   2.782  0.00  0.00    +0.008 A 
ATOM      9  C   UNL     1      -0.096  -4.022   2.182  0.00  0.00    +0.003 A 
ATOM     10  C   UNL     1       1.220  -4.697   1.894  0.00  0.00    +0.167 C 
ATOM     11  C   UNL     1       1.814  -4.131   0.604  0.00  0.00    +0.196 C 
ATOM     12  C   UNL     1       1.777  -2.627   0.636  0.00  0.00    +0.235 C 
ATOM     13  O   UNL     1       2.675  -1.994   0.122  0.00  0.00    -0.274 OA
BRANCH  10  14
ATOM     14  O   UNL     1       2.122  -4.462   2.977  0.00  0.00    -0.386 OA
ATOM     15  H   UNL     1       1.809  -4.796   3.829  0.00  0.00    +0.210 HD
ENDBRANCH  10  14
BRANCH   3  16
ATOM     16  C   UNL     1       0.742  -0.511   1.242  0.00  0.00    +0.113 C 
BRANCH  16  18
ATOM     17  C   UNL     1      -0.019   1.526   0.010  0.00  0.00    +0.005 C 
ATOM     18  C   UNL     1       0.002  -0.004   0.002  0.00  0.00    +0.016 C 
ENDBRANCH  16  18
ENDBRANCH   3  16
ENDBRANCH   1  11
BRANCH   1  19
ATOM     19  N   UNL     1       3.959  -4.223  -0.587  0.00  0.00    -0.156 NA
ATOM     20  C   UNL     1       5.224  -4.633  -0.710  0.00  0.00    +0.163 A 
ATOM     21  N   UNL     1       5.938  -5.432   0.128  0.00  0.00    -0.339 N 
ATOM     22  H   UNL     1       5.536  -5.782   0.938  0.00  0.00    +0.167 HD
ATOM     23  C   UNL     1       7.226  -5.731  -0.191  0.00  0.00    +0.031 A 
ATOM     24  C   UNL     1       7.714  -5.213  -1.323  0.00  0.00    +0.070 A 
ATOM     25  S   UNL     1       6.316  -4.295  -1.942  0.00  0.00    -0.060 S 
BRANCH  23  26
ATOM     26  C   UNL     1       8.069  -6.609   0.697  0.00  0.00    +0.012 C 
ATOM     27  C   UNL     1       7.412  -7.984   0.826  0.00  0.00    +0.016 C 
ATOM     28  C   UNL     1       8.268  -8.876   1.728  0.00  0.00    -0.010 C 
ATOM     29  C   UNL     1       9.661  -9.033   1.115  0.00  0.00    +0.007 C 
ATOM     30  C   UNL     1      10.319  -7.657   0.986  0.00  0.00    -0.010 C 
ATOM     31  C   UNL     1       9.463  -6.766   0.084  0.00  0.00    +0.016 C 
ATOM     32  C   UNL     1      10.440  -7.018   2.370  0.00  0.00    +0.007 C 
ATOM     33  C   UNL     1       9.046  -6.861   2.983  0.00  0.00    -0.010 C 
ATOM     34  C   UNL     1       8.389  -8.236   3.112  0.00  0.00    +0.007 C 
ATOM     35  C   UNL     1       8.190  -5.969   2.082  0.00  0.00    +0.016 C 
ENDBRANCH  23  26
ENDBRANCH   1  19
TORSDOF 6
