REMARK  Name = ZINC39546210
REMARK  6 active torsions:
REMARK  status: ('A' for Active; 'I' for Inactive)
REMARK    1  A    between atoms: C_4  and  C_7
REMARK    2  A    between atoms: N_9  and  C_10
REMARK    3  A    between atoms: C_14  and  S_18
REMARK    4  A    between atoms: S_18  and  C_19
REMARK    5  A    between atoms: C_19  and  C_20
REMARK    6  A    between atoms: N_25  and  C_28
REMARK                            x       y       z     vdW  Elec       q    Type
REMARK                         _______ _______ _______ _____ _____    ______ ____
ROOT
ATOM      1  C   UNL     1       5.064  -2.726  -0.036  0.00  0.00    +0.225 C 
ATOM      2  C   UNL     1       4.850  -4.071   0.632  0.00  0.00    +0.125 C 
ATOM      3  N   UNL     1       5.110  -5.147  -0.076  0.00  0.00    -0.211 NA
ATOM      4  C   UNL     1       5.546  -5.084  -1.335  0.00  0.00    +0.182 C 
ATOM      5  N   UNL     1       5.766  -3.967  -2.009  0.00  0.00    -0.153 NA
ATOM      6  C   UNL     1       5.560  -2.771  -1.470  0.00  0.00    +0.266 C 
ATOM      7  O   UNL     1       5.764  -1.752  -2.102  0.00  0.00    -0.271 OA
ATOM      8  N   UNL     1       4.409  -4.160   1.906  0.00  0.00    -0.345 N 
ATOM      9  H   UNL     1       4.223  -3.353   2.412  0.00  0.00    +0.143 HD
ATOM     10  H   UNL     1       4.278  -5.029   2.315  0.00  0.00    +0.143 HD
ENDROOT
BRANCH   1  13
ATOM     11  C   UNL     1       3.790  -0.649  -0.001  0.00  0.00    +0.245 C 
ATOM     12  O   UNL     1       4.841  -0.039  -0.007  0.00  0.00    -0.270 OA
ATOM     13  N   UNL     1       3.794  -1.997  -0.015  0.00  0.00    -0.294 N 
ATOM     14  H   UNL     1       2.955  -2.485  -0.010  0.00  0.00    +0.150 HD
BRANCH  11  18
ATOM     15  C   UNL     1       0.105   1.464   0.061  0.00  0.00    +0.000 A 
ATOM     16  C   UNL     1       1.300   2.162   0.055  0.00  0.00    +0.001 A 
ATOM     17  C   UNL     1       2.500   1.482   0.035  0.00  0.00    +0.013 A 
ATOM     18  C   UNL     1       2.507   0.086   0.021  0.00  0.00    +0.037 A 
ATOM     19  C   UNL     1       1.299  -0.612   0.027  0.00  0.00    +0.013 A 
ATOM     20  C   UNL     1       0.106   0.080   0.047  0.00  0.00    +0.001 A 
ENDBRANCH  11  18
ENDBRANCH   1  13
BRANCH   4  21
ATOM     21  S   UNL     1       5.854  -6.607  -2.165  0.00  0.00    -0.079 S 
BRANCH  21  22
ATOM     22  C   UNL     1       6.420  -6.103  -3.813  0.00  0.00    +0.173 C 
BRANCH  22  23
ATOM     23  C   UNL     1       6.722  -7.327  -4.637  0.00  0.00    +0.226 C 
ATOM     24  O   UNL     1       6.570  -8.432  -4.160  0.00  0.00    -0.275 OA
ATOM     25  N   UNL     1       7.160  -7.195  -5.905  0.00  0.00    -0.298 N 
ATOM     26  C   UNL     1       7.354  -5.863  -6.494  0.00  0.00    +0.126 C 
ATOM     27  C   UNL     1       8.795  -5.760  -7.008  0.00  0.00    +0.124 C 
ATOM     28  N   UNL     1       9.088  -6.945  -7.826  0.00  0.00    -0.327 N 
ATOM     29  C   UNL     1       8.895  -8.278  -7.236  0.00  0.00    +0.124 C 
ATOM     30  C   UNL     1       7.459  -8.381  -6.720  0.00  0.00    +0.126 C 
BRANCH  28  31
ATOM     31  C   UNL     1       9.543  -6.809  -9.139  0.00  0.00    +0.030 A 
ATOM     32  C   UNL     1       9.613  -5.551  -9.724  0.00  0.00    +0.023 A 
ATOM     33  C   UNL     1      10.063  -5.419 -11.023  0.00  0.00    +0.002 A 
ATOM     34  C   UNL     1      10.444  -6.537 -11.741  0.00  0.00    +0.000 A 
ATOM     35  C   UNL     1      10.375  -7.791 -11.162  0.00  0.00    +0.002 A 
ATOM     36  C   UNL     1       9.931  -7.929  -9.862  0.00  0.00    +0.023 A 
ENDBRANCH  28  31
ENDBRANCH  22  23
ENDBRANCH  21  22
ENDBRANCH   4  21
TORSDOF 6
