REMARK  Name = ZINC03296111
REMARK  8 active torsions:
REMARK  status: ('A' for Active; 'I' for Inactive)
REMARK    1  A    between atoms: C_1  and  C_2
REMARK    2  A    between atoms: C_5  and  C_33
REMARK    3  A    between atoms: C_6  and  N_8
REMARK    4  A    between atoms: C_14  and  C_19
REMARK    5  A    between atoms: C_19  and  O_21
REMARK    6  A    between atoms: O_21  and  C_22
REMARK    7  A    between atoms: C_22  and  C_23
REMARK    8  A    between atoms: N_25  and  C_26
REMARK                            x       y       z     vdW  Elec       q    Type
REMARK                         _______ _______ _______ _____ _____    ______ ____
ROOT
ATOM      1  N   UNL     1      -1.497   2.117   8.209  0.00  0.00    -0.202 N 
ATOM      2  C   UNL     1      -2.390   2.729   7.412  0.00  0.00    +0.258 C 
ATOM      3  O   UNL     1      -3.342   3.385   7.785  0.00  0.00    -0.269 OA
ATOM      4  C   UNL     1      -2.018   2.471   6.002  0.00  0.00    +0.050 A 
ATOM      5  C   UNL     1      -2.556   2.840   4.779  0.00  0.00    +0.014 A 
ATOM      6  C   UNL     1      -1.949   2.427   3.605  0.00  0.00    +0.016 A 
ATOM      7  C   UNL     1      -0.803   1.633   3.647  0.00  0.00    +0.060 A 
ATOM      8  C   UNL     1      -0.254   1.257   4.877  0.00  0.00    +0.028 A 
ATOM      9  C   UNL     1      -0.857   1.673   6.051  0.00  0.00    +0.051 A 
ATOM     10  C   UNL     1      -0.563   1.474   7.486  0.00  0.00    +0.258 C 
ATOM     11  O   UNL     1       0.367   0.836   7.937  0.00  0.00    -0.269 OA
ENDROOT
BRANCH   1  17
ATOM     12  C   UNL     1      -0.194   4.265  12.437  0.00  0.00    +0.044 C 
ATOM     13  C   UNL     1      -0.912   3.175  11.684  0.00  0.00    -0.049 A 
ATOM     14  C   UNL     1      -1.609   2.201  12.375  0.00  0.00    +0.004 A 
ATOM     15  C   UNL     1      -2.269   1.200  11.687  0.00  0.00    +0.005 A 
ATOM     16  C   UNL     1      -2.239   1.172  10.306  0.00  0.00    -0.029 A 
ATOM     17  C   UNL     1      -1.535   2.145   9.610  0.00  0.00    +0.048 A 
ATOM     18  C   UNL     1      -0.873   3.150  10.303  0.00  0.00    +0.027 A 
ATOM     19  C   UNL     1      -2.963   0.084   9.557  0.00  0.00    +0.045 C 
ENDBRANCH   1  17
BRANCH   7  20
ATOM     20  C   UNL     1      -0.164   1.193   2.388  0.00  0.00    +0.340 C 
ATOM     21  O   UNL     1       0.836   0.505   2.423  0.00  0.00    -0.245 OA
BRANCH  20  22
ATOM     22  O   UNL     1      -0.692   1.554   1.203  0.00  0.00    -0.452 OA
BRANCH  22  23
ATOM     23  C   UNL     1      -0.013   1.086   0.008  0.00  0.00    +0.328 C 
BRANCH  23  24
ATOM     24  C   UNL     1      -0.742   1.585  -1.213  0.00  0.00    +0.251 C 
ATOM     25  O   UNL     1      -1.736   2.268  -1.088  0.00  0.00    -0.272 OA
ATOM     26  N   UNL     1      -0.288   1.272  -2.443  0.00  0.00    -0.310 N 
ATOM     27  H   UNL     1       0.614   0.653  -2.556  0.00  0.00    +0.149 HD
BRANCH  26  28
ATOM     28  C   UNL     1      -0.997   1.758  -3.630  0.00  0.00    +0.073 C 
ATOM     29  C   UNL     1      -2.191   0.824  -3.916  0.00  0.00    +0.022 C 
ATOM     30  C   UNL     1      -3.184   1.565  -4.769  0.00  0.00    +0.002 C 
ATOM     31  C   UNL     1      -2.984   1.298  -6.273  0.00  0.00    +0.000 C 
ATOM     32  C   UNL     1      -1.499   1.289  -6.686  0.00  0.00    +0.000 C 
ATOM     33  C   UNL     1      -0.711   2.386  -6.024  0.00  0.00    +0.002 C 
ATOM     34  C   UNL     1      -0.062   1.820  -4.744  0.00  0.00    +0.022 C 
ENDBRANCH  26  28
ENDBRANCH  23  24
ENDBRANCH  22  23
ENDBRANCH  20  22
ENDBRANCH   7  20
TORSDOF 6
