REMARK  Name = ZINC35759047
REMARK  6 active torsions:
REMARK  status: ('A' for Active; 'I' for Inactive)
REMARK    1  A    between atoms: C_1  and  C_2
REMARK    2  A    between atoms: C_5  and  C_8
REMARK    3  A    between atoms: N_18  and  C_27
REMARK    4  A    between atoms: N_20  and  C_21
REMARK    5  A    between atoms: C_27  and  C_28
REMARK    6  A    between atoms: N_30  and  C_31
REMARK                            x       y       z     vdW  Elec       q    Type
REMARK                         _______ _______ _______ _____ _____    ______ ____
ROOT
ATOM      1  C   UNL     1       0.037  -3.684   0.365  0.00  0.00    +0.247 C 
ATOM      2  O   UNL     1       0.085  -2.483   0.546  0.00  0.00    -0.270 OA
ATOM      3  N   UNL     1      -0.044  -4.522   1.418  0.00  0.00    -0.297 N 
ATOM      4  C   UNL     1      -0.099  -3.997   2.789  0.00  0.00    +0.110 C 
ATOM      5  C   UNL     1      -1.329  -4.583   3.491  0.00  0.00    +0.054 C 
ATOM      6  C   UNL     1      -1.288  -6.108   3.397  0.00  0.00    +0.115 C 
ATOM      7  C   UNL     1      -1.308  -6.545   1.932  0.00  0.00    +0.054 C 
ATOM      8  C   UNL     1      -0.084  -5.976   1.216  0.00  0.00    +0.110 C 
ATOM      9  C   UNL     1      -2.462  -6.703   4.129  0.00  0.00    +0.241 C 
ATOM     10  O   UNL     1      -3.629  -6.506   3.865  0.00  0.00    -0.273 OA
ATOM     11  N   UNL     1      -2.009  -7.487   5.122  0.00  0.00    -0.275 N 
ATOM     12  C   UNL     1      -0.547  -7.486   5.141  0.00  0.00    +0.217 C 
ATOM     13  N   UNL     1      -0.078  -6.617   4.054  0.00  0.00    -0.300 N 
ENDROOT
BRANCH   1  18
ATOM     14  C   UNL     1       0.154  -5.794  -4.987  0.00  0.00    +0.044 C 
ATOM     15  C   UNL     1       0.124  -5.241  -3.586  0.00  0.00    -0.050 A 
ATOM     16  C   UNL     1       0.821  -5.882  -2.577  0.00  0.00    +0.004 A 
ATOM     17  C   UNL     1       0.797  -5.382  -1.292  0.00  0.00    +0.013 A 
ATOM     18  C   UNL     1       0.067  -4.226  -1.010  0.00  0.00    +0.037 A 
ATOM     19  C   UNL     1      -0.634  -3.584  -2.032  0.00  0.00    +0.013 A 
ATOM     20  C   UNL     1      -0.597  -4.092  -3.314  0.00  0.00    +0.004 A 
ENDBRANCH   1  18
BRANCH  13  21
ATOM     21  C   UNL     1       1.247  -6.334   3.715  0.00  0.00    +0.032 A 
ATOM     22  C   UNL     1       1.528  -5.547   2.605  0.00  0.00    +0.023 A 
ATOM     23  C   UNL     1       2.840  -5.269   2.273  0.00  0.00    +0.002 A 
ATOM     24  C   UNL     1       3.872  -5.773   3.043  0.00  0.00    +0.000 A 
ATOM     25  C   UNL     1       3.595  -6.557   4.148  0.00  0.00    +0.002 A 
ATOM     26  C   UNL     1       2.286  -6.834   4.489  0.00  0.00    +0.023 A 
ENDBRANCH  13  21
BRANCH  11  27
ATOM     27  C   UNL     1      -2.859  -8.235   6.052  0.00  0.00    +0.205 C 
BRANCH  27  28
ATOM     28  C   UNL     1      -3.138  -9.604   5.487  0.00  0.00    +0.231 C 
ATOM     29  O   UNL     1      -2.673  -9.923   4.414  0.00  0.00    -0.274 OA
ATOM     30  N   UNL     1      -3.904 -10.473   6.175  0.00  0.00    -0.311 N 
ATOM     31  H   UNL     1      -4.276 -10.217   7.034  0.00  0.00    +0.149 HD
BRANCH  30  32
ATOM     32  C   UNL     1      -4.176 -11.804   5.627  0.00  0.00    +0.073 C 
ATOM     33  C   UNL     1      -5.372 -11.729   4.675  0.00  0.00    +0.022 C 
ATOM     34  C   UNL     1      -5.655 -13.119   4.102  0.00  0.00    +0.002 C 
ATOM     35  C   UNL     1      -5.971 -14.087   5.244  0.00  0.00    +0.000 C 
ATOM     36  C   UNL     1      -4.775 -14.162   6.195  0.00  0.00    +0.002 C 
ATOM     37  C   UNL     1      -4.492 -12.772   6.769  0.00  0.00    +0.022 C 
ENDBRANCH  30  32
ENDBRANCH  27  28
ENDBRANCH  11  27
TORSDOF 5
