REMARK  Name = ZINC04436359
REMARK  10 active torsions:
REMARK  status: ('A' for Active; 'I' for Inactive)
REMARK    1  A    between atoms: C_1  and  C_2
REMARK    2  A    between atoms: C_2  and  O_3
REMARK    3  A    between atoms: O_3  and  C_4
REMARK    4  A    between atoms: C_6  and  C_11
REMARK    5  A    between atoms: C_9  and  O_10
REMARK    6  A    between atoms: C_16  and  C_20
REMARK    7  A    between atoms: C_16  and  C_21
REMARK    8  A    between atoms: C_26  and  S_28
REMARK    9  A    between atoms: S_28  and  C_29
REMARK   10  A    between atoms: C_29  and  C_30
REMARK                            x       y       z     vdW  Elec       q    Type
REMARK                         _______ _______ _______ _____ _____    ______ ____
ROOT
ATOM      1  C   UNL     1       0.654  -4.954  -0.018  0.00  0.00    +0.176 C 
ATOM      2  C   UNL     1       0.638  -5.828   1.217  0.00  0.00    +0.041 C 
ATOM      3  C   UNL     1       0.326  -7.140   1.163  0.00  0.00    +0.020 C 
ATOM      4  C   UNL     1       0.302  -7.984   2.416  0.00  0.00    +0.058 C 
ATOM      5  C   UNL     1       1.335  -7.455   3.412  0.00  0.00    -0.023 C 
ATOM      6  C   UNL     1       1.000  -5.992   3.724  0.00  0.00    +0.086 C 
ATOM      7  C   UNL     1       0.967  -5.214   2.439  0.00  0.00    +0.164 C 
ATOM      8  O   UNL     1       1.230  -4.027   2.456  0.00  0.00    -0.292 OA
ATOM      9  C   UNL     1       1.282  -8.282   4.699  0.00  0.00    +0.011 C 
ATOM     10  C   UNL     1       2.734  -7.543   2.800  0.00  0.00    +0.011 C 
ATOM     11  N   UNL     1       0.024  -7.765  -0.023  0.00  0.00    -0.287 N 
ATOM     12  C   UNL     1       0.326  -7.105  -1.203  0.00  0.00    +0.219 A 
ATOM     13  N   UNL     1       0.627  -5.785  -1.215  0.00  0.00    -0.220 N 
ATOM     14  N   UNL     1       0.881  -5.450  -2.544  0.00  0.00    -0.141 NA
ATOM     15  C   UNL     1       0.719  -6.549  -3.249  0.00  0.00    +0.210 A 
ATOM     16  N   UNL     1       0.383  -7.547  -2.429  0.00  0.00    -0.187 NA
ATOM     17  H   UNL     1      -0.388  -8.643  -0.034  0.00  0.00    +0.155 HD
ENDROOT
BRANCH   1  20
ATOM     18  C   UNL     1      -1.498  -1.849   0.006  0.00  0.00    +0.162 A 
ATOM     19  C   UNL     1      -0.389  -2.680  -0.003  0.00  0.00    +0.055 A 
ATOM     20  C   UNL     1      -0.553  -4.052  -0.008  0.00  0.00    -0.015 A 
ATOM     21  C   UNL     1      -1.823  -4.600  -0.005  0.00  0.00    +0.010 A 
ATOM     22  C   UNL     1      -2.934  -3.777   0.004  0.00  0.00    +0.049 A 
ATOM     23  C   UNL     1      -2.776  -2.400   0.016  0.00  0.00    +0.158 A 
BRANCH  23  24
ATOM     24  O   UNL     1      -3.868  -1.589   0.030  0.00  0.00    -0.503 OA
ATOM     25  H   UNL     1      -4.192  -1.350  -0.849  0.00  0.00    +0.292 HD
ENDBRANCH  23  24
BRANCH  18  26
ATOM     26  O   UNL     1      -1.339  -0.499   0.012  0.00  0.00    -0.489 OA
BRANCH  26  28
ATOM     27  C   UNL     1      -0.019   1.526   0.010  0.00  0.00    +0.048 C 
ATOM     28  C   UNL     1       0.002  -0.004   0.002  0.00  0.00    +0.226 C 
ENDBRANCH  26  28
ENDBRANCH  18  26
ENDBRANCH   1  20
BRANCH  15  29
ATOM     29  S   UNL     1       0.917  -6.683  -4.995  0.00  0.00    -0.085 S 
BRANCH  29  30
ATOM     30  C   UNL     1       0.560  -8.427  -5.345  0.00  0.00    +0.074 C 
ATOM     31  C   UNL     1       0.697  -8.684  -6.847  0.00  0.00    +0.016 C 
ENDBRANCH  29  30
ENDBRANCH  15  29
TORSDOF 6
