REMARK  Name = ZINC00856070
REMARK  3 active torsions:
REMARK  status: ('A' for Active; 'I' for Inactive)
REMARK    1  A    between atoms: C_1  and  C_2
REMARK    2  A    between atoms: C_7  and  C_8
REMARK    3  A    between atoms: C_15  and  C_16
REMARK                            x       y       z     vdW  Elec       q    Type
REMARK                         _______ _______ _______ _____ _____    ______ ____
ROOT
ATOM      1  C   UNL     1       3.748   7.137  -0.043  0.00  0.00    +0.044 C 
ATOM      2  C   UNL     1       2.993   5.833  -0.035  0.00  0.00    -0.045 A 
ATOM      3  C   UNL     1       1.607   5.841  -0.004  0.00  0.00    +0.006 A 
ATOM      4  C   UNL     1       0.900   4.654   0.003  0.00  0.00    +0.029 A 
ATOM      5  C   UNL     1       1.584   3.450  -0.021  0.00  0.00    +0.078 A 
ATOM      6  C   UNL     1       2.984   3.434  -0.052  0.00  0.00    +0.094 A 
ATOM      7  C   UNL     1       3.686   4.643  -0.059  0.00  0.00    -0.020 A 
ATOM      8  C   UNL     1       5.192   4.644  -0.093  0.00  0.00    +0.046 C 
ATOM      9  N   UNL     1       3.369   2.131  -0.070  0.00  0.00    -0.221 NA
ATOM     10  C   UNL     1       2.314   1.368  -0.052  0.00  0.00    +0.182 A 
ATOM     11  N   UNL     1       1.157   2.109  -0.021  0.00  0.00    -0.253 N 
ATOM     12  C   UNL     1      -0.020   1.465   0.001  0.00  0.00    +0.272 A 
ATOM     13  O   UNL     1      -1.071   2.078   0.024  0.00  0.00    -0.266 OA
ATOM     14  C   UNL     1       0.001  -0.003  -0.010  0.00  0.00    +0.081 A 
ATOM     15  C   UNL     1      -1.037  -0.882   0.007  0.00  0.00    +0.033 C 
ATOM     16  S   UNL     1       1.758  -0.324  -0.052  0.00  0.00    -0.046 S 
ENDROOT
BRANCH  15  17
ATOM     17  C   UNL     1      -0.782  -2.319  -0.114  0.00  0.00    +0.041 A 
ATOM     18  C   UNL     1       0.078  -2.955   0.767  0.00  0.00    +0.023 A 
ATOM     19  C   UNL     1       0.300  -4.346   0.628  0.00  0.00    -0.001 A 
ATOM     20  C   UNL     1       1.161  -5.017   1.510  0.00  0.00    +0.010 A 
ATOM     21  C   UNL     1       1.373  -6.357   1.366  0.00  0.00    +0.001 A 
ATOM     22  C   UNL     1       0.744  -7.066   0.351  0.00  0.00    +0.002 A 
ATOM     23  C   UNL     1      -0.106  -6.430  -0.527  0.00  0.00    +0.026 A 
ATOM     24  C   UNL     1      -0.340  -5.063  -0.401  0.00  0.00    +0.049 A 
ATOM     25  N   UNL     1      -1.190  -4.424  -1.280  0.00  0.00    -0.322 N 
ATOM     26  H   UNL     1      -1.622  -4.934  -1.983  0.00  0.00    +0.169 HD
ATOM     27  C   UNL     1      -1.430  -3.103  -1.175  0.00  0.00    +0.256 A 
ATOM     28  O   UNL     1      -2.184  -2.558  -1.960  0.00  0.00    -0.267 OA
ENDBRANCH  15  17
TORSDOF 1
