REMARK  Name = ZINC45469383
REMARK  14 active torsions:
REMARK  status: ('A' for Active; 'I' for Inactive)
REMARK    1  A    between atoms: C_1  and  C_2
REMARK    2  A    between atoms: C_2  and  O_3
REMARK    3  A    between atoms: O_3  and  C_4
REMARK    4  A    between atoms: C_4  and  C_6
REMARK    5  A    between atoms: C_7  and  C_19
REMARK    6  A    between atoms: C_12  and  C_14
REMARK    7  A    between atoms: C_19  and  N_20
REMARK    8  A    between atoms: N_20  and  C_21
REMARK    9  A    between atoms: N_20  and  C_22
REMARK   10  A    between atoms: C_22  and  C_23
REMARK   11  A    between atoms: C_26  and  O_31
REMARK   12  A    between atoms: C_27  and  O_29
REMARK   13  A    between atoms: O_29  and  C_30
REMARK   14  A    between atoms: O_31  and  C_32
REMARK                            x       y       z     vdW  Elec       q    Type
REMARK                         _______ _______ _______ _____ _____    ______ ____
ROOT
ATOM      1  C   UNL     1       1.350  -2.336  -2.518  0.00  0.00    +0.079 C 
ATOM      2  C   UNL     1       1.628  -3.654  -2.615  0.00  0.00    +0.008 C 
ATOM      3  N   UNL     1       2.332  -4.150  -3.675  0.00  0.00    -0.274 N 
ATOM      4  C   UNL     1       2.794  -3.394  -4.678  0.00  0.00    +0.304 C 
ATOM      5  O   UNL     1       3.412  -3.927  -5.580  0.00  0.00    -0.252 OA
ATOM      6  N   UNL     1       2.596  -2.062  -4.722  0.00  0.00    -0.285 N 
ATOM      7  C   UNL     1       1.841  -1.429  -3.628  0.00  0.00    +0.179 C 
ATOM      8  H   UNL     1       2.508  -5.104  -3.701  0.00  0.00    +0.156 HD
ATOM      9  H   UNL     1       2.940  -1.533  -5.459  0.00  0.00    +0.151 HD
ENDROOT
BRANCH   7  10
ATOM     10  C   UNL     1       2.723  -0.375  -3.010  0.00  0.00    +0.130 A 
ATOM     11  C   UNL     1       2.355   0.884  -2.713  0.00  0.00    +0.047 A 
ATOM     12  C   UNL     1       3.487   1.521  -2.154  0.00  0.00    +0.041 A 
ATOM     13  C   UNL     1       4.479   0.613  -2.142  0.00  0.00    +0.195 A 
ATOM     14  O   UNL     1       4.009  -0.536  -2.656  0.00  0.00    -0.466 OA
ENDBRANCH   7  10
BRANCH   1  15
ATOM     15  C   UNL     1       0.620  -1.821  -1.422  0.00  0.00    +0.339 C 
ATOM     16  O   UNL     1      -0.560  -1.553  -1.548  0.00  0.00    -0.245 OA
BRANCH  15  17
ATOM     17  O   UNL     1       1.232  -1.627  -0.235  0.00  0.00    -0.462 OA
BRANCH  17  19
ATOM     18  C   UNL     1       1.294  -0.955   2.085  0.00  0.00    +0.048 C 
ATOM     19  C   UNL     1       0.434  -1.105   0.829  0.00  0.00    +0.229 C 
ENDBRANCH  17  19
ENDBRANCH  15  17
ENDBRANCH   1  15
BRANCH   2  20
ATOM     20  C   UNL     1       1.153  -4.593  -1.536  0.00  0.00    -0.026 C 
BRANCH  20  21
ATOM     21  N   UNL     1       0.182  -5.539  -2.102  0.00  0.00    +0.384 N 
ATOM     22  C   UNL     1      -1.016  -4.809  -2.537  0.00  0.00    -0.095 C 
ATOM     23  H   UNL     1       0.594  -6.011  -2.893  0.00  0.00    -0.081 HD
BRANCH  21  24
ATOM     24  C   UNL     1      -0.190  -6.528  -1.081  0.00  0.00    -0.043 C 
BRANCH  24  25
ATOM     25  C   UNL     1      -1.090  -7.569  -1.695  0.00  0.00    -0.060 A 
ATOM     26  C   UNL     1      -2.460  -7.385  -1.693  0.00  0.00    +0.005 A 
ATOM     27  C   UNL     1      -3.290  -8.337  -2.255  0.00  0.00    +0.050 A 
ATOM     28  C   UNL     1      -2.748  -9.479  -2.823  0.00  0.00    +0.168 A 
ATOM     29  C   UNL     1      -1.369  -9.665  -2.825  0.00  0.00    +0.162 A 
ATOM     30  C   UNL     1      -0.543  -8.704  -2.265  0.00  0.00    +0.051 A 
BRANCH  29  31
ATOM     31  O   UNL     1      -0.833 -10.784  -3.381  0.00  0.00    -0.491 OA
ATOM     32  C   UNL     1       0.590 -10.908  -3.348  0.00  0.00    +0.277 C 
ENDBRANCH  29  31
BRANCH  28  33
ATOM     33  O   UNL     1      -3.563 -10.417  -3.376  0.00  0.00    -0.431 OA
BRANCH  33  34
ATOM     34  C   UNL     1      -4.968 -10.160  -3.337  0.00  0.00    +0.541 C 
ATOM     35  F   UNL     1      -5.383 -10.039  -2.006  0.00  0.00    -0.166 F 
ATOM     36  F   UNL     1      -5.244  -8.972  -4.021  0.00  0.00    -0.166 F 
ENDBRANCH  33  34
ENDBRANCH  28  33
ENDBRANCH  24  25
ENDBRANCH  21  24
ENDBRANCH  20  21
ENDBRANCH   2  20
TORSDOF 11
