REMARK  Name = ZINC24599610
REMARK  6 active torsions:
REMARK  status: ('A' for Active; 'I' for Inactive)
REMARK    1  A    between atoms: C_1  and  C_2
REMARK    2  A    between atoms: C_2  and  C_4
REMARK    3  A    between atoms: C_2  and  N_14
REMARK    4  A    between atoms: N_6  and  C_7
REMARK    5  A    between atoms: N_17  and  S_20
REMARK    6  A    between atoms: S_20  and  C_23
REMARK                            x       y       z     vdW  Elec       q    Type
REMARK                         _______ _______ _______ _____ _____    ______ ____
ROOT
ATOM      1  N   UNL     1      -2.005  -4.234   0.053  0.00  0.00    +0.389 N 
ATOM      2  C   UNL     1      -1.163  -4.588  -1.097  0.00  0.00    -0.060 C 
ATOM      3  C   UNL     1      -0.754  -6.061  -0.991  0.00  0.00    +0.091 C 
ATOM      4  N   UNL     1      -1.970  -6.874  -0.836  0.00  0.00    -0.180 NA
ATOM      5  C   UNL     1      -2.932  -6.495   0.210  0.00  0.00    +0.091 C 
ATOM      6  C   UNL     1      -3.255  -5.005   0.057  0.00  0.00    -0.060 C 
ATOM      7  H   UNL     1      -1.450  -4.493   0.967  0.00  0.00    -0.081 HD
ENDROOT
BRANCH   4   8
ATOM      8  S   UNL     1      -2.248  -8.182  -1.814  0.00  0.00    +0.061 S 
ATOM      9  O   UNL     1      -0.980  -8.613  -2.287  0.00  0.00    -0.153 OA
ATOM     10  O   UNL     1      -3.128  -9.041  -1.101  0.00  0.00    -0.153 OA
BRANCH   8  11
ATOM     11  C   UNL     1      -3.139  -7.602  -3.219  0.00  0.00    +0.106 A 
ATOM     12  C   UNL     1      -2.457  -7.168  -4.340  0.00  0.00    +0.029 A 
ATOM     13  C   UNL     1      -3.157  -6.714  -5.441  0.00  0.00    +0.006 A 
ATOM     14  C   UNL     1      -4.541  -6.691  -5.425  0.00  0.00    -0.044 A 
ATOM     15  C   UNL     1      -5.224  -7.125  -4.304  0.00  0.00    -0.042 A 
ATOM     16  C   UNL     1      -4.520  -7.585  -3.203  0.00  0.00    +0.032 A 
ATOM     17  C   UNL     1      -6.715  -7.003  -4.533  0.00  0.00    +0.036 C 
ATOM     18  C   UNL     1      -6.878  -6.863  -6.062  0.00  0.00    +0.009 C 
ATOM     19  C   UNL     1      -5.527  -6.248  -6.484  0.00  0.00    +0.036 C 
ENDBRANCH   8  11
ENDBRANCH   4   8
BRANCH   1  21
ATOM     20  C   UNL     1      -3.331  -2.449  -0.974  0.00  0.00    -0.004 C 
ATOM     21  C   UNL     1      -2.277  -2.790   0.082  0.00  0.00    +0.017 C 
BRANCH  21  22
ATOM     22  C   UNL     1      -2.787  -2.402   1.445  0.00  0.00    +0.203 C 
ATOM     23  O   UNL     1      -3.150  -3.258   2.224  0.00  0.00    -0.277 OA
ATOM     24  N   UNL     1      -2.840  -1.103   1.800  0.00  0.00    -0.286 N 
ATOM     25  H   UNL     1      -2.576  -0.322   1.071  0.00  0.00    +0.155 HD
BRANCH  24  26
ATOM     26  C   UNL     1      -3.229  -0.747   3.096  0.00  0.00    +0.047 A 
ATOM     27  C   UNL     1      -4.090  -1.566   3.814  0.00  0.00    +0.024 A 
ATOM     28  C   UNL     1      -4.473  -1.212   5.093  0.00  0.00    +0.002 A 
ATOM     29  C   UNL     1      -3.999  -0.043   5.660  0.00  0.00    +0.001 A 
ATOM     30  C   UNL     1      -3.143   0.776   4.948  0.00  0.00    +0.017 A 
ATOM     31  C   UNL     1      -2.756   0.428   3.668  0.00  0.00    +0.039 A 
ATOM     32 BR   UNL     1      -1.577   1.544   2.698  0.00  0.00    -0.048 Br
ENDBRANCH  24  26
ENDBRANCH  21  22
ENDBRANCH   1  21
TORSDOF 5
