REMARK  Name = ZINC59853982
REMARK  12 active torsions:
REMARK  status: ('A' for Active; 'I' for Inactive)
REMARK    1  A    between atoms: C_1  and  C_2
REMARK    2  A    between atoms: C_2  and  C_3
REMARK    3  A    between atoms: C_3  and  C_5
REMARK    4  A    between atoms: C_3  and  S_29
REMARK    5  A    between atoms: N_7  and  C_8
REMARK    6  A    between atoms: C_15  and  S_17
REMARK    7  A    between atoms: S_17  and  C_18
REMARK    8  A    between atoms: C_18  and  C_19
REMARK    9  A    between atoms: N_21  and  C_22
REMARK   10  A    between atoms: C_22  and  C_23
REMARK   11  A    between atoms: S_29  and  C_30
REMARK   12  A    between atoms: N_34  and  C_35
REMARK                            x       y       z     vdW  Elec       q    Type
REMARK                         _______ _______ _______ _____ _____    ______ ____
ROOT
ATOM      1  C   UNL     1       0.071  -3.679  -2.174  0.00  0.00    +0.035 A 
ATOM      2  C   UNL     1       1.235  -4.309  -1.740  0.00  0.00    +0.025 A 
ATOM      3  C   UNL     1       1.360  -5.673  -1.764  0.00  0.00    +0.031 A 
ATOM      4  C   UNL     1       0.305  -6.490  -2.232  0.00  0.00    +0.080 A 
ATOM      5  C   UNL     1      -0.862  -5.819  -2.664  0.00  0.00    +0.042 A 
ATOM      6  C   UNL     1      -0.986  -4.453  -2.634  0.00  0.00    +0.040 A 
ATOM      7  S   UNL     1      -1.911  -7.165  -3.159  0.00  0.00    -0.061 S 
ATOM      8  C   UNL     1      -0.776  -8.490  -2.774  0.00  0.00    +0.136 A 
ATOM      9  N   UNL     1       0.271  -7.839  -2.319  0.00  0.00    -0.233 NA
ENDROOT
BRANCH   1  12
ATOM     10  C   UNL     1      -1.217  -1.702  -1.857  0.00  0.00    +0.231 C 
ATOM     11  O   UNL     1      -2.210  -2.386  -1.718  0.00  0.00    -0.274 OA
ATOM     12  N   UNL     1      -0.034  -2.283  -2.140  0.00  0.00    -0.285 N 
ATOM     13  H   UNL     1       0.745  -1.733  -2.320  0.00  0.00    +0.155 HD
BRANCH  10  14
ATOM     14  C   UNL     1      -1.307  -0.205  -1.713  0.00  0.00    +0.140 C 
BRANCH  14  16
ATOM     15  C   UNL     1      -1.444   1.954  -2.963  0.00  0.00    +0.005 C 
ATOM     16  C   UNL     1      -1.492   0.430  -3.092  0.00  0.00    +0.020 C 
ENDBRANCH  14  16
BRANCH  14  17
ATOM     17  S   UNL     1      -2.721   0.217  -0.658  0.00  0.00    -0.073 S 
BRANCH  17  18
ATOM     18  C   UNL     1      -2.241  -0.342   0.943  0.00  0.00    +0.192 A 
ATOM     19  N   UNL     1      -1.072  -0.836   1.279  0.00  0.00    -0.123 NA
ATOM     20  N   UNL     1      -1.069  -1.141   2.527  0.00  0.00    -0.137 NA
ATOM     21  C   UNL     1      -2.226  -0.861   3.058  0.00  0.00    +0.225 A 
ATOM     22  N   UNL     1      -3.012  -0.337   2.069  0.00  0.00    -0.312 N 
ATOM     23  C   UNL     1      -4.395   0.130   2.193  0.00  0.00    +0.152 C 
ENDBRANCH  17  18
ENDBRANCH  14  17
ENDBRANCH  10  14
ENDBRANCH   1  12
BRANCH   8  24
ATOM     24  S   UNL     1      -1.002 -10.227  -2.959  0.00  0.00    -0.089 S 
BRANCH  24  25
ATOM     25  C   UNL     1       0.560 -10.938  -2.370  0.00  0.00    +0.172 C 
BRANCH  25  26
ATOM     26  C   UNL     1       0.499 -12.440  -2.475  0.00  0.00    +0.223 C 
ATOM     27  O   UNL     1      -0.499 -12.978  -2.905  0.00  0.00    -0.275 OA
ATOM     28  N   UNL     1       1.555 -13.186  -2.092  0.00  0.00    -0.312 N 
ATOM     29  H   UNL     1       2.353 -12.755  -1.748  0.00  0.00    +0.149 HD
BRANCH  28  30
ATOM     30  C   UNL     1       1.496 -14.646  -2.194  0.00  0.00    +0.135 C 
BRANCH  30  31
ATOM     31  C   UNL     1       2.813 -15.245  -1.698  0.00  0.00    +0.135 C 
ATOM     32  C   UNL     1       2.808 -16.774  -1.914  0.00  0.00    +0.035 C 
ATOM     33  C   UNL     1       3.502 -17.292  -0.625  0.00  0.00    +0.031 C 
ATOM     34  C   UNL     1       3.002 -16.257   0.414  0.00  0.00    +0.160 C 
ATOM     35  O   UNL     1       2.957 -15.006  -0.293  0.00  0.00    -0.375 OA
ENDBRANCH  30  31
ENDBRANCH  28  30
ENDBRANCH  25  26
ENDBRANCH  24  25
ENDBRANCH   8  24
TORSDOF 10
