REMARK  Name = ZINC40807018
REMARK  6 active torsions:
REMARK  status: ('A' for Active; 'I' for Inactive)
REMARK    1  A    between atoms: C_1  and  C_2
REMARK    2  A    between atoms: C_2  and  O_3
REMARK    3  A    between atoms: O_3  and  C_4
REMARK    4  A    between atoms: C_14  and  C_16
REMARK    5  A    between atoms: C_16  and  C_17
REMARK    6  A    between atoms: C_24  and  C_29
REMARK                            x       y       z     vdW  Elec       q    Type
REMARK                         _______ _______ _______ _____ _____    ______ ____
ROOT
ATOM      1  C   UNL     1       0.802  -1.825   1.306  0.00  0.00    +0.122 A 
ATOM      2  C   UNL     1       0.261  -2.683   0.353  0.00  0.00    +0.048 A 
ATOM      3  C   UNL     1       0.358  -4.043   0.478  0.00  0.00    +0.032 A 
ATOM      4  C   UNL     1       1.015  -4.623   1.588  0.00  0.00    +0.081 A 
ATOM      5  C   UNL     1       1.553  -3.724   2.536  0.00  0.00    +0.044 A 
ATOM      6  C   UNL     1       1.459  -2.361   2.403  0.00  0.00    +0.063 A 
ATOM      7  S   UNL     1       2.271  -4.823   3.734  0.00  0.00    -0.052 S 
ATOM      8  C   UNL     1       1.827  -6.355   2.928  0.00  0.00    +0.165 A 
ATOM      9  N   UNL     1       1.195  -5.936   1.858  0.00  0.00    -0.225 NA
ATOM     10  N   UNL     1       2.086  -7.656   3.331  0.00  0.00    -0.265 N 
ATOM     11  C   UNL     1       1.664  -8.691   2.578  0.00  0.00    +0.223 C 
ATOM     12  O   UNL     1       1.059  -8.484   1.548  0.00  0.00    -0.275 OA
ATOM     13  H   UNL     1       2.570  -7.821   4.155  0.00  0.00    +0.157 HD
ENDROOT
BRANCH   1  14
ATOM     14  O   UNL     1       0.693  -0.477   1.160  0.00  0.00    -0.492 OA
BRANCH  14  16
ATOM     15  C   UNL     1      -0.019   1.526   0.010  0.00  0.00    +0.048 C 
ATOM     16  C   UNL     1       0.002  -0.004   0.002  0.00  0.00    +0.225 C 
ENDBRANCH  14  16
ENDBRANCH   1  14
BRANCH  11  17
ATOM     17  C   UNL     1       1.944 -10.105   3.017  0.00  0.00    +0.150 C 
BRANCH  17  18
ATOM     18  C   UNL     1       1.363 -11.082   1.992  0.00  0.00    +0.268 C 
ATOM     19  C   UNL     1       1.751 -12.490   2.365  0.00  0.00    +0.259 C 
ATOM     20  O   UNL     1       2.753 -12.990   1.897  0.00  0.00    -0.271 OA
ATOM     21  N   UNL     1       0.980 -13.192   3.222  0.00  0.00    -0.280 N 
ATOM     22  C   UNL     1      -0.236 -12.645   3.652  0.00  0.00    +0.076 A 
ATOM     23  C   UNL     1      -0.940 -13.226   4.695  0.00  0.00    +0.030 A 
ATOM     24  C   UNL     1      -2.132 -12.666   5.117  0.00  0.00    -0.048 A 
ATOM     25  C   UNL     1      -2.623 -11.530   4.501  0.00  0.00    +0.007 A 
ATOM     26  C   UNL     1      -1.928 -10.949   3.455  0.00  0.00    +0.048 A 
ATOM     27  C   UNL     1      -0.737 -11.507   3.024  0.00  0.00    +0.143 A 
ATOM     28  O   UNL     1      -0.061 -10.964   1.977  0.00  0.00    -0.477 OA
ATOM     29  C   UNL     1      -2.898 -13.297   6.251  0.00  0.00    +0.044 C 
ATOM     30  H   UNL     1       1.265 -14.065   3.535  0.00  0.00    +0.155 HD
ENDBRANCH  17  18
ENDBRANCH  11  17
TORSDOF 4
