REMARK  Name = ZINC63589348
REMARK  8 active torsions:
REMARK  status: ('A' for Active; 'I' for Inactive)
REMARK    1  A    between atoms: C_1  and  C_2
REMARK    2  A    between atoms: C_6  and  N_9
REMARK    3  A    between atoms: C_7  and  C_8
REMARK    4  A    between atoms: N_11  and  C_12
REMARK    5  A    between atoms: C_12  and  C_13
REMARK    6  A    between atoms: C_13  and  C_14
REMARK    7  A    between atoms: N_23  and  C_24
REMARK    8  A    between atoms: C_24  and  C_26
REMARK                            x       y       z     vdW  Elec       q    Type
REMARK                         _______ _______ _______ _____ _____    ______ ____
ROOT
ATOM      1  N   UNL     1      -1.053  -3.827   2.212  0.00  0.00    -0.328 N 
ATOM      2  C   UNL     1      -0.205  -4.862   2.480  0.00  0.00    +0.194 C 
ATOM      3  N   UNL     1       0.268  -5.046   3.747  0.00  0.00    -0.357 N 
ATOM      4  N   UNL     1       0.160  -5.688   1.511  0.00  0.00    -0.143 NA
ATOM      5  H   UNL     1       0.915  -5.746   3.926  0.00  0.00    +0.162 HD
ATOM      6  H   UNL     1      -1.991  -4.002   2.035  0.00  0.00    +0.169 HD
ENDROOT
BRANCH   1  12
ATOM      7  C   UNL     1      -1.933   1.000   1.911  0.00  0.00    +0.044 C 
ATOM      8  C   UNL     1      -0.976  -0.155   2.048  0.00  0.00    -0.046 A 
ATOM      9  C   UNL     1       0.383   0.083   2.154  0.00  0.00    +0.004 A 
ATOM     10  C   UNL     1       1.265  -0.975   2.280  0.00  0.00    +0.002 A 
ATOM     11  C   UNL     1       0.792  -2.272   2.300  0.00  0.00    +0.026 A 
ATOM     12  C   UNL     1      -0.571  -2.514   2.193  0.00  0.00    +0.045 A 
ATOM     13  C   UNL     1      -1.455  -1.450   2.073  0.00  0.00    -0.024 A 
ATOM     14  C   UNL     1      -2.936  -1.708   1.963  0.00  0.00    +0.046 C 
ENDBRANCH   1  12
BRANCH   4  15
ATOM     15  C   UNL     1      -0.153  -5.407   0.239  0.00  0.00    +0.270 C 
ATOM     16  O   UNL     1      -0.665  -4.338  -0.041  0.00  0.00    -0.268 OA
BRANCH  15  17
ATOM     17  C   UNL     1       0.122  -6.397  -0.827  0.00  0.00    +0.039 A 
ATOM     18  C   UNL     1       0.597  -7.667  -0.497  0.00  0.00    +0.014 A 
ATOM     19  C   UNL     1       0.851  -8.586  -1.494  0.00  0.00    +0.021 A 
ATOM     20  C   UNL     1       0.635  -8.250  -2.820  0.00  0.00    +0.041 A 
ATOM     21  C   UNL     1       0.165  -6.991  -3.153  0.00  0.00    +0.021 A 
ATOM     22  C   UNL     1      -0.098  -6.066  -2.164  0.00  0.00    +0.014 A 
ATOM     23 CL   UNL     1       0.957  -9.411  -4.070  0.00  0.00    -0.084 Cl
ENDBRANCH  15  17
ENDBRANCH   4  15
BRANCH   3  24
ATOM     24  C   UNL     1      -0.203  -4.187   4.836  0.00  0.00    +0.120 C 
BRANCH  24  25
ATOM     25  C   UNL     1       0.520  -4.564   6.131  0.00  0.00    +0.054 C 
BRANCH  25  26
ATOM     26  C   UNL     1      -0.048  -3.763   7.274  0.00  0.00    -0.040 C 
ATOM     27  C   UNL     1      -1.159  -4.045   7.993  0.00  0.00    -0.001 A 
ATOM     28  C   UNL     1      -2.134  -5.140   7.927  0.00  0.00    +0.010 A 
ATOM     29  C   UNL     1      -3.167  -5.152   8.800  0.00  0.00    +0.001 A 
ATOM     30  C   UNL     1      -3.329  -4.147   9.763  0.00  0.00    +0.002 A 
ATOM     31  C   UNL     1      -2.474  -3.109   9.886  0.00  0.00    +0.026 A 
ATOM     32  C   UNL     1      -1.352  -2.997   9.020  0.00  0.00    +0.043 A 
ATOM     33  N   UNL     1      -0.398  -2.101   8.940  0.00  0.00    -0.380 N 
ATOM     34  C   UNL     1       0.513  -2.484   7.855  0.00  0.00    +0.144 C 
ATOM     35  H   UNL     1      -0.307  -1.318   9.505  0.00  0.00    +0.160 HD
ENDBRANCH  25  26
ENDBRANCH  24  25
ENDBRANCH   3  24
TORSDOF 6
