REMARK  Name = ZINC08648873
REMARK  13 active torsions:
REMARK  status: ('A' for Active; 'I' for Inactive)
REMARK    1  A    between atoms: C_1  and  N_2
REMARK    2  A    between atoms: N_7  and  C_10
REMARK    3  A    between atoms: N_11  and  C_21
REMARK    4  A    between atoms: N_14  and  C_15
REMARK    5  A    between atoms: C_15  and  C_16
REMARK    6  A    between atoms: C_21  and  C_22
REMARK    7  A    between atoms: C_22  and  C_24
REMARK    8  A    between atoms: C_22  and  O_39
REMARK    9  A    between atoms: C_24  and  N_71
REMARK   10  A    between atoms: C_25  and  C_26
REMARK   11  A    between atoms: C_25  and  N_71
REMARK   12  A    between atoms: C_32  and  C_33
REMARK   13  A    between atoms: C_32  and  N_71
REMARK                            x       y       z     vdW  Elec       q    Type
REMARK                         _______ _______ _______ _____ _____    ______ ____
ROOT
ATOM      1  C   UNL     1      -2.293   1.305  -0.044  0.00  0.00    +0.155 C 
ATOM      2  N   UNL     1      -0.841   1.176   0.100  0.00  0.00    -0.280 N 
ATOM      3  C   UNL     1      -0.032   2.296  -0.006  0.00  0.00    +0.170 A 
ATOM      4  C   UNL     1       1.343   2.146   0.136  0.00  0.00    +0.153 A 
ATOM      5  C   UNL     1       1.872   0.866   0.381  0.00  0.00    +0.282 A 
ATOM      6  O   UNL     1       3.074   0.711   0.508  0.00  0.00    -0.265 OA
ATOM      7  N   UNL     1       1.035  -0.188   0.473  0.00  0.00    -0.262 N 
ATOM      8  C   UNL     1      -0.292  -0.032   0.329  0.00  0.00    +0.333 A 
ATOM      9  O   UNL     1      -1.016  -1.006   0.413  0.00  0.00    -0.246 OA
ATOM     10  C   UNL     1       1.582  -1.523   0.728  0.00  0.00    +0.157 C 
ATOM     11  N   UNL     1       1.892   3.412  -0.014  0.00  0.00    -0.304 N 
ATOM     12  C   UNL     1       0.857   4.264  -0.236  0.00  0.00    +0.199 A 
ATOM     13  N   UNL     1      -0.275   3.589  -0.228  0.00  0.00    -0.196 NA
ATOM     14  N   UNL     1       0.972   5.620  -0.438  0.00  0.00    -0.308 N 
ATOM     15  H   UNL     1       1.847   6.039  -0.429  0.00  0.00    +0.149 HD
ENDROOT
BRANCH  14  16
ATOM     16  C   UNL     1      -0.227   6.431  -0.667  0.00  0.00    +0.178 C 
BRANCH  16  17
ATOM     17  C   UNL     1       0.171   7.872  -0.859  0.00  0.00    +0.122 A 
ATOM     18  C   UNL     1       0.470   8.456  -2.033  0.00  0.00    +0.046 A 
ATOM     19  C   UNL     1       0.784   9.806  -1.750  0.00  0.00    +0.041 A 
ATOM     20  C   UNL     1       0.658   9.965  -0.421  0.00  0.00    +0.195 A 
ATOM     21  O   UNL     1       0.281   8.792   0.114  0.00  0.00    -0.466 OA
ENDBRANCH  16  17
ENDBRANCH  14  16
BRANCH  11  22
ATOM     22  C   UNL     1       3.313   3.762   0.053  0.00  0.00    +0.154 C 
BRANCH  22  23
ATOM     23  C   UNL     1       3.930   3.663  -1.343  0.00  0.00    +0.118 C 
BRANCH  23  24
ATOM     24  O   UNL     1       3.338   4.645  -2.196  0.00  0.00    -0.392 OA
ATOM     25  H   UNL     1       3.547   5.557  -1.950  0.00  0.00    +0.210 HD
ENDBRANCH  23  24
BRANCH  23  26
ATOM     26  C   UNL     1       5.438   3.906  -1.254  0.00  0.00    -0.044 C 
BRANCH  26  27
ATOM     27  N   UNL     1       5.989   3.972  -2.624  0.00  0.00    +0.387 N 
ATOM     28  H   UNL     1       5.534   3.254  -3.201  0.00  0.00    -0.081 HD
BRANCH  27  29
ATOM     29  C   UNL     1       5.722   5.301  -3.213  0.00  0.00    -0.042 C 
BRANCH  29  30
ATOM     30  C   UNL     1       6.192   6.393  -2.287  0.00  0.00    -0.064 A 
ATOM     31  C   UNL     1       5.361   6.853  -1.283  0.00  0.00    +0.002 A 
ATOM     32  C   UNL     1       5.793   7.851  -0.430  0.00  0.00    +0.000 A 
ATOM     33  C   UNL     1       7.054   8.396  -0.588  0.00  0.00    +0.000 A 
ATOM     34  C   UNL     1       7.883   7.940  -1.595  0.00  0.00    +0.000 A 
ATOM     35  C   UNL     1       7.452   6.938  -2.445  0.00  0.00    +0.002 A 
ENDBRANCH  29  30
ENDBRANCH  27  29
BRANCH  27  36
ATOM     36  C   UNL     1       7.444   3.714  -2.596  0.00  0.00    -0.042 C 
BRANCH  36  37
ATOM     37  C   UNL     1       7.888   3.307  -3.977  0.00  0.00    -0.064 A 
ATOM     38  C   UNL     1       7.746   1.996  -4.391  0.00  0.00    +0.002 A 
ATOM     39  C   UNL     1       8.149   1.623  -5.659  0.00  0.00    +0.000 A 
ATOM     40  C   UNL     1       8.704   2.560  -6.511  0.00  0.00    +0.000 A 
ATOM     41  C   UNL     1       8.852   3.870  -6.095  0.00  0.00    +0.000 A 
ATOM     42  C   UNL     1       8.444   4.244  -4.828  0.00  0.00    +0.002 A 
ENDBRANCH  36  37
ENDBRANCH  27  36
ENDBRANCH  26  27
ENDBRANCH  23  26
ENDBRANCH  22  23
ENDBRANCH  11  22
TORSDOF 11
