REMARK  Name = ZINC59488537
REMARK  5 active torsions:
REMARK  status: ('A' for Active; 'I' for Inactive)
REMARK    1  A    between atoms: C_4  and  C_7
REMARK    2  A    between atoms: C_7  and  N_8
REMARK    3  A    between atoms: N_11  and  C_14
REMARK    4  A    between atoms: C_17  and  C_23
REMARK    5  A    between atoms: C_19  and  N_20
REMARK                            x       y       z     vdW  Elec       q    Type
REMARK                         _______ _______ _______ _____ _____    ______ ____
ROOT
ATOM      1  C   UNL     1       6.918  -0.806   4.394  0.00  0.00    +0.060 A 
ATOM      2  C   UNL     1       6.914  -1.215   5.722  0.00  0.00    +0.026 A 
ATOM      3  C   UNL     1       8.033  -1.020   6.507  0.00  0.00    +0.009 A 
ATOM      4  C   UNL     1       9.158  -0.417   5.973  0.00  0.00    -0.007 A 
ATOM      5  C   UNL     1       9.165  -0.008   4.652  0.00  0.00    +0.041 A 
ATOM      6  C   UNL     1       8.052  -0.206   3.860  0.00  0.00    +0.147 A 
ENDROOT
BRANCH   4   7
ATOM      7  C   UNL     1      10.377  -0.206   6.833  0.00  0.00    +0.190 C 
ATOM      8  N   UNL     1      10.441  -1.260   7.853  0.00  0.00    -0.322 N 
ATOM      9  C   UNL     1      10.856  -2.530   7.471  0.00  0.00    +0.041 A 
ATOM     10  C   UNL     1      10.408  -3.672   8.112  0.00  0.00    +0.024 A 
ATOM     11  C   UNL     1      10.850  -4.911   7.690  0.00  0.00    +0.002 A 
ATOM     12  C   UNL     1      11.736  -5.019   6.630  0.00  0.00    +0.001 A 
ATOM     13  C   UNL     1      12.193  -3.892   5.980  0.00  0.00    +0.015 A 
ATOM     14  C   UNL     1      11.758  -2.636   6.396  0.00  0.00    +0.058 A 
ATOM     15  C   UNL     1      12.220  -1.398   5.744  0.00  0.00    +0.247 C 
ATOM     16  O   UNL     1      13.174  -1.420   4.989  0.00  0.00    -0.270 OA
ATOM     17  N   UNL     1      11.574  -0.244   5.993  0.00  0.00    -0.289 N 
ATOM     18  H   UNL     1      10.199  -1.073   8.774  0.00  0.00    +0.148 HD
ATOM     19  H   UNL     1      11.911   0.579   5.606  0.00  0.00    +0.151 HD
ENDBRANCH   4   7
BRANCH   1  23
ATOM     20  N   UNL     1       4.153  -0.953   1.342  0.00  0.00    -0.295 NA
ATOM     21  C   UNL     1       4.459   0.308   2.029  0.00  0.00    +0.103 C 
ATOM     22  C   UNL     1       4.739   0.025   3.509  0.00  0.00    +0.120 C 
ATOM     23  N   UNL     1       5.788  -1.002   3.597  0.00  0.00    -0.326 N 
ATOM     24  C   UNL     1       5.616  -2.241   2.824  0.00  0.00    +0.120 C 
ATOM     25  C   UNL     1       5.302  -1.868   1.371  0.00  0.00    +0.103 C 
BRANCH  20  26
ATOM     26  C   UNL     1       3.711  -0.707  -0.038  0.00  0.00    +0.119 C 
BRANCH  26  30
ATOM     27  C   UNL     1      -0.017   1.378   0.010  0.00  0.00    +0.000 A 
ATOM     28  C   UNL     1       1.171   2.086   0.002  0.00  0.00    +0.000 A 
ATOM     29  C   UNL     1       2.377   1.411  -0.013  0.00  0.00    +0.005 A 
ATOM     30  C   UNL     1       2.396   0.029  -0.020  0.00  0.00    -0.033 A 
ATOM     31  C   UNL     1       1.208  -0.679  -0.012  0.00  0.00    +0.005 A 
ATOM     32  C   UNL     1       0.002  -0.004   0.002  0.00  0.00    +0.000 A 
ENDBRANCH  26  30
ENDBRANCH  20  26
ENDBRANCH   1  23
BRANCH   6  33
ATOM     33  N   UNL     1       8.063   0.227   2.445  0.00  0.00    +0.058 N 
ATOM     34  O   UNL     1       9.050   0.749   1.980  0.00  0.00    -0.126 OA
ATOM     35  O   UNL     1       7.086   0.058   1.753  0.00  0.00    -0.126 OA
ENDBRANCH   6  33
TORSDOF 5
