REMARK  Name = ZINC63795657
REMARK  8 active torsions:
REMARK  status: ('A' for Active; 'I' for Inactive)
REMARK    1  A    between atoms: C_7  and  C_10
REMARK    2  A    between atoms: C_10  and  C_11
REMARK    3  A    between atoms: C_11  and  C_12
REMARK    4  A    between atoms: N_14  and  C_15
REMARK    5  A    between atoms: C_18  and  S_21
REMARK    6  A    between atoms: S_21  and  N_24
REMARK    7  A    between atoms: N_24  and  C_25
REMARK    8  A    between atoms: C_25  and  C_26
REMARK                            x       y       z     vdW  Elec       q    Type
REMARK                         _______ _______ _______ _____ _____    ______ ____
ROOT
ATOM      1  C   UNL     1      -1.782  -6.444  -2.574  0.00  0.00    +0.033 A 
ATOM      2  C   UNL     1      -2.334  -6.824  -1.358  0.00  0.00    +0.025 A 
ATOM      3  C   UNL     1      -3.266  -7.842  -1.312  0.00  0.00    +0.030 A 
ATOM      4  C   UNL     1      -3.650  -8.483  -2.476  0.00  0.00    +0.105 A 
ATOM      5  C   UNL     1      -3.101  -8.107  -3.689  0.00  0.00    +0.030 A 
ATOM      6  C   UNL     1      -2.173  -7.085  -3.742  0.00  0.00    +0.025 A 
ENDROOT
BRANCH   1   9
ATOM      7  C   UNL     1      -0.813  -4.571  -3.675  0.00  0.00    +0.217 C 
ATOM      8  O   UNL     1      -1.553  -4.757  -4.618  0.00  0.00    -0.275 OA
ATOM      9  N   UNL     1      -0.837  -5.413  -2.623  0.00  0.00    -0.285 N 
ATOM     10  H   UNL     1      -0.200  -5.304  -1.900  0.00  0.00    +0.155 HD
BRANCH   7  11
ATOM     11  C   UNL     1       0.134  -3.399  -3.680  0.00  0.00    +0.100 C 
BRANCH  11  12
ATOM     12  C   UNL     1      -0.038  -2.609  -4.979  0.00  0.00    +0.042 C 
BRANCH  12  19
ATOM     13  C   UNL     1       4.164  -2.027  -6.727  0.00  0.00    +0.001 A 
ATOM     14  C   UNL     1       4.696  -0.751  -6.499  0.00  0.00    +0.002 A 
ATOM     15  C   UNL     1       4.026   0.209  -5.827  0.00  0.00    +0.026 A 
ATOM     16  C   UNL     1       2.724  -0.048  -5.314  0.00  0.00    +0.043 A 
ATOM     17  N   UNL     1       1.887   0.704  -4.641  0.00  0.00    -0.380 N 
ATOM     18  C   UNL     1       0.675  -0.077  -4.366  0.00  0.00    +0.144 C 
ATOM     19  C   UNL     1       0.908  -1.437  -4.985  0.00  0.00    -0.041 C 
ATOM     20  C   UNL     1       2.140  -1.389  -5.543  0.00  0.00    -0.001 A 
ATOM     21  C   UNL     1       2.935  -2.375  -6.284  0.00  0.00    +0.010 A 
ATOM     22  H   UNL     1       2.043   1.622  -4.370  0.00  0.00    +0.160 HD
ENDBRANCH  12  19
ENDBRANCH  11  12
ENDBRANCH   7  11
ENDBRANCH   1   9
BRANCH   4  23
ATOM     23  S   UNL     1      -4.840  -9.781  -2.414  0.00  0.00    +0.059 S 
ATOM     24  O   UNL     1      -4.624 -10.585  -3.566  0.00  0.00    -0.153 OA
ATOM     25  O   UNL     1      -4.795 -10.310  -1.096  0.00  0.00    -0.153 OA
BRANCH  23  26
ATOM     26  N   UNL     1      -6.332  -9.086  -2.595  0.00  0.00    -0.183 NA
ATOM     27  H   UNL     1      -6.973  -9.119  -1.868  0.00  0.00    +0.148 HD
BRANCH  26  28
ATOM     28  C   UNL     1      -6.684  -8.423  -3.853  0.00  0.00    +0.180 C 
BRANCH  28  29
ATOM     29  C   UNL     1      -8.174  -8.207  -3.907  0.00  0.00    +0.120 A 
ATOM     30  C   UNL     1      -8.828  -7.120  -3.462  0.00  0.00    +0.046 A 
ATOM     31  C   UNL     1     -10.203  -7.338  -3.709  0.00  0.00    +0.041 A 
ATOM     32  C   UNL     1     -10.307  -8.547  -4.291  0.00  0.00    +0.195 A 
ATOM     33  O   UNL     1      -9.074  -9.066  -4.414  0.00  0.00    -0.466 OA
ENDBRANCH  28  29
ENDBRANCH  26  28
ENDBRANCH  23  26
ENDBRANCH   4  23
TORSDOF 8
