REMARK  Name = ZINC42015666
REMARK  5 active torsions:
REMARK  status: ('A' for Active; 'I' for Inactive)
REMARK    1  A    between atoms: C_1  and  C_2
REMARK    2  A    between atoms: C_4  and  C_9
REMARK    3  A    between atoms: C_7  and  N_8
REMARK    4  A    between atoms: N_13  and  C_14
REMARK    5  A    between atoms: C_14  and  C_15
REMARK                            x       y       z     vdW  Elec       q    Type
REMARK                         _______ _______ _______ _____ _____    ______ ____
ROOT
ATOM      1  C   UNL     1       0.207  -2.756  -2.495  0.00  0.00    +0.182 A 
ATOM      2  N   UNL     1      -0.076  -2.249  -3.677  0.00  0.00    -0.108 NA
ATOM      3  N   UNL     1       0.038  -3.145  -4.589  0.00  0.00    -0.023 NA
ATOM      4  N   UNL     1       0.396  -4.270  -4.072  0.00  0.00    -0.043 NA
ATOM      5  N   UNL     1       0.526  -4.060  -2.688  0.00  0.00    -0.221 N 
ENDROOT
BRANCH   1   9
ATOM      6  C   UNL     1       0.188   1.532   0.054  0.00  0.00    +0.045 C 
ATOM      7  C   UNL     1       0.178   0.026   0.027  0.00  0.00    -0.029 A 
ATOM      8  C   UNL     1       0.197  -0.641  -1.178  0.00  0.00    +0.016 A 
ATOM      9  C   UNL     1       0.189  -2.037  -1.202  0.00  0.00    +0.021 A 
ATOM     10  C   UNL     1       0.162  -2.753  -0.004  0.00  0.00    +0.013 A 
ATOM     11  C   UNL     1       0.144  -2.081   1.198  0.00  0.00    +0.023 A 
ATOM     12  C   UNL     1       0.157  -0.690   1.219  0.00  0.00    +0.028 A 
BRANCH  12  13
ATOM     13  N   UNL     1       0.145  -0.013   2.438  0.00  0.00    -0.358 N 
ATOM     14  H   UNL     1       0.151   0.957   2.453  0.00  0.00    +0.142 HD
ATOM     15  H   UNL     1       0.130  -0.511   3.270  0.00  0.00    +0.142 HD
ENDBRANCH  12  13
ENDBRANCH   1   9
BRANCH   5  16
ATOM     16  C   UNL     1       0.919  -5.040  -1.672  0.00  0.00    +0.185 C 
BRANCH  16  17
ATOM     17  C   UNL     1       1.349  -6.317  -2.346  0.00  0.00    +0.009 A 
ATOM     18  C   UNL     1       0.441  -7.344  -2.525  0.00  0.00    +0.008 A 
ATOM     19  C   UNL     1       0.835  -8.516  -3.143  0.00  0.00    +0.000 A 
ATOM     20  C   UNL     1       2.137  -8.662  -3.583  0.00  0.00    +0.003 A 
ATOM     21  C   UNL     1       3.047  -7.637  -3.406  0.00  0.00    +0.039 A 
ATOM     22  C   UNL     1       2.652  -6.461  -2.792  0.00  0.00    +0.128 A 
ATOM     23  F   UNL     1       3.539  -5.456  -2.622  0.00  0.00    -0.205 F 
ENDBRANCH  16  17
ENDBRANCH   5  16
TORSDOF 4
