REMARK  Name = ZINC12768636
REMARK  12 active torsions:
REMARK  status: ('A' for Active; 'I' for Inactive)
REMARK    1  A    between atoms: C_1  and  C_2
REMARK    2  A    between atoms: C_2  and  O_3
REMARK    3  A    between atoms: O_3  and  C_4
REMARK    4  A    between atoms: C_4  and  C_6
REMARK    5  A    between atoms: C_7  and  C_15
REMARK    6  A    between atoms: C_12  and  C_14
REMARK    7  A    between atoms: C_15  and  S_16
REMARK    8  A    between atoms: S_16  and  C_17
REMARK    9  A    between atoms: N_27  and  C_28
REMARK   10  A    between atoms: C_28  and  C_29
REMARK   11  A    between atoms: C_29  and  C_30
REMARK   12  A    between atoms: C_29  and  C_31
REMARK                            x       y       z     vdW  Elec       q    Type
REMARK                         _______ _______ _______ _____ _____    ______ ____
ROOT
ATOM      1  S   UNL     1      -3.210   3.139   0.201  0.00  0.00    -0.082 S 
ENDROOT
BRANCH   1   2
ATOM      2  C   UNL     1      -3.637   1.608   0.962  0.00  0.00    +0.172 A 
ATOM      3  N   UNL     1      -4.849   1.142   0.791  0.00  0.00    -0.223 NA
ATOM      4  C   UNL     1      -5.245  -0.025   1.351  0.00  0.00    +0.079 A 
ATOM      5  C   UNL     1      -6.540  -0.519   1.174  0.00  0.00    +0.030 A 
ATOM      6  C   UNL     1      -6.902  -1.701   1.756  0.00  0.00    +0.022 A 
ATOM      7  C   UNL     1      -5.999  -2.425   2.526  0.00  0.00    +0.042 A 
ATOM      8  C   UNL     1      -4.714  -1.964   2.719  0.00  0.00    +0.035 A 
ATOM      9  C   UNL     1      -4.325  -0.759   2.133  0.00  0.00    +0.066 A 
ATOM     10  C   UNL     1      -2.970  -0.217   2.303  0.00  0.00    +0.262 A 
ATOM     11  O   UNL     1      -2.134  -0.803   2.965  0.00  0.00    -0.267 OA
ATOM     12  N   UNL     1      -2.686   0.959   1.697  0.00  0.00    -0.287 N 
ATOM     13 CL   UNL     1      -6.492  -3.923   3.251  0.00  0.00    -0.084 Cl
BRANCH  12  14
ATOM     14  C   UNL     1      -1.350   1.544   1.835  0.00  0.00    +0.130 C 
BRANCH  14  15
ATOM     15  C   UNL     1      -0.451   1.035   0.706  0.00  0.00    +0.003 C 
ATOM     16  C   UNL     1       0.975   1.546   0.919  0.00  0.00    +0.009 C 
ATOM     17  C   UNL     1      -0.980   1.546  -0.636  0.00  0.00    +0.009 C 
ENDBRANCH  14  15
ENDBRANCH  12  14
ENDBRANCH   1   2
BRANCH   1  18
ATOM     18  C   UNL     1      -4.779   3.535  -0.609  0.00  0.00    +0.128 C 
BRANCH  18  20
ATOM     19  C   UNL     1      -4.533   4.841  -2.690  0.00  0.00    +0.074 C 
ATOM     20  C   UNL     1      -4.649   4.844  -1.345  0.00  0.00    +0.034 C 
ATOM     21  N   UNL     1      -4.654   6.014  -0.640  0.00  0.00    -0.272 N 
ATOM     22  C   UNL     1      -4.539   7.222  -1.206  0.00  0.00    +0.304 C 
ATOM     23  O   UNL     1      -4.549   8.208  -0.495  0.00  0.00    -0.253 OA
ATOM     24  N   UNL     1      -4.416   7.381  -2.538  0.00  0.00    -0.292 N 
ATOM     25  C   UNL     1      -4.404   6.179  -3.390  0.00  0.00    +0.110 C 
ATOM     26  C   UNL     1      -5.554   6.300  -4.392  0.00  0.00    +0.033 C 
ATOM     27  H   UNL     1      -4.744   5.967   0.325  0.00  0.00    +0.156 HD
ATOM     28  H   UNL     1      -4.337   8.266  -2.928  0.00  0.00    +0.151 HD
BRANCH  19  29
ATOM     29  C   UNL     1      -4.532   3.631  -3.421  0.00  0.00    +0.338 C 
ATOM     30  O   UNL     1      -3.481   3.160  -3.817  0.00  0.00    -0.245 OA
BRANCH  29  31
ATOM     31  O   UNL     1      -5.695   2.998  -3.681  0.00  0.00    -0.462 OA
BRANCH  31  33
ATOM     32  C   UNL     1      -7.026   1.212  -4.618  0.00  0.00    +0.048 C 
ATOM     33  C   UNL     1      -5.619   1.780  -4.424  0.00  0.00    +0.229 C 
ENDBRANCH  31  33
ENDBRANCH  29  31
ENDBRANCH  19  29
ENDBRANCH  18  20
ENDBRANCH   1  18
TORSDOF 8
