REMARK  Name = ZINC35778670
REMARK  19 active torsions:
REMARK  status: ('A' for Active; 'I' for Inactive)
REMARK    1  A    between atoms: C_1  and  C_2
REMARK    2  A    between atoms: C_5  and  O_8
REMARK    3  A    between atoms: O_8  and  C_9
REMARK    4  A    between atoms: C_9  and  C_10
REMARK    5  A    between atoms: C_20  and  C_22
REMARK    6  A    between atoms: C_22  and  N_23
REMARK    7  A    between atoms: N_23  and  C_24
REMARK    8  A    between atoms: N_23  and  C_34
REMARK    9  A    between atoms: C_24  and  C_25
REMARK   10  A    between atoms: C_25  and  C_27
REMARK   11  A    between atoms: C_25  and  O_33
REMARK   12  A    between atoms: C_27  and  O_28
REMARK   13  A    between atoms: O_28  and  C_29
REMARK   14  A    between atoms: C_29  and  C_30
REMARK   15  A    between atoms: C_29  and  C_31
REMARK   16  A    between atoms: C_29  and  C_32
REMARK   17  A    between atoms: C_34  and  C_35
REMARK   18  A    between atoms: C_35  and  C_36
REMARK   19  A    between atoms: C_35  and  C_37
REMARK                            x       y       z     vdW  Elec       q    Type
REMARK                         _______ _______ _______ _____ _____    ______ ____
ROOT
ATOM      1  C   UNL     1      -2.051  -4.386   0.430  0.00  0.00    +0.144 C 
ATOM      2  C   UNL     1      -0.707  -4.238  -0.281  0.00  0.00    -0.014 A 
ATOM      3  C   UNL     1       0.321  -3.424   0.191  0.00  0.00    +0.013 A 
ATOM      4  C   UNL     1       1.485  -3.339  -0.493  0.00  0.00    +0.046 A 
ATOM      5  S   UNL     1       1.181  -4.431  -1.873  0.00  0.00    -0.101 S 
ATOM      6  C   UNL     1      -0.467  -4.919  -1.434  0.00  0.00    -0.004 A 
ATOM      7  C   UNL     1      -1.379  -5.859  -2.153  0.00  0.00    +0.061 C 
ATOM      8  C   UNL     1      -2.808  -5.657  -1.627  0.00  0.00    +0.113 C 
ATOM      9  N   UNL     1      -2.750  -5.535  -0.162  0.00  0.00    -0.292 N 
ATOM     10  C   UNL     1      -3.327  -6.464   0.626  0.00  0.00    +0.200 C 
ATOM     11  O   UNL     1      -3.271  -6.355   1.833  0.00  0.00    -0.278 OA
ENDROOT
BRANCH   1  12
ATOM     12  C   UNL     1      -2.883  -3.117   0.233  0.00  0.00    +0.256 C 
BRANCH  12  13
ATOM     13  O   UNL     1      -2.993  -2.830  -1.162  0.00  0.00    -0.490 OA
BRANCH  13  18
ATOM     14  C   UNL     1      -5.950   1.740  -2.610  0.00  0.00    +0.044 C 
ATOM     15  C   UNL     1      -5.158   0.517  -2.222  0.00  0.00    -0.050 A 
ATOM     16  C   UNL     1      -4.579  -0.268  -3.201  0.00  0.00    +0.007 A 
ATOM     17  C   UNL     1      -3.853  -1.390  -2.849  0.00  0.00    +0.046 A 
ATOM     18  C   UNL     1      -3.706  -1.727  -1.512  0.00  0.00    +0.121 A 
ATOM     19  C   UNL     1      -4.288  -0.937  -0.531  0.00  0.00    +0.046 A 
ATOM     20  C   UNL     1      -5.008   0.186  -0.888  0.00  0.00    +0.007 A 
ENDBRANCH  13  18
ENDBRANCH  12  13
ENDBRANCH   1  12
BRANCH  10  21
ATOM     21  C   UNL     1      -4.040  -7.638   0.008  0.00  0.00    +0.019 C 
BRANCH  21  22
ATOM     22  N   UNL     1      -4.416  -8.592   1.060  0.00  0.00    +0.387 N 
ATOM     23  H   UNL     1      -4.731  -8.087   1.875  0.00  0.00    -0.081 HD
BRANCH  22  24
ATOM     24  C   UNL     1      -5.498  -9.458   0.572  0.00  0.00    -0.044 C 
BRANCH  24  25
ATOM     25  C   UNL     1      -6.207 -10.108   1.762  0.00  0.00    +0.124 C 
BRANCH  25  26
ATOM     26  O   UNL     1      -5.327 -11.046   2.386  0.00  0.00    -0.391 OA
ATOM     27  H   UNL     1      -5.036 -11.761   1.802  0.00  0.00    +0.210 HD
ENDBRANCH  25  26
BRANCH  25  28
ATOM     28  C   UNL     1      -7.462 -10.833   1.274  0.00  0.00    +0.189 C 
BRANCH  28  29
ATOM     29  O   UNL     1      -8.186 -11.341   2.396  0.00  0.00    -0.372 OA
BRANCH  29  30
ATOM     30  C   UNL     1      -9.383 -12.039   2.049  0.00  0.00    +0.061 C 
ATOM     31  C   UNL     1      -9.037 -13.233   1.157  0.00  0.00    +0.041 C 
ATOM     32  C   UNL     1     -10.072 -12.535   3.321  0.00  0.00    +0.041 C 
ATOM     33  C   UNL     1     -10.323 -11.096   1.294  0.00  0.00    +0.041 C 
ENDBRANCH  29  30
ENDBRANCH  28  29
ENDBRANCH  25  28
ENDBRANCH  24  25
ENDBRANCH  22  24
BRANCH  22  34
ATOM     34  C   UNL     1      -3.252  -9.415   1.413  0.00  0.00    -0.075 C 
BRANCH  34  35
ATOM     35  C   UNL     1      -2.313  -8.610   2.315  0.00  0.00    -0.034 C 
ATOM     36  C   UNL     1      -3.003  -8.336   3.653  0.00  0.00    +0.005 C 
ATOM     37  C   UNL     1      -1.030  -9.407   2.557  0.00  0.00    +0.005 C 
ENDBRANCH  34  35
ENDBRANCH  22  34
ENDBRANCH  21  22
ENDBRANCH  10  21
TORSDOF 13
