REMARK  Name = ZINC35885912
REMARK  8 active torsions:
REMARK  status: ('A' for Active; 'I' for Inactive)
REMARK    1  A    between atoms: C_1  and  O_2
REMARK    2  A    between atoms: O_2  and  C_3
REMARK    3  A    between atoms: C_6  and  C_9
REMARK    4  A    between atoms: C_9  and  C_10
REMARK    5  A    between atoms: C_14  and  C_29
REMARK    6  A    between atoms: C_16  and  C_19
REMARK    7  A    between atoms: C_23  and  C_25
REMARK    8  A    between atoms: C_29  and  N_30
REMARK                            x       y       z     vdW  Elec       q    Type
REMARK                         _______ _______ _______ _____ _____    ______ ____
ROOT
ATOM      1  C   UNL     1      -5.180  -3.088  -1.746  0.00  0.00    +0.220 C 
ATOM      2  O   UNL     1      -4.601  -2.622  -2.704  0.00  0.00    -0.275 OA
ATOM      3  N   UNL     1      -6.378  -3.685  -1.908  0.00  0.00    -0.300 N 
ATOM      4  C   UNL     1      -7.122  -3.861  -3.176  0.00  0.00    +0.110 C 
ATOM      5  C   UNL     1      -8.594  -3.608  -2.762  0.00  0.00    -0.001 C 
ATOM      6  C   UNL     1      -8.671  -4.250  -1.358  0.00  0.00    +0.039 C 
ATOM      7  C   UNL     1      -7.212  -4.301  -0.859  0.00  0.00    +0.116 C 
ENDROOT
BRANCH   6   8
ATOM      8  C   UNL     1      -9.515  -3.403  -0.441  0.00  0.00    -0.042 A 
ATOM      9  C   UNL     1      -9.153  -2.094  -0.181  0.00  0.00    +0.004 A 
ATOM     10  C   UNL     1      -9.927  -1.317   0.660  0.00  0.00    +0.001 A 
ATOM     11  C   UNL     1     -11.063  -1.848   1.242  0.00  0.00    +0.012 A 
ATOM     12  C   UNL     1     -11.425  -3.157   0.982  0.00  0.00    +0.055 A 
ATOM     13  C   UNL     1     -10.653  -3.933   0.137  0.00  0.00    +0.016 A 
BRANCH  12  14
ATOM     14  C   UNL     1     -12.663  -3.736   1.616  0.00  0.00    +0.417 C 
ATOM     15  F   UNL     1     -13.273  -2.767   2.420  0.00  0.00    -0.166 F 
ATOM     16  F   UNL     1     -13.554  -4.141   0.616  0.00  0.00    -0.166 F 
ATOM     17  F   UNL     1     -12.312  -4.839   2.402  0.00  0.00    -0.166 F 
ENDBRANCH  12  14
ENDBRANCH   6   8
BRANCH   1  18
ATOM     18  C   UNL     1      -4.560  -3.002  -0.375  0.00  0.00    +0.131 C 
BRANCH  18  22
ATOM     19  C   UNL     1      -0.796  -0.995  -0.637  0.00  0.00    +0.120 A 
ATOM     20  C   UNL     1      -1.957  -0.269  -0.413  0.00  0.00    +0.046 A 
ATOM     21  C   UNL     1      -3.172  -0.920  -0.329  0.00  0.00    +0.007 A 
ATOM     22  C   UNL     1      -3.233  -2.294  -0.468  0.00  0.00    -0.038 A 
ATOM     23  C   UNL     1      -2.078  -3.020  -0.690  0.00  0.00    +0.007 A 
ATOM     24  C   UNL     1      -0.861  -2.373  -0.781  0.00  0.00    +0.046 A 
BRANCH  19  26
ATOM     25  C   UNL     1       0.391   1.063  -0.562  0.00  0.00    +0.277 C 
ATOM     26  O   UNL     1       0.401  -0.357  -0.720  0.00  0.00    -0.495 OA
ENDBRANCH  19  26
ENDBRANCH  18  22
ENDBRANCH   1  18
BRANCH   5  27
ATOM     27  C   UNL     1      -9.556  -4.299  -3.731  0.00  0.00    -0.073 C 
BRANCH  27  28
ATOM     28  N   UNL     1      -9.390  -3.729  -5.075  0.00  0.00    +0.383 N 
ATOM     29  C   UNL     1      -9.837  -2.328  -5.074  0.00  0.00    -0.074 C 
ATOM     30  C   UNL     1      -9.377  -1.669  -6.375  0.00  0.00    +0.017 C 
ATOM     31  C   UNL     1      -9.789  -2.518  -7.551  0.00  0.00    -0.048 A 
ATOM     32  C   UNL     1      -9.781  -1.951  -8.816  0.00  0.00    +0.004 A 
ATOM     33  C   UNL     1     -10.149  -2.700  -9.916  0.00  0.00    +0.000 A 
ATOM     34  C   UNL     1     -10.525  -4.020  -9.756  0.00  0.00    +0.000 A 
ATOM     35  C   UNL     1     -10.534  -4.585  -8.496  0.00  0.00    +0.002 A 
ATOM     36  C   UNL     1     -10.167  -3.834  -7.389  0.00  0.00    -0.061 A 
ATOM     37  C   UNL     1     -10.199  -4.488  -6.033  0.00  0.00    -0.043 C 
ATOM     38  H   UNL     1      -8.418  -3.775  -5.343  0.00  0.00    -0.081 HD
ENDBRANCH  27  28
ENDBRANCH   5  27
TORSDOF 7
