REMARK  Name = ZINC59363499
REMARK  16 active torsions:
REMARK  status: ('A' for Active; 'I' for Inactive)
REMARK    1  A    between atoms: C_1  and  C_2
REMARK    2  A    between atoms: C_3  and  N_14
REMARK    3  A    between atoms: C_4  and  C_13
REMARK    4  A    between atoms: N_5  and  C_7
REMARK    5  A    between atoms: C_15  and  C_17
REMARK    6  A    between atoms: C_17  and  N_18
REMARK    7  A    between atoms: C_22  and  C_25
REMARK    8  A    between atoms: C_25  and  N_26
REMARK    9  A    between atoms: N_26  and  C_27
REMARK   10  A    between atoms: C_27  and  C_28
REMARK   11  A    between atoms: C_27  and  C_29
REMARK   12  A    between atoms: C_30  and  O_32
REMARK   13  A    between atoms: O_32  and  C_33
REMARK   14  A    between atoms: C_33  and  C_34
REMARK   15  A    between atoms: C_33  and  C_35
REMARK   16  A    between atoms: C_33  and  C_36
REMARK                            x       y       z     vdW  Elec       q    Type
REMARK                         _______ _______ _______ _____ _____    ______ ____
ROOT
ATOM      1  N   UNL     1       1.240   2.719  -4.196  0.00  0.00    +0.386 N 
ATOM      2  C   UNL     1       0.625   3.704  -3.298  0.00  0.00    -0.078 C 
ATOM      3  C   UNL     1       1.456   4.989  -3.300  0.00  0.00    -0.018 C 
ATOM      4  C   UNL     1       1.508   5.554  -4.723  0.00  0.00    +0.001 C 
ATOM      5  C   UNL     1       2.082   4.491  -5.663  0.00  0.00    -0.010 C 
ATOM      6  C   UNL     1       1.228   3.224  -5.574  0.00  0.00    -0.073 C 
ATOM      7  H   UNL     1       2.192   2.552  -3.908  0.00  0.00    -0.081 HD
ENDROOT
BRANCH   1   8
ATOM      8  C   UNL     1       0.484   1.461  -4.131  0.00  0.00    +0.019 C 
BRANCH   8  10
ATOM      9  N   UNL     1      -0.020  -0.284  -2.452  0.00  0.00    -0.284 N 
ATOM     10  C   UNL     1       0.597   0.877  -2.746  0.00  0.00    +0.201 C 
ATOM     11  O   UNL     1       1.245   1.452  -1.897  0.00  0.00    -0.278 OA
ATOM     12  H   UNL     1      -0.502  -0.766  -3.142  0.00  0.00    +0.155 HD
BRANCH   9  15
ATOM     13  C   UNL     1      -1.066   1.208   0.074  0.00  0.00    +0.069 C 
ATOM     14  C   UNL     1      -0.426  -0.155   0.017  0.00  0.00    +0.082 A 
ATOM     15  C   UNL     1       0.034  -0.797  -1.142  0.00  0.00    +0.078 A 
ATOM     16  C   UNL     1       0.541  -2.003  -0.777  0.00  0.00    +0.063 A 
ATOM     17  N   UNL     1       0.403  -2.113   0.573  0.00  0.00    -0.235 N 
ATOM     18  N   UNL     1      -0.201  -0.939   1.040  0.00  0.00    -0.170 NA
ATOM     19  C   UNL     1       1.146  -3.031  -1.697  0.00  0.00    +0.068 C 
BRANCH  17  20
ATOM     20  C   UNL     1       0.798  -3.206   1.356  0.00  0.00    +0.066 A 
ATOM     21  C   UNL     1       2.040  -3.794   1.153  0.00  0.00    +0.028 A 
ATOM     22  C   UNL     1       2.427  -4.871   1.927  0.00  0.00    +0.002 A 
ATOM     23  C   UNL     1       1.580  -5.363   2.902  0.00  0.00    +0.000 A 
ATOM     24  C   UNL     1       0.343  -4.780   3.106  0.00  0.00    +0.002 A 
ATOM     25  C   UNL     1      -0.048  -3.699   2.340  0.00  0.00    +0.028 A 
ENDBRANCH  17  20
ENDBRANCH   9  15
ENDBRANCH   8  10
ENDBRANCH   1   8
BRANCH   5  26
ATOM     26  C   UNL     1       2.067   5.018  -7.100  0.00  0.00    +0.113 C 
BRANCH  26  27
ATOM     27  N   UNL     1       2.974   6.163  -7.210  0.00  0.00    -0.265 N 
ATOM     28  C   UNL     1       2.515   7.410  -6.987  0.00  0.00    +0.404 C 
ATOM     29  O   UNL     1       1.349   7.585  -6.694  0.00  0.00    -0.226 OA
BRANCH  27  30
ATOM     30  C   UNL     1       4.380   5.951  -7.562  0.00  0.00    +0.073 C 
ATOM     31  C   UNL     1       4.700   6.700  -8.858  0.00  0.00    +0.028 C 
ATOM     32  C   UNL     1       5.273   6.478  -6.436  0.00  0.00    +0.028 C 
ENDBRANCH  27  30
BRANCH  28  33
ATOM     33  O   UNL     1       3.350   8.462  -7.088  0.00  0.00    -0.445 OA
BRANCH  33  34
ATOM     34  C   UNL     1       2.796   9.755  -6.838  0.00  0.00    +0.107 C 
ATOM     35  C   UNL     1       2.241   9.806  -5.413  0.00  0.00    +0.055 C 
ATOM     36  C   UNL     1       3.886  10.817  -6.999  0.00  0.00    +0.055 C 
ATOM     37  C   UNL     1       1.667  10.028  -7.835  0.00  0.00    +0.055 C 
ENDBRANCH  33  34
ENDBRANCH  28  33
ENDBRANCH  26  27
ENDBRANCH   5  26
TORSDOF 9
