REMARK  Name = ZINC55029237
REMARK  10 active torsions:
REMARK  status: ('A' for Active; 'I' for Inactive)
REMARK    1  A    between atoms: C_1  and  C_2
REMARK    2  A    between atoms: C_2  and  C_3
REMARK    3  A    between atoms: C_3  and  C_4
REMARK    4  A    between atoms: C_3  and  C_5
REMARK    5  A    between atoms: C_3  and  N_6
REMARK    6  A    between atoms: C_7  and  C_9
REMARK    7  A    between atoms: C_9  and  C_11
REMARK    8  A    between atoms: C_9  and  N_12
REMARK    9  A    between atoms: C_15  and  N_18
REMARK   10  A    between atoms: N_21  and  C_22
REMARK                            x       y       z     vdW  Elec       q    Type
REMARK                         _______ _______ _______ _____ _____    ______ ____
ROOT
ATOM      1  N   UNL     1       2.196  -4.639   3.351  0.00  0.00    +0.387 N 
ATOM      2  C   UNL     1       1.556  -4.258   4.615  0.00  0.00    -0.076 C 
ATOM      3  C   UNL     1       2.438  -4.689   5.789  0.00  0.00    +0.004 C 
ATOM      4  C   UNL     1       2.626  -6.209   5.747  0.00  0.00    +0.071 C 
ATOM      5  C   UNL     1       3.226  -6.602   4.395  0.00  0.00    +0.004 C 
ATOM      6  C   UNL     1       2.315  -6.100   3.273  0.00  0.00    -0.076 C 
ATOM      7  H   UNL     1       3.115  -4.225   3.304  0.00  0.00    -0.081 HD
ENDROOT
BRANCH   4   8
ATOM      8  N   UNL     1       3.531  -6.620   6.824  0.00  0.00    -0.297 N 
ATOM      9  C   UNL     1       3.467  -7.873   7.315  0.00  0.00    +0.300 C 
ATOM     10  O   UNL     1       2.659  -8.662   6.866  0.00  0.00    -0.253 OA
ATOM     11  N   UNL     1       4.300  -8.251   8.305  0.00  0.00    -0.297 N 
ATOM     12  H   UNL     1       4.176  -5.990   7.182  0.00  0.00    +0.151 HD
ATOM     13  H   UNL     1       4.945  -7.622   8.664  0.00  0.00    +0.151 HD
BRANCH  11  14
ATOM     14  C   UNL     1       4.231  -9.614   8.840  0.00  0.00    +0.074 C 
ATOM     15  C   UNL     1       5.077 -10.546   7.971  0.00  0.00    +0.022 C 
ATOM     16  C   UNL     1       5.006 -11.969   8.529  0.00  0.00    +0.002 C 
ATOM     17  C   UNL     1       5.541 -11.982   9.962  0.00  0.00    +0.000 C 
ATOM     18  C   UNL     1       4.695 -11.050  10.831  0.00  0.00    +0.002 C 
ATOM     19  C   UNL     1       4.767  -9.627  10.273  0.00  0.00    +0.022 C 
ENDBRANCH  11  14
ENDBRANCH   4   8
BRANCH   1  20
ATOM     20  C   UNL     1       1.385  -4.154   2.227  0.00  0.00    +0.016 C 
ATOM     21  C   UNL     1       2.025  -4.593   0.908  0.00  0.00    -0.004 C 
BRANCH  20  23
ATOM     22  N   UNL     1       0.250  -2.010   1.742  0.00  0.00    -0.312 N 
ATOM     23  C   UNL     1       1.311  -2.649   2.272  0.00  0.00    +0.200 C 
ATOM     24  O   UNL     1       2.207  -2.014   2.786  0.00  0.00    -0.278 OA
ATOM     25  H   UNL     1      -0.467  -2.519   1.331  0.00  0.00    +0.149 HD
BRANCH  22  26
ATOM     26  C   UNL     1       0.178  -0.548   1.787  0.00  0.00    +0.029 C 
ATOM     27  C   UNL     1       1.376   0.044   1.042  0.00  0.00    +0.031 C 
ATOM     28  C   UNL     1       0.201  -0.080   3.243  0.00  0.00    +0.031 C 
BRANCH  26  30
ATOM     29  C   UNL     1      -1.193   1.448   1.168  0.00  0.00    +0.006 C 
ATOM     30  C   UNL     1      -1.118  -0.080   1.121  0.00  0.00    +0.022 C 
ENDBRANCH  26  30
ENDBRANCH  22  26
ENDBRANCH  20  23
ENDBRANCH   1  20
TORSDOF 6
