REMARK  Name = ZINC20752321
REMARK  10 active torsions:
REMARK  status: ('A' for Active; 'I' for Inactive)
REMARK    1  A    between atoms: C_1  and  C_2
REMARK    2  A    between atoms: C_5  and  C_16
REMARK    3  A    between atoms: N_8  and  C_10
REMARK    4  A    between atoms: C_16  and  O_18
REMARK    5  A    between atoms: O_18  and  C_19
REMARK    6  A    between atoms: C_19  and  C_21
REMARK    7  A    between atoms: C_19  and  C_22
REMARK    8  A    between atoms: N_24  and  C_25
REMARK    9  A    between atoms: C_29  and  C_31
REMARK   10  A    between atoms: C_31  and  C_33
REMARK                            x       y       z     vdW  Elec       q    Type
REMARK                         _______ _______ _______ _____ _____    ______ ____
ROOT
ATOM      1  C   UNL     1      -5.886   1.555  -0.971  0.00  0.00    +0.347 C 
ATOM      2  O   UNL     1      -5.925   2.659  -1.479  0.00  0.00    -0.244 OA
ENDROOT
BRANCH   1   7
ATOM      3  C   UNL     1     -11.295   0.574  -3.111  0.00  0.00    +0.068 C 
ATOM      4  C   UNL     1     -10.489  -0.403  -2.294  0.00  0.00    +0.069 A 
ATOM      5  C   UNL     1      -9.174  -0.165  -1.774  0.00  0.00    +0.031 A 
ATOM      6  C   UNL     1      -8.206   0.850  -1.757  0.00  0.00    +0.034 A 
ATOM      7  C   UNL     1      -7.023   0.644  -1.110  0.00  0.00    +0.099 A 
ATOM      8  S   UNL     1      -7.212  -1.010  -0.467  0.00  0.00    -0.062 S 
ATOM      9  C   UNL     1      -8.838  -1.345  -1.092  0.00  0.00    +0.113 A 
ATOM     10  N   UNL     1      -9.867  -2.211  -1.197  0.00  0.00    -0.225 N 
ATOM     11  N   UNL     1     -10.874  -1.594  -1.950  0.00  0.00    -0.170 NA
BRANCH  10  12
ATOM     12  C   UNL     1      -9.918  -3.500  -0.650  0.00  0.00    +0.067 A 
ATOM     13  C   UNL     1      -8.768  -4.275  -0.588  0.00  0.00    +0.028 A 
ATOM     14  C   UNL     1      -8.821  -5.543  -0.043  0.00  0.00    +0.002 A 
ATOM     15  C   UNL     1     -10.020  -6.045   0.429  0.00  0.00    +0.000 A 
ATOM     16  C   UNL     1     -11.168  -5.278   0.363  0.00  0.00    +0.002 A 
ATOM     17  C   UNL     1     -11.120  -4.007  -0.175  0.00  0.00    +0.028 A 
ENDBRANCH  10  12
ENDBRANCH   1   7
BRANCH   1  18
ATOM     18  O   UNL     1      -4.793   1.169  -0.281  0.00  0.00    -0.448 OA
BRANCH  18  19
ATOM     19  C   UNL     1      -3.703   2.124  -0.184  0.00  0.00    +0.259 C 
ATOM     20  C   UNL     1      -3.896   2.994   1.059  0.00  0.00    +0.062 C 
BRANCH  19  21
ATOM     21  C   UNL     1      -2.394   1.383  -0.081  0.00  0.00    +0.258 C 
ATOM     22  O   UNL     1      -2.382   0.171  -0.088  0.00  0.00    -0.271 OA
ATOM     23  N   UNL     1      -1.238   2.069   0.019  0.00  0.00    -0.282 N 
ATOM     24  H   UNL     1      -1.255   3.166   0.102  0.00  0.00    +0.155 HD
BRANCH  23  25
ATOM     25  C   UNL     1      -0.017   1.385   0.018  0.00  0.00    +0.034 A 
ATOM     26  C   UNL     1       1.097   1.955  -0.588  0.00  0.00    +0.023 A 
ATOM     27  C   UNL     1       2.308   1.288  -0.587  0.00  0.00    +0.002 A 
ATOM     28  C   UNL     1       2.420   0.051   0.014  0.00  0.00    +0.011 A 
ATOM     29  C   UNL     1       1.306  -0.532   0.625  0.00  0.00    +0.019 A 
ATOM     30  C   UNL     1       0.082   0.144   0.625  0.00  0.00    +0.034 A 
BRANCH  29  31
ATOM     31  C   UNL     1       1.421  -1.851   1.267  0.00  0.00    +0.160 C 
ATOM     32  O   UNL     1       0.453  -2.354   1.797  0.00  0.00    -0.292 OA
ATOM     33  C   UNL     1       2.741  -2.577   1.266  0.00  0.00    +0.091 C 
ENDBRANCH  29  31
ENDBRANCH  23  25
ENDBRANCH  19  21
ENDBRANCH  18  19
ENDBRANCH   1  18
TORSDOF 7
