REMARK  Name = ZINC09256415
REMARK  11 active torsions:
REMARK  status: ('A' for Active; 'I' for Inactive)
REMARK    1  A    between atoms: C_1  and  C_2
REMARK    2  A    between atoms: C_2  and  C_3
REMARK    3  A    between atoms: C_3  and  N_57
REMARK    4  A    between atoms: C_4  and  C_5
REMARK    5  A    between atoms: C_4  and  N_57
REMARK    6  A    between atoms: C_8  and  C_10
REMARK    7  A    between atoms: C_15  and  C_16
REMARK    8  A    between atoms: C_15  and  N_57
REMARK    9  A    between atoms: N_18  and  C_19
REMARK   10  A    between atoms: C_24  and  C_25
REMARK   11  A    between atoms: C_25  and  C_27
REMARK                            x       y       z     vdW  Elec       q    Type
REMARK                         _______ _______ _______ _____ _____    ______ ____
ROOT
ATOM      1  C   UNL     1      -2.576   1.505   0.511  0.00  0.00    +0.201 C 
ATOM      2  O   UNL     1      -2.690   0.337   0.208  0.00  0.00    -0.278 OA
ATOM      3  N   UNL     1      -1.362   2.092   0.487  0.00  0.00    -0.286 N 
ATOM      4  H   UNL     1      -1.281   3.045   0.652  0.00  0.00    +0.155 HD
ENDROOT
BRANCH   3   5
ATOM      5  C   UNL     1      -0.226   1.331   0.228  0.00  0.00    +0.044 A 
ATOM      6  C   UNL     1      -0.256  -0.047   0.394  0.00  0.00    +0.024 A 
ATOM      7  C   UNL     1       0.870  -0.801   0.131  0.00  0.00    +0.002 A 
ATOM      8  C   UNL     1       2.037  -0.191  -0.301  0.00  0.00    +0.001 A 
ATOM      9  C   UNL     1       2.087   1.175  -0.473  0.00  0.00    +0.013 A 
ATOM     10  C   UNL     1       0.955   1.952  -0.210  0.00  0.00    +0.043 A 
BRANCH  10  11
ATOM     11  C   UNL     1       1.000   3.414  -0.391  0.00  0.00    +0.195 C 
ATOM     12  O   UNL     1       1.550   4.113   0.439  0.00  0.00    -0.287 OA
BRANCH  11  13
ATOM     13  C   UNL     1       0.379   4.030  -1.582  0.00  0.00    +0.022 A 
ATOM     14  C   UNL     1      -0.297   3.236  -2.511  0.00  0.00    +0.012 A 
ATOM     15  C   UNL     1      -0.881   3.819  -3.616  0.00  0.00    +0.001 A 
ATOM     16  C   UNL     1      -0.787   5.186  -3.812  0.00  0.00    +0.000 A 
ATOM     17  C   UNL     1      -0.114   5.978  -2.899  0.00  0.00    +0.001 A 
ATOM     18  C   UNL     1       0.469   5.409  -1.786  0.00  0.00    +0.012 A 
ENDBRANCH  11  13
ENDBRANCH  10  11
ENDBRANCH   3   5
BRANCH   1  19
ATOM     19  C   UNL     1      -3.790   2.302   0.913  0.00  0.00    +0.020 C 
BRANCH  19  20
ATOM     20  N   UNL     1      -4.954   1.393   0.971  0.00  0.00    +0.391 N 
ATOM     21  H   UNL     1      -4.920   0.755   0.167  0.00  0.00    -0.080 HD
BRANCH  20  22
ATOM     22  C   UNL     1      -6.208   2.174   0.911  0.00  0.00    -0.078 C 
BRANCH  22  24
ATOM     23  C   UNL     1      -7.705   3.473  -0.611  0.00  0.00    +0.002 C 
ATOM     24  C   UNL     1      -6.455   2.592  -0.540  0.00  0.00    -0.022 C 
ENDBRANCH  22  24
ENDBRANCH  20  22
BRANCH  20  25
ATOM     25  C   UNL     1      -4.914   0.599   2.216  0.00  0.00    +0.021 C 
BRANCH  25  26
ATOM     26  C   UNL     1      -5.978  -0.466   2.149  0.00  0.00    +0.202 A 
ATOM     27  N   UNL     1      -5.839  -1.662   1.651  0.00  0.00    -0.114 NA
ATOM     28  N   UNL     1      -6.947  -2.307   1.760  0.00  0.00    -0.107 NA
ATOM     29  C   UNL     1      -7.844  -1.532   2.330  0.00  0.00    +0.255 A 
ATOM     30  O   UNL     1      -7.245  -0.351   2.586  0.00  0.00    -0.422 OA
BRANCH  29  31
ATOM     31  C   UNL     1      -9.239  -1.887   2.631  0.00  0.00    +0.076 A 
ATOM     32  C   UNL     1      -9.908  -3.072   2.389  0.00  0.00    +0.021 A 
ATOM     33  C   UNL     1     -11.227  -3.169   2.770  0.00  0.00    +0.008 A 
ATOM     34  C   UNL     1     -11.829  -2.102   3.357  0.00  0.00    +0.046 A 
ATOM     35  S   UNL     1     -10.512  -0.898   3.399  0.00  0.00    -0.092 S 
ENDBRANCH  29  31
ENDBRANCH  25  26
ENDBRANCH  20  25
ENDBRANCH  19  20
ENDBRANCH   1  19
TORSDOF 10
