REMARK  Name = ZINC12561891
REMARK  4 active torsions:
REMARK  status: ('A' for Active; 'I' for Inactive)
REMARK    1  A    between atoms: C_12  and  C_31
REMARK    2  A    between atoms: C_15  and  C_18
REMARK    3  A    between atoms: C_21  and  O_24
REMARK    4  A    between atoms: C_34  and  O_37
REMARK                            x       y       z     vdW  Elec       q    Type
REMARK                         _______ _______ _______ _____ _____    ______ ____
ROOT
ATOM      1  C   UNL     1      -5.807  -4.016  -1.246  0.00  0.00    +0.001 A 
ATOM      2  C   UNL     1      -6.909  -3.202  -1.466  0.00  0.00    +0.004 A 
ATOM      3  C   UNL     1      -6.846  -1.849  -1.203  0.00  0.00    +0.047 A 
ATOM      4  C   UNL     1      -5.671  -1.291  -0.716  0.00  0.00    +0.143 A 
ATOM      5  C   UNL     1      -4.557  -2.115  -0.493  0.00  0.00    +0.060 A 
ATOM      6  C   UNL     1      -4.633  -3.483  -0.762  0.00  0.00    +0.015 A 
ATOM      7  C   UNL     1      -3.320  -1.510   0.025  0.00  0.00    +0.146 A 
ATOM      8  C   UNL     1      -3.310  -0.170   0.271  0.00  0.00    +0.104 A 
ATOM      9  C   UNL     1      -4.465   0.590   0.019  0.00  0.00    +0.346 A 
ATOM     10  O   UNL     1      -4.445   1.789   0.236  0.00  0.00    -0.245 OA
ATOM     11  O   UNL     1      -5.590   0.031  -0.455  0.00  0.00    -0.422 OA
ATOM     12  C   UNL     1      -2.076   0.506   0.812  0.00  0.00    +0.150 C 
ATOM     13  N   UNL     1      -0.908  -0.362   0.606  0.00  0.00    -0.265 N 
ATOM     14  C   UNL     1      -1.202  -1.728   1.073  0.00  0.00    +0.296 C 
ATOM     15  O   UNL     1      -2.232  -2.277   0.246  0.00  0.00    -0.465 OA
ATOM     16  C   UNL     1       0.213   0.152   1.246  0.00  0.00    +0.125 A 
ATOM     17  C   UNL     1       0.217   0.285   2.631  0.00  0.00    +0.044 A 
ATOM     18  C   UNL     1       1.340   0.797   3.255  0.00  0.00    +0.005 A 
ATOM     19  C   UNL     1       2.426   1.162   2.470  0.00  0.00    +0.020 A 
ATOM     20  C   UNL     1       2.354   1.004   1.100  0.00  0.00    +0.113 A 
ATOM     21  N   UNL     1       1.269   0.511   0.532  0.00  0.00    -0.240 NA
ENDROOT
BRANCH  14  22
ATOM     22  C   UNL     1       0.038  -2.577   0.969  0.00  0.00    +0.012 A 
ATOM     23  C   UNL     1       0.683  -2.711  -0.247  0.00  0.00    +0.012 A 
ATOM     24  C   UNL     1       1.823  -3.484  -0.344  0.00  0.00    +0.046 A 
ATOM     25  C   UNL     1       2.316  -4.135   0.777  0.00  0.00    +0.117 A 
ATOM     26  C   UNL     1       1.664  -4.004   1.995  0.00  0.00    +0.046 A 
ATOM     27  C   UNL     1       0.527  -3.225   2.088  0.00  0.00    +0.012 A 
BRANCH  25  28
ATOM     28  O   UNL     1       3.435  -4.901   0.683  0.00  0.00    -0.507 OA
ATOM     29  H   UNL     1       3.825  -5.417   1.573  0.00  0.00    +0.292 HD
ENDBRANCH  25  28
ENDBRANCH  14  22
BRANCH  12  30
ATOM     30  C   UNL     1      -1.863   1.813   0.093  0.00  0.00    -0.022 A 
ATOM     31  C   UNL     1      -1.270   1.825  -1.156  0.00  0.00    +0.009 A 
ATOM     32  C   UNL     1      -1.079   3.021  -1.820  0.00  0.00    +0.046 A 
ATOM     33  C   UNL     1      -1.472   4.212  -1.228  0.00  0.00    +0.117 A 
ATOM     34  C   UNL     1      -2.061   4.198   0.028  0.00  0.00    +0.046 A 
ATOM     35  C   UNL     1      -2.256   2.999   0.685  0.00  0.00    +0.009 A 
BRANCH  33  36
ATOM     36  O   UNL     1      -1.280   5.391  -1.876  0.00  0.00    -0.507 OA
ATOM     37  H   UNL     1      -1.592   6.335  -1.406  0.00  0.00    +0.292 HD
ENDBRANCH  33  36
ENDBRANCH  12  30
TORSDOF 4
