REMARK  Name = ZINC36725952
REMARK  7 active torsions:
REMARK  status: ('A' for Active; 'I' for Inactive)
REMARK    1  A    between atoms: C_1  and  C_2
REMARK    2  A    between atoms: C_2  and  C_4
REMARK    3  A    between atoms: C_2  and  N_14
REMARK    4  A    between atoms: C_15  and  C_17
REMARK    5  A    between atoms: C_17  and  C_18
REMARK    6  A    between atoms: C_21  and  S_24
REMARK    7  A    between atoms: S_24  and  N_27
REMARK                            x       y       z     vdW  Elec       q    Type
REMARK                         _______ _______ _______ _____ _____    ______ ____
ROOT
ATOM      1  N   UNL     1       0.711  -0.489   1.189  0.00  0.00    -0.312 N 
ATOM      2  C   UNL     1       2.054  -0.600   1.174  0.00  0.00    +0.218 C 
ATOM      3  O   UNL     1       2.676  -0.297   0.177  0.00  0.00    -0.275 OA
ATOM      4  H   UNL     1       0.213  -0.731   1.986  0.00  0.00    +0.149 HD
ENDROOT
BRANCH   1   6
ATOM      5  C   UNL     1      -0.019   1.526   0.010  0.00  0.00    +0.028 C 
ATOM      6  C   UNL     1       0.002  -0.004   0.002  0.00  0.00    +0.076 C 
BRANCH   6   7
ATOM      7  C   UNL     1      -1.433  -0.534   0.013  0.00  0.00    -0.010 C 
ATOM      8  C   UNL     1      -2.149  -0.040   1.272  0.00  0.00    +0.012 C 
ATOM      9  C   UNL     1      -3.585  -0.570   1.282  0.00  0.00    -0.010 C 
ATOM     10  C   UNL     1      -4.325  -0.063   0.043  0.00  0.00    +0.007 C 
ATOM     11  C   UNL     1      -3.609  -0.556  -1.216  0.00  0.00    -0.010 C 
ATOM     12  C   UNL     1      -2.173  -0.027  -1.227  0.00  0.00    +0.012 C 
ATOM     13  C   UNL     1      -3.588  -2.086  -1.224  0.00  0.00    +0.007 C 
ATOM     14  C   UNL     1      -2.848  -2.593   0.015  0.00  0.00    -0.010 C 
ATOM     15  C   UNL     1      -3.564  -2.100   1.274  0.00  0.00    +0.007 C 
ATOM     16  C   UNL     1      -1.413  -2.063   0.004  0.00  0.00    +0.012 C 
ENDBRANCH   6   7
ENDBRANCH   1   6
BRANCH   2  17
ATOM     17  C   UNL     1       2.783  -1.099   2.395  0.00  0.00    +0.130 C 
BRANCH  17  18
ATOM     18  C   UNL     1       4.264  -1.128   2.119  0.00  0.00    -0.039 A 
ATOM     19  C   UNL     1       4.845  -2.263   1.585  0.00  0.00    +0.006 A 
ATOM     20  C   UNL     1       6.204  -2.290   1.332  0.00  0.00    +0.029 A 
ATOM     21  C   UNL     1       6.981  -1.181   1.611  0.00  0.00    +0.105 A 
ATOM     22  C   UNL     1       6.399  -0.046   2.144  0.00  0.00    +0.029 A 
ATOM     23  C   UNL     1       5.040  -0.018   2.393  0.00  0.00    +0.006 A 
BRANCH  21  24
ATOM     24  S   UNL     1       8.713  -1.216   1.290  0.00  0.00    +0.061 S 
ATOM     25  O   UNL     1       9.305  -0.248   2.146  0.00  0.00    -0.153 OA
ATOM     26  O   UNL     1       9.101  -2.583   1.302  0.00  0.00    -0.153 OA
BRANCH  24  27
ATOM     27  N   UNL     1       8.934  -0.674  -0.260  0.00  0.00    -0.177 NA
ATOM     28  C   UNL     1       8.925  -1.614  -1.389  0.00  0.00    +0.109 C 
ATOM     29  C   UNL     1       7.906  -1.129  -2.425  0.00  0.00    +0.017 C 
ATOM     30  C   UNL     1       8.226   0.317  -2.812  0.00  0.00    +0.003 C 
ATOM     31  C   UNL     1       8.122   1.213  -1.576  0.00  0.00    +0.017 C 
ATOM     32  C   UNL     1       9.137   0.755  -0.531  0.00  0.00    +0.109 C 
ENDBRANCH  24  27
ENDBRANCH  21  24
ENDBRANCH  17  18
ENDBRANCH   2  17
TORSDOF 6
