REMARK  Name = ZINC39939537
REMARK  8 active torsions:
REMARK  status: ('A' for Active; 'I' for Inactive)
REMARK    1  A    between atoms: C_1  and  C_2
REMARK    2  A    between atoms: C_4  and  C_12
REMARK    3  A    between atoms: C_12  and  C_14
REMARK    4  A    between atoms: C_14  and  C_16
REMARK    5  A    between atoms: C_14  and  O_17
REMARK    6  A    between atoms: O_17  and  C_18
REMARK    7  A    between atoms: C_23  and  C_24
REMARK    8  A    between atoms: N_26  and  C_27
REMARK                            x       y       z     vdW  Elec       q    Type
REMARK                         _______ _______ _______ _____ _____    ______ ____
ROOT
ATOM      1  O   UNL     1      -4.681   0.141  -1.426  0.00  0.00    -0.481 OA
ENDROOT
BRANCH   1   2
ATOM      2  C   UNL     1      -5.986  -0.054  -1.111  0.00  0.00    +0.134 A 
ATOM      3  C   UNL     1      -6.333  -0.587   0.122  0.00  0.00    +0.046 A 
ATOM      4  C   UNL     1      -7.662  -0.784   0.441  0.00  0.00    +0.004 A 
ATOM      5  C   UNL     1      -8.657  -0.454  -0.465  0.00  0.00    +0.001 A 
ATOM      6  C   UNL     1      -8.330   0.075  -1.695  0.00  0.00    +0.017 A 
ATOM      7  C   UNL     1      -6.990   0.286  -2.028  0.00  0.00    +0.079 A 
BRANCH   7   8
ATOM      8  C   UNL     1      -6.633   0.859  -3.340  0.00  0.00    +0.252 C 
ATOM      9  O   UNL     1      -5.465   1.036  -3.628  0.00  0.00    -0.270 OA
ATOM     10  N   UNL     1      -7.601   1.185  -4.219  0.00  0.00    -0.281 N 
ATOM     11  H   UNL     1      -8.534   1.115  -3.961  0.00  0.00    +0.155 HD
BRANCH  10  12
ATOM     12  C   UNL     1      -7.262   1.625  -5.502  0.00  0.00    +0.034 A 
ATOM     13  C   UNL     1      -8.053   2.567  -6.147  0.00  0.00    +0.023 A 
ATOM     14  C   UNL     1      -7.715   2.999  -7.415  0.00  0.00    +0.002 A 
ATOM     15  C   UNL     1      -6.590   2.494  -8.042  0.00  0.00    +0.000 A 
ATOM     16  C   UNL     1      -5.801   1.555  -7.402  0.00  0.00    +0.002 A 
ATOM     17  C   UNL     1      -6.130   1.124  -6.132  0.00  0.00    +0.023 A 
ENDBRANCH  10  12
ENDBRANCH   7   8
ENDBRANCH   1   2
BRANCH   1  18
ATOM     18  C   UNL     1      -3.721  -0.108  -0.397  0.00  0.00    +0.241 C 
ATOM     19  C   UNL     1      -3.377  -1.599  -0.371  0.00  0.00    +0.060 C 
BRANCH  18  20
ATOM     20  C   UNL     1      -2.473   0.691  -0.670  0.00  0.00    +0.202 C 
ATOM     21  O   UNL     1      -2.295   1.184  -1.765  0.00  0.00    -0.288 OA
BRANCH  20  24
ATOM     22  C   UNL     1      -0.485   3.102  -0.070  0.00  0.00    +0.035 C 
ATOM     23  C   UNL     1      -0.209   1.632   0.254  0.00  0.00    +0.111 C 
ATOM     24  C   UNL     1      -1.511   0.867   0.348  0.00  0.00    +0.030 C 
ATOM     25  C   UNL     1      -1.561   0.374   1.639  0.00  0.00    +0.007 A 
ATOM     26  C   UNL     1      -2.511  -0.409   2.335  0.00  0.00    +0.010 A 
ATOM     27  C   UNL     1      -2.299  -0.752   3.625  0.00  0.00    +0.001 A 
ATOM     28  C   UNL     1      -1.150  -0.359   4.330  0.00  0.00    +0.002 A 
ATOM     29  C   UNL     1      -0.181   0.390   3.759  0.00  0.00    +0.026 A 
ATOM     30  C   UNL     1      -0.335   0.806   2.355  0.00  0.00    +0.043 A 
ATOM     31  N   UNL     1       0.427   1.516   1.570  0.00  0.00    -0.377 N 
ATOM     32  H   UNL     1       1.280   1.906   1.816  0.00  0.00    +0.160 HD
ENDBRANCH  20  24
ENDBRANCH  18  20
ENDBRANCH   1  18
TORSDOF 6
