REMARK  Name = ZINC33049038
REMARK  5 active torsions:
REMARK  status: ('A' for Active; 'I' for Inactive)
REMARK    1  A    between atoms: C_1  and  C_2
REMARK    2  A    between atoms: C_5  and  C_7
REMARK    3  A    between atoms: C_8  and  C_12
REMARK    4  A    between atoms: N_14  and  C_15
REMARK    5  A    between atoms: C_20  and  C_21
REMARK                            x       y       z     vdW  Elec       q    Type
REMARK                         _______ _______ _______ _____ _____    ______ ____
ROOT
ATOM      1  C   UNL     1      -2.247  -1.430   4.009  0.00  0.00    +0.270 C 
ATOM      2  O   UNL     1      -1.647  -1.313   2.956  0.00  0.00    -0.268 OA
ATOM      3  N   UNL     1      -2.509  -2.656   4.502  0.00  0.00    -0.280 N 
ATOM      4  H   UNL     1      -2.970  -2.763   5.496  0.00  0.00    +0.155 HD
ENDROOT
BRANCH   3   5
ATOM      5  C   UNL     1      -2.195  -3.794   3.752  0.00  0.00    +0.037 A 
ATOM      6  C   UNL     1      -2.112  -3.713   2.367  0.00  0.00    +0.025 A 
ATOM      7  C   UNL     1      -1.802  -4.838   1.629  0.00  0.00    +0.022 A 
ATOM      8  C   UNL     1      -1.574  -6.045   2.266  0.00  0.00    +0.041 A 
ATOM      9  C   UNL     1      -1.656  -6.128   3.645  0.00  0.00    +0.025 A 
ATOM     10  C   UNL     1      -1.961  -5.005   4.389  0.00  0.00    -0.028 A 
ATOM     11  C   UNL     1      -2.045  -5.096   5.891  0.00  0.00    +0.046 C 
ATOM     12 CL   UNL     1      -1.185  -7.457   1.335  0.00  0.00    -0.084 Cl
ENDBRANCH   3   5
BRANCH   1  14
ATOM     13  C   UNL     1      -2.490   1.089   4.361  0.00  0.00    +0.202 A 
ATOM     14  C   UNL     1      -2.685  -0.235   4.740  0.00  0.00    +0.175 A 
ATOM     15  N   UNL     1      -3.359  -0.208   5.921  0.00  0.00    -0.211 NA
ATOM     16  C   UNL     1      -3.570   1.030   6.254  0.00  0.00    +0.309 A 
ATOM     17  O   UNL     1      -3.048   1.847   5.328  0.00  0.00    -0.439 OA
BRANCH  13  22
ATOM     18  C   UNL     1      -0.002   1.087   0.015  0.00  0.00    +0.086 C 
ATOM     19  C   UNL     1      -0.718   1.573   1.249  0.00  0.00    +0.103 A 
ATOM     20  C   UNL     1      -0.923   2.865   1.581  0.00  0.00    +0.045 A 
ATOM     21  C   UNL     1      -1.626   2.872   2.799  0.00  0.00    +0.053 A 
ATOM     22  C   UNL     1      -1.808   1.566   3.155  0.00  0.00    +0.172 A 
ATOM     23  O   UNL     1      -1.250   0.792   2.202  0.00  0.00    -0.457 OA
ENDBRANCH  13  22
ENDBRANCH   1  14
TORSDOF 3
