REMARK  Name = ZINC03933046
REMARK  4 active torsions:
REMARK  status: ('A' for Active; 'I' for Inactive)
REMARK    1  A    between atoms: C_9  and  N_11
REMARK    2  A    between atoms: C_12  and  C_22
REMARK    3  A    between atoms: C_13  and  C_16
REMARK    4  A    between atoms: C_16  and  N_18
REMARK                            x       y       z     vdW  Elec       q    Type
REMARK                         _______ _______ _______ _____ _____    ______ ____
ROOT
ATOM      1  N   UNL     1       1.137  -2.119  -0.207  0.00  0.00    -0.235 N 
ATOM      2  C   UNL     1       0.059  -2.870   0.090  0.00  0.00    +0.060 A 
ATOM      3  C   UNL     1       0.471  -4.185   0.126  0.00  0.00    +0.080 A 
ATOM      4  C   UNL     1       1.853  -4.199  -0.163  0.00  0.00    +0.148 A 
ATOM      5  N   UNL     1       2.238  -2.969  -0.364  0.00  0.00    -0.174 NA
ENDROOT
BRANCH   1  14
ATOM      6  C   UNL     1       0.225   1.291  -1.266  0.00  0.00    +0.004 A 
ATOM      7  C   UNL     1       1.155   2.056  -0.630  0.00  0.00    +0.028 A 
ATOM      8  C   UNL     1       2.128   1.450   0.182  0.00  0.00    +0.073 A 
ATOM      9  C   UNL     1       2.127   0.041   0.329  0.00  0.00    +0.026 A 
ATOM     10  C   UNL     1       3.102  -0.561   1.143  0.00  0.00    +0.013 A 
ATOM     11  C   UNL     1       4.015   0.246   1.761  0.00  0.00    +0.020 A 
ATOM     12  C   UNL     1       3.962   1.625   1.575  0.00  0.00    +0.111 A 
ATOM     13  N   UNL     1       3.051   2.183   0.815  0.00  0.00    -0.255 NA
ATOM     14  C   UNL     1       1.153  -0.727  -0.340  0.00  0.00    +0.075 A 
ATOM     15  C   UNL     1       0.215  -0.093  -1.128  0.00  0.00    +0.028 A 
ENDBRANCH   1  14
BRANCH   2  16
ATOM     16  C   UNL     1      -1.339  -2.365   0.336  0.00  0.00    +0.039 C 
ATOM     17  C   UNL     1      -1.504  -1.175   1.284  0.00  0.00    +0.010 C 
ATOM     18  C   UNL     1      -1.930  -2.575   1.732  0.00  0.00    +0.010 C 
ENDBRANCH   2  16
BRANCH   3  19
ATOM     19  C   UNL     1      -0.376  -5.361   0.414  0.00  0.00    +0.273 C 
ATOM     20  O   UNL     1      -1.580  -5.226   0.549  0.00  0.00    -0.268 OA
BRANCH  19  21
ATOM     21  N   UNL     1       0.179  -6.576   0.527  0.00  0.00    -0.143 NA
ATOM     22  C   UNL     1      -0.284  -7.585  -0.194  0.00  0.00    +0.185 C 
ATOM     23  N   UNL     1      -1.245  -7.365  -1.137  0.00  0.00    -0.372 N 
ATOM     24  N   UNL     1       0.201  -8.845   0.005  0.00  0.00    -0.372 N 
ATOM     25  H   UNL     1      -0.139  -9.584  -0.523  0.00  0.00    +0.159 HD
ATOM     26  H   UNL     1      -1.529  -6.460  -1.338  0.00  0.00    +0.159 HD
ATOM     27  H   UNL     1       0.884  -9.001   0.676  0.00  0.00    +0.159 HD
ATOM     28  H   UNL     1      -1.644  -8.115  -1.606  0.00  0.00    +0.159 HD
ENDBRANCH  19  21
ENDBRANCH   3  19
TORSDOF 4
