REMARK  Name = ZINC53039579
REMARK  9 active torsions:
REMARK  status: ('A' for Active; 'I' for Inactive)
REMARK    1  A    between atoms: C_1  and  C_2
REMARK    2  A    between atoms: C_2  and  C_4
REMARK    3  A    between atoms: C_2  and  S_15
REMARK    4  A    between atoms: C_6  and  C_9
REMARK    5  A    between atoms: S_15  and  C_16
REMARK    6  A    between atoms: C_19  and  C_22
REMARK    7  A    between atoms: N_20  and  N_21
REMARK    8  A    between atoms: C_27  and  O_28
REMARK    9  A    between atoms: O_28  and  C_29
REMARK                            x       y       z     vdW  Elec       q    Type
REMARK                         _______ _______ _______ _____ _____    ______ ____
ROOT
ATOM      1  C   UNL     1       2.517   0.025   1.271  0.00  0.00    +0.209 A 
ATOM      2  N   UNL     1       3.002   0.589   0.188  0.00  0.00    -0.121 NA
ATOM      3  N   UNL     1       4.264   0.789   0.321  0.00  0.00    -0.127 NA
ATOM      4  C   UNL     1       4.664   0.364   1.498  0.00  0.00    +0.185 A 
ATOM      5  N   UNL     1       3.556  -0.134   2.144  0.00  0.00    -0.224 N 
ENDROOT
BRANCH   4   6
ATOM      6  C   UNL     1       6.042   0.414   2.028  0.00  0.00    +0.062 A 
ATOM      7  C   UNL     1       6.601  -0.710   2.637  0.00  0.00    +0.015 A 
ATOM      8  C   UNL     1       7.888  -0.656   3.131  0.00  0.00    +0.001 A 
ATOM      9  C   UNL     1       8.627   0.509   3.025  0.00  0.00    +0.004 A 
ATOM     10  C   UNL     1       8.084   1.629   2.425  0.00  0.00    +0.046 A 
ATOM     11  C   UNL     1       6.795   1.589   1.918  0.00  0.00    +0.131 A 
BRANCH  11  12
ATOM     12  O   UNL     1       6.263   2.688   1.322  0.00  0.00    -0.494 OA
ATOM     13  C   UNL     1       7.091   3.850   1.246  0.00  0.00    +0.277 C 
ENDBRANCH  11  12
ENDBRANCH   4   6
BRANCH   5  14
ATOM     14  N   UNL     1       3.506  -0.676   3.397  0.00  0.00    -0.295 N 
ATOM     15  H   UNL     1       3.750  -1.655   3.378  0.00  0.00    +0.163 HD
ATOM     16  H   UNL     1       4.100  -0.168   4.035  0.00  0.00    +0.163 HD
ENDBRANCH   5  14
BRANCH   1  17
ATOM     17  S   UNL     1       0.839  -0.435   1.548  0.00  0.00    -0.072 S 
BRANCH  17  19
ATOM     18  C   UNL     1       0.043   1.564  -0.140  0.00  0.00    +0.029 C 
ATOM     19  C   UNL     1      -0.006   0.043   0.016  0.00  0.00    +0.140 C 
BRANCH  19  20
ATOM     20  C   UNL     1      -1.442  -0.411   0.072  0.00  0.00    +0.241 A 
ATOM     21  N   UNL     1      -2.090  -1.008  -0.888  0.00  0.00    -0.190 NA
ATOM     22  C   UNL     1      -3.350  -1.271  -0.499  0.00  0.00    +0.202 A 
ATOM     23  N   UNL     1      -3.510  -0.836   0.727  0.00  0.00    -0.056 NA
ATOM     24  O   UNL     1      -2.266  -0.273   1.118  0.00  0.00    -0.337 OA
BRANCH  22  25
ATOM     25  C   UNL     1      -4.388  -1.942  -1.321  0.00  0.00    +0.022 A 
ATOM     26  C   UNL     1      -4.089  -2.365  -2.615  0.00  0.00    +0.012 A 
ATOM     27  C   UNL     1      -5.058  -2.988  -3.375  0.00  0.00    +0.001 A 
ATOM     28  C   UNL     1      -6.323  -3.193  -2.855  0.00  0.00    +0.000 A 
ATOM     29  C   UNL     1      -6.625  -2.776  -1.571  0.00  0.00    +0.001 A 
ATOM     30  C   UNL     1      -5.662  -2.157  -0.800  0.00  0.00    +0.012 A 
ENDBRANCH  22  25
ENDBRANCH  19  20
ENDBRANCH  17  19
ENDBRANCH   1  17
TORSDOF 7
