REMARK  Name = ZINC59438000
REMARK  9 active torsions:
REMARK  status: ('A' for Active; 'I' for Inactive)
REMARK    1  A    between atoms: C_1  and  C_2
REMARK    2  A    between atoms: C_3  and  C_23
REMARK    3  A    between atoms: N_7  and  C_8
REMARK    4  A    between atoms: C_8  and  N_10
REMARK    5  A    between atoms: C_11  and  C_13
REMARK    6  A    between atoms: C_16  and  O_20
REMARK    7  A    between atoms: O_20  and  C_21
REMARK    8  A    between atoms: C_23  and  O_25
REMARK    9  A    between atoms: O_25  and  C_26
REMARK                            x       y       z     vdW  Elec       q    Type
REMARK                         _______ _______ _______ _____ _____    ______ ____
ROOT
ATOM      1  C   UNL     1       1.916  -4.222   0.068  0.00  0.00    +0.163 C 
ATOM      2  S   UNL     1       0.311  -4.817   0.073  0.00  0.00    -0.016 S 
ENDROOT
BRANCH   1   9
ATOM      3  C   UNL     1      -0.016   1.504   0.035  0.00  0.00    +0.065 C 
ATOM      4  C   UNL     1       0.004  -0.003   0.021  0.00  0.00    +0.035 A 
ATOM      5  C   UNL     1      -1.147  -0.729   0.023  0.00  0.00    +0.118 A 
ATOM      6  S   UNL     1      -0.524  -2.400   0.001  0.00  0.00    -0.046 S 
ATOM      7  C   UNL     1       1.122  -2.056  -0.009  0.00  0.00    +0.163 A 
ATOM      8  N   UNL     1       1.159  -0.691  -0.001  0.00  0.00    -0.339 N 
ATOM      9  N   UNL     1       2.142  -2.908  -0.026  0.00  0.00    -0.169 NA
ATOM     10  H   UNL     1       2.009  -0.223  -0.008  0.00  0.00    +0.167 HD
BRANCH   5  11
ATOM     11  C   UNL     1      -2.535  -0.260   0.039  0.00  0.00    +0.347 C 
ATOM     12  O   UNL     1      -2.774   0.932   0.053  0.00  0.00    -0.244 OA
BRANCH  11  13
ATOM     13  O   UNL     1      -3.547  -1.151   0.039  0.00  0.00    -0.464 OA
ATOM     14  C   UNL     1      -4.875  -0.624   0.055  0.00  0.00    +0.280 C 
ENDBRANCH  11  13
ENDBRANCH   5  11
ENDBRANCH   1   9
BRANCH   1  15
ATOM     15  N   UNL     1       2.953  -5.078   0.159  0.00  0.00    -0.262 N 
ATOM     16  C   UNL     1       2.725  -6.404   0.254  0.00  0.00    +0.250 C 
ATOM     17  O   UNL     1       1.585  -6.826   0.257  0.00  0.00    -0.270 OA
ATOM     18  H   UNL     1       3.862  -4.741   0.157  0.00  0.00    +0.157 HD
BRANCH  16  19
ATOM     19  C   UNL     1       3.860  -7.341   0.354  0.00  0.00    +0.040 A 
ATOM     20  C   UNL     1       5.171  -6.857   0.356  0.00  0.00    +0.036 A 
ATOM     21  C   UNL     1       6.228  -7.736   0.450  0.00  0.00    +0.085 A 
ATOM     22  C   UNL     1       5.992  -9.104   0.541  0.00  0.00    +0.157 A 
ATOM     23  C   UNL     1       4.689  -9.589   0.540  0.00  0.00    +0.085 A 
ATOM     24  C   UNL     1       3.626  -8.716   0.452  0.00  0.00    +0.036 A 
ATOM     25 CL   UNL     1       4.400 -11.297   0.655  0.00  0.00    -0.080 Cl
ATOM     26 CL   UNL     1       7.857  -7.136   0.452  0.00  0.00    -0.080 Cl
BRANCH  22  27
ATOM     27  O   UNL     1       7.036  -9.966   0.633  0.00  0.00    -0.492 OA
ATOM     28  C   UNL     1       7.499 -10.287   1.946  0.00  0.00    +0.277 C 
ENDBRANCH  22  27
ENDBRANCH  16  19
ENDBRANCH   1  15
TORSDOF 6
