REMARK  Name = ZINC43143717
REMARK  15 active torsions:
REMARK  status: ('A' for Active; 'I' for Inactive)
REMARK    1  A    between atoms: C_1  and  C_2
REMARK    2  A    between atoms: C_2  and  C_3
REMARK    3  A    between atoms: C_3  and  C_4
REMARK    4  A    between atoms: C_3  and  C_6
REMARK    5  A    between atoms: C_3  and  N_22
REMARK    6  A    between atoms: C_4  and  C_5
REMARK    7  A    between atoms: C_6  and  N_7
REMARK    8  A    between atoms: N_10  and  C_11
REMARK    9  A    between atoms: C_11  and  C_12
REMARK   10  A    between atoms: C_12  and  C_14
REMARK   11  A    between atoms: C_12  and  N_19
REMARK   12  A    between atoms: N_19  and  C_20
REMARK   13  A    between atoms: N_19  and  C_21
REMARK   14  A    between atoms: N_22  and  C_23
REMARK   15  A    between atoms: N_22  and  C_24
REMARK                            x       y       z     vdW  Elec       q    Type
REMARK                         _______ _______ _______ _____ _____    ______ ____
ROOT
ATOM      1  N   UNL     1       2.208  -0.615   2.635  0.00  0.00    -0.301 N 
ATOM      2  C   UNL     1       3.307   0.107   2.931  0.00  0.00    +0.300 C 
ATOM      3  O   UNL     1       3.697   0.963   2.161  0.00  0.00    -0.253 OA
ATOM      4  N   UNL     1       3.973  -0.120   4.081  0.00  0.00    -0.301 N 
ATOM      5  H   UNL     1       1.896  -1.298   3.249  0.00  0.00    +0.150 HD
ATOM      6  H   UNL     1       3.661  -0.803   4.695  0.00  0.00    +0.150 HD
ENDROOT
BRANCH   1   7
ATOM      7  C   UNL     1       1.484  -0.368   1.385  0.00  0.00    +0.094 C 
BRANCH   7   8
ATOM      8  C   UNL     1       0.362  -1.398   1.234  0.00  0.00    -0.051 C 
BRANCH   8   9
ATOM      9  N   UNL     1      -0.457  -1.060   0.062  0.00  0.00    +0.381 N 
ATOM     10  C   UNL     1       0.371  -1.122  -1.149  0.00  0.00    -0.096 C 
ATOM     11  C   UNL     1      -1.565  -2.018  -0.053  0.00  0.00    -0.096 C 
ATOM     12  H   UNL     1      -0.828  -0.128   0.169  0.00  0.00    -0.082 HD
ENDBRANCH   8   9
BRANCH   8  14
ATOM     13  C   UNL     1       1.708  -3.199   2.324  0.00  0.00    +0.002 C 
ATOM     14  C   UNL     1       0.970  -2.790   1.047  0.00  0.00    -0.014 C 
ENDBRANCH   8  14
BRANCH   8  15
ATOM     15  C   UNL     1      -0.513  -1.387   2.489  0.00  0.00    -0.014 C 
ATOM     16  C   UNL     1      -1.237  -0.044   2.594  0.00  0.00    +0.002 C 
ENDBRANCH   8  15
ENDBRANCH   7   8
ENDBRANCH   1   7
BRANCH   4  17
ATOM     17  C   UNL     1       5.167   0.665   4.402  0.00  0.00    +0.095 C 
BRANCH  17  18
ATOM     18  C   UNL     1       5.800   0.127   5.688  0.00  0.00    -0.014 C 
BRANCH  18  19
ATOM     19  C   UNL     1       6.233  -1.300   5.476  0.00  0.00    -0.022 A 
ATOM     20  C   UNL     1       5.607  -2.446   5.842  0.00  0.00    +0.009 A 
ATOM     21  C   UNL     1       6.198  -3.658   5.538  0.00  0.00    +0.008 A 
ATOM     22  C   UNL     1       7.384  -3.666   4.883  0.00  0.00    +0.045 A 
ATOM     23  S   UNL     1       7.699  -1.922   4.669  0.00  0.00    -0.103 S 
ENDBRANCH  18  19
BRANCH  18  24
ATOM     24  N   UNL     1       6.967   0.947   6.039  0.00  0.00    +0.382 N 
ATOM     25  C   UNL     1       6.529   2.311   6.361  0.00  0.00    -0.096 C 
ATOM     26  C   UNL     1       7.644   0.361   7.204  0.00  0.00    -0.096 C 
ATOM     27  H   UNL     1       7.606   0.974   5.258  0.00  0.00    -0.082 HD
ENDBRANCH  18  24
ENDBRANCH  17  18
ENDBRANCH   4  17
TORSDOF 9
