REMARK  Name = ZINC59331699
REMARK  10 active torsions:
REMARK  status: ('A' for Active; 'I' for Inactive)
REMARK    1  A    between atoms: C_1  and  C_2
REMARK    2  A    between atoms: C_2  and  C_3
REMARK    3  A    between atoms: C_2  and  C_4
REMARK    4  A    between atoms: N_9  and  C_12
REMARK    5  A    between atoms: C_15  and  N_18
REMARK    6  A    between atoms: N_18  and  C_19
REMARK    7  A    between atoms: C_19  and  N_21
REMARK    8  A    between atoms: C_22  and  C_24
REMARK    9  A    between atoms: C_27  and  C_29
REMARK   10  A    between atoms: C_33  and  N_35
REMARK                            x       y       z     vdW  Elec       q    Type
REMARK                         _______ _______ _______ _____ _____    ______ ____
ROOT
ATOM      1  C   UNL     1      -2.502 -10.505   1.501  0.00  0.00    +0.141 C 
ATOM      2  S   UNL     1      -1.935  -9.855   2.980  0.00  0.00    -0.018 S 
ENDROOT
BRANCH   1   3
ATOM      3  N   UNL     1      -2.634 -11.838   1.358  0.00  0.00    -0.261 N 
ATOM      4  C   UNL     1      -2.320 -12.660   2.379  0.00  0.00    +0.285 C 
ATOM      5  O   UNL     1      -1.917 -12.198   3.430  0.00  0.00    -0.266 OA
ATOM      6  H   UNL     1      -2.955 -12.206   0.520  0.00  0.00    +0.157 HD
BRANCH   4   7
ATOM      7  C   UNL     1      -2.464 -14.109   2.223  0.00  0.00    +0.190 A 
ATOM      8  C   UNL     1      -2.185 -15.058   3.183  0.00  0.00    +0.055 A 
ATOM      9  C   UNL     1      -2.462 -16.303   2.612  0.00  0.00    +0.050 A 
ATOM     10  C   UNL     1      -2.895 -16.073   1.337  0.00  0.00    +0.136 A 
ATOM     11  O   UNL     1      -2.897 -14.748   1.116  0.00  0.00    -0.450 OA
BRANCH  10  12
ATOM     12  C   UNL     1      -3.299 -17.109   0.365  0.00  0.00    +0.019 A 
ATOM     13  C   UNL     1      -3.262 -18.459   0.722  0.00  0.00    +0.012 A 
ATOM     14  C   UNL     1      -3.640 -19.420  -0.191  0.00  0.00    +0.003 A 
ATOM     15  C   UNL     1      -4.056 -19.051  -1.459  0.00  0.00    +0.033 A 
ATOM     16  C   UNL     1      -4.095 -17.716  -1.819  0.00  0.00    +0.127 A 
ATOM     17  C   UNL     1      -3.725 -16.742  -0.913  0.00  0.00    +0.044 A 
BRANCH  16  18
ATOM     18  N   UNL     1      -4.540 -17.330  -3.177  0.00  0.00    +0.056 N 
ATOM     19  O   UNL     1      -4.869 -18.181  -3.970  0.00  0.00    -0.126 OA
ATOM     20  O   UNL     1      -4.574 -16.163  -3.493  0.00  0.00    -0.126 OA
ENDBRANCH  16  18
ENDBRANCH  10  12
ENDBRANCH   4   7
ENDBRANCH   1   3
BRANCH   1  21
ATOM     21  N   UNL     1      -2.815  -9.683   0.480  0.00  0.00    -0.297 N 
ATOM     22  H   UNL     1      -3.219 -10.042  -0.325  0.00  0.00    +0.154 HD
BRANCH  21  26
ATOM     23  C   UNL     1      -2.051  -5.594   0.783  0.00  0.00    +0.030 A 
ATOM     24  C   UNL     1      -1.133  -6.510   1.279  0.00  0.00    +0.025 A 
ATOM     25  C   UNL     1      -1.387  -7.864   1.179  0.00  0.00    +0.025 A 
ATOM     26  C   UNL     1      -2.559  -8.309   0.583  0.00  0.00    +0.033 A 
ATOM     27  C   UNL     1      -3.477  -7.393   0.087  0.00  0.00    +0.025 A 
ATOM     28  C   UNL     1      -3.226  -6.039   0.192  0.00  0.00    +0.025 A 
BRANCH  23  34
ATOM     29  C   UNL     1      -1.776  -0.437   2.144  0.00  0.00    +0.218 C 
ATOM     30  O   UNL     1      -0.765  -0.047   2.689  0.00  0.00    -0.275 OA
ATOM     31  N   UNL     1      -2.023  -1.758   2.046  0.00  0.00    -0.298 N 
ATOM     32  C   UNL     1      -3.175  -2.249   1.277  0.00  0.00    +0.126 C 
ATOM     33  C   UNL     1      -2.674  -3.246   0.225  0.00  0.00    +0.124 C 
ATOM     34  N   UNL     1      -1.795  -4.222   0.885  0.00  0.00    -0.327 N 
ATOM     35  C   UNL     1      -0.643  -3.731   1.654  0.00  0.00    +0.124 C 
ATOM     36  C   UNL     1      -1.141  -2.734   2.701  0.00  0.00    +0.126 C 
BRANCH  29  38
ATOM     37  C   UNL     1      -2.644   1.878   2.341  0.00  0.00    +0.017 C 
ATOM     38  C   UNL     1      -2.756   0.557   1.576  0.00  0.00    +0.069 C 
ATOM     39  C   UNL     1      -2.442   0.795   0.098  0.00  0.00    +0.017 C 
ENDBRANCH  29  38
ENDBRANCH  23  34
ENDBRANCH  21  26
ENDBRANCH   1  21
TORSDOF 8
