REMARK  Name = ZINC39634499
REMARK  9 active torsions:
REMARK  status: ('A' for Active; 'I' for Inactive)
REMARK    1  A    between atoms: C_1  and  O_2
REMARK    2  A    between atoms: O_2  and  C_3
REMARK    3  A    between atoms: C_6  and  C_11
REMARK    4  A    between atoms: C_8  and  O_9
REMARK    5  A    between atoms: O_9  and  C_10
REMARK    6  A    between atoms: C_11  and  C_12
REMARK    7  A    between atoms: C_12  and  N_13
REMARK    8  A    between atoms: C_14  and  C_16
REMARK    9  A    between atoms: C_27  and  C_29
REMARK                            x       y       z     vdW  Elec       q    Type
REMARK                         _______ _______ _______ _____ _____    ______ ____
ROOT
ATOM      1  C   UNL     1      -8.138  -4.891  -2.688  0.00  0.00    +0.100 C 
ATOM      2  C   UNL     1      -8.291  -6.266  -2.000  0.00  0.00    +0.121 C 
ATOM      3  N   UNL     1      -9.275  -6.994  -2.834  0.00  0.00    -0.296 N 
ATOM      4  C   UNL     1      -8.923  -6.626  -4.226  0.00  0.00    +0.115 C 
ATOM      5  C   UNL     1      -8.553  -5.132  -4.149  0.00  0.00    -0.004 C 
ATOM      6  C   UNL     1      -9.761  -4.270  -4.503  0.00  0.00    -0.010 C 
ATOM      7  C   UNL     1     -10.120  -4.485  -5.976  0.00  0.00    -0.082 C 
ATOM      8  N   UNL     1      -8.973  -4.125  -6.819  0.00  0.00    +0.379 N 
ATOM      9  C   UNL     1      -7.844  -5.020  -6.536  0.00  0.00    -0.082 C 
ATOM     10  C   UNL     1      -7.389  -4.828  -5.086  0.00  0.00    -0.010 C 
ATOM     11  C   UNL     1     -10.267  -7.808  -2.420  0.00  0.00    +0.247 C 
ATOM     12  O   UNL     1     -10.512  -7.913  -1.234  0.00  0.00    -0.270 OA
ATOM     13  H   UNL     1      -9.231  -4.209  -7.791  0.00  0.00    -0.086 HD
ATOM     14  H   UNL     1      -8.701  -3.173  -6.627  0.00  0.00    -0.086 HD
ENDROOT
BRANCH  11  15
ATOM     15  C   UNL     1     -11.057  -8.572  -3.408  0.00  0.00    +0.037 A 
ATOM     16  C   UNL     1     -10.524  -8.820  -4.686  0.00  0.00    +0.013 A 
ATOM     17  C   UNL     1     -11.229  -9.519  -5.611  0.00  0.00    +0.009 A 
ATOM     18  C   UNL     1     -12.512 -10.006  -5.297  0.00  0.00    -0.018 A 
ATOM     19  C   UNL     1     -13.261 -10.732  -6.238  0.00  0.00    +0.008 A 
ATOM     20  C   UNL     1     -14.499 -11.191  -5.905  0.00  0.00    +0.001 A 
ATOM     21  C   UNL     1     -15.039 -10.951  -4.643  0.00  0.00    +0.001 A 
ATOM     22  C   UNL     1     -14.343 -10.251  -3.706  0.00  0.00    +0.008 A 
ATOM     23  C   UNL     1     -13.060  -9.762  -4.013  0.00  0.00    -0.017 A 
ATOM     24  C   UNL     1     -12.314  -9.043  -3.067  0.00  0.00    +0.021 A 
ENDBRANCH  11  15
BRANCH   1  26
ATOM     25  N   UNL     1      -6.426  -3.108  -2.580  0.00  0.00    -0.315 N 
ATOM     26  C   UNL     1      -6.706  -4.426  -2.619  0.00  0.00    +0.218 C 
ATOM     27  O   UNL     1      -5.805  -5.238  -2.599  0.00  0.00    -0.275 OA
ATOM     28  H   UNL     1      -7.146  -2.459  -2.596  0.00  0.00    +0.149 HD
BRANCH  25  29
ATOM     29  C   UNL     1      -5.034  -2.657  -2.514  0.00  0.00    +0.109 C 
BRANCH  29  30
ATOM     30  C   UNL     1      -4.995  -1.128  -2.480  0.00  0.00    +0.054 C 
BRANCH  30  34
ATOM     31  C   UNL     1      -0.931   0.191  -2.292  0.00  0.00    +0.161 A 
ATOM     32  C   UNL     1      -1.544   0.000  -3.520  0.00  0.00    +0.049 A 
ATOM     33  C   UNL     1      -2.858  -0.426  -3.577  0.00  0.00    +0.007 A 
ATOM     34  C   UNL     1      -3.563  -0.663  -2.412  0.00  0.00    -0.042 A 
ATOM     35  C   UNL     1      -2.957  -0.475  -1.184  0.00  0.00    +0.053 A 
ATOM     36  C   UNL     1      -1.638  -0.054  -1.119  0.00  0.00    +0.162 A 
BRANCH  31  38
ATOM     37  C   UNL     1       1.026   0.841  -3.478  0.00  0.00    +0.277 C 
ATOM     38  O   UNL     1       0.362   0.610  -2.233  0.00  0.00    -0.491 OA
ENDBRANCH  31  38
BRANCH  36  39
ATOM     39  O   UNL     1      -1.039   0.126   0.089  0.00  0.00    -0.491 OA
ATOM     40  C   UNL     1      -1.826  -0.144   1.250  0.00  0.00    +0.277 C 
ENDBRANCH  36  39
ENDBRANCH  30  34
ENDBRANCH  29  30
ENDBRANCH  25  29
ENDBRANCH   1  26
TORSDOF 7
