REMARK  Name = ZINC14775297
REMARK  14 active torsions:
REMARK  status: ('A' for Active; 'I' for Inactive)
REMARK    1  A    between atoms: C_1  and  C_2
REMARK    2  A    between atoms: C_2  and  O_3
REMARK    3  A    between atoms: O_3  and  C_4
REMARK    4  A    between atoms: C_9  and  C_10
REMARK    5  A    between atoms: N_12  and  C_13
REMARK    6  A    between atoms: C_13  and  N_15
REMARK    7  A    between atoms: C_21  and  C_23
REMARK    8  A    between atoms: C_23  and  C_24
REMARK    9  A    between atoms: C_24  and  O_26
REMARK   10  A    between atoms: O_26  and  C_27
REMARK   11  A    between atoms: C_27  and  C_28
REMARK   12  A    between atoms: C_28  and  C_29
REMARK   13  A    between atoms: C_29  and  C_30
REMARK   14  A    between atoms: C_29  and  C_31
REMARK                            x       y       z     vdW  Elec       q    Type
REMARK                         _______ _______ _______ _____ _____    ______ ____
ROOT
ATOM      1  N   UNL     1       0.026   1.407  -0.088  0.00  0.00    -0.299 N 
ATOM      2  C   UNL     1       0.116  -0.048  -0.295  0.00  0.00    +0.126 C 
ATOM      3  C   UNL     1       0.912  -0.301  -1.577  0.00  0.00    +0.123 C 
ATOM      4  N   UNL     1       2.121   0.511  -1.602  0.00  0.00    -0.312 N 
ATOM      5  C   UNL     1       2.297   1.629  -0.897  0.00  0.00    +0.234 C 
ATOM      6  O   UNL     1       3.318   2.263  -1.062  0.00  0.00    -0.274 OA
ATOM      7  C   UNL     1       1.287   2.140   0.095  0.00  0.00    +0.171 C 
ATOM      8  H   UNL     1       2.849   0.219  -2.172  0.00  0.00    +0.149 HD
ENDROOT
BRANCH   1   9
ATOM      9  C   UNL     1      -1.163   2.042  -0.073  0.00  0.00    +0.140 C 
ATOM     10  S   UNL     1      -2.606   1.161  -0.343  0.00  0.00    -0.018 S 
BRANCH   9  13
ATOM     11  C   UNL     1      -2.393   4.020   0.075  0.00  0.00    +0.253 C 
ATOM     12  O   UNL     1      -3.407   3.410  -0.200  0.00  0.00    -0.270 OA
ATOM     13  N   UNL     1      -1.215   3.369   0.154  0.00  0.00    -0.264 N 
ATOM     14  H   UNL     1      -0.406   3.856   0.374  0.00  0.00    +0.157 HD
BRANCH  11  20
ATOM     15  C   UNL     1      -3.673   6.153   0.244  0.00  0.00    +0.133 A 
ATOM     16  C   UNL     1      -3.716   7.519   0.480  0.00  0.00    +0.047 A 
ATOM     17  C   UNL     1      -2.559   8.204   0.793  0.00  0.00    +0.019 A 
ATOM     18  C   UNL     1      -1.347   7.535   0.874  0.00  0.00    +0.019 A 
ATOM     19  C   UNL     1      -1.287   6.176   0.647  0.00  0.00    +0.032 A 
ATOM     20  C   UNL     1      -2.450   5.472   0.324  0.00  0.00    +0.080 A 
ATOM     21 BR   UNL     1       0.228   8.488   1.304  0.00  0.00    -0.050 Br
BRANCH  15  22
ATOM     22  O   UNL     1      -4.809   5.479  -0.064  0.00  0.00    -0.491 OA
BRANCH  22  24
ATOM     23  C   UNL     1      -7.183   5.316  -0.486  0.00  0.00    +0.048 C 
ATOM     24  C   UNL     1      -6.017   6.240  -0.128  0.00  0.00    +0.226 C 
ENDBRANCH  22  24
ENDBRANCH  15  22
ENDBRANCH  11  20
ENDBRANCH   9  13
ENDBRANCH   1   9
BRANCH   7  25
ATOM     25  C   UNL     1       1.807   1.918   1.517  0.00  0.00    +0.152 C 
BRANCH  25  26
ATOM     26  C   UNL     1       0.854   2.541   2.503  0.00  0.00    +0.309 C 
ATOM     27  O   UNL     1      -0.195   3.003   2.121  0.00  0.00    -0.251 OA
BRANCH  26  28
ATOM     28  O   UNL     1       1.169   2.582   3.807  0.00  0.00    -0.465 OA
BRANCH  28  29
ATOM     29  C   UNL     1       0.203   3.197   4.700  0.00  0.00    +0.232 C 
BRANCH  29  30
ATOM     30  C   UNL     1       0.733   3.151   6.135  0.00  0.00    +0.044 C 
BRANCH  30  31
ATOM     31  C   UNL     1      -0.285   3.799   7.076  0.00  0.00    -0.014 C 
ATOM     32  C   UNL     1      -1.567   2.964   7.092  0.00  0.00    +0.007 C 
ATOM     33  C   UNL     1       0.297   3.866   8.489  0.00  0.00    +0.007 C 
ENDBRANCH  30  31
ENDBRANCH  29  30
ENDBRANCH  28  29
ENDBRANCH  26  28
ENDBRANCH  25  26
ENDBRANCH   7  25
TORSDOF 11
