REMARK  Name = ZINC21897298
REMARK  2 active torsions:
REMARK  status: ('A' for Active; 'I' for Inactive)
REMARK    1  A    between atoms: C_6  and  C_7
REMARK    2  A    between atoms: N_9  and  C_10
REMARK                            x       y       z     vdW  Elec       q    Type
REMARK                         _______ _______ _______ _____ _____    ______ ____
ROOT
ATOM      1  C   UNL     1      -2.112   5.752  -0.958  0.00  0.00    +0.244 C 
ATOM      2  O   UNL     1      -2.639   5.142  -1.868  0.00  0.00    -0.270 OA
ATOM      3  N   UNL     1      -1.510   5.081   0.044  0.00  0.00    -0.306 N 
ATOM      4  H   UNL     1      -1.033   5.633   0.867  0.00  0.00    +0.150 HD
ENDROOT
BRANCH   1  10
ATOM      5  C   UNL     1      -1.527   7.931   0.096  0.00  0.00    +0.015 A 
ATOM      6  C   UNL     1      -1.547   9.307   0.100  0.00  0.00    +0.024 A 
ATOM      7  C   UNL     1      -2.170   9.999  -0.934  0.00  0.00    +0.037 A 
ATOM      8  C   UNL     1      -2.773   9.302  -1.976  0.00  0.00    -0.025 A 
ATOM      9  C   UNL     1      -2.751   7.926  -1.990  0.00  0.00    +0.018 A 
ATOM     10  C   UNL     1      -2.132   7.228  -0.950  0.00  0.00    +0.037 A 
ATOM     11  C   UNL     1      -3.445  10.058  -3.093  0.00  0.00    +0.046 C 
ATOM     12  C   UNL     1      -4.074  11.336  -2.538  0.00  0.00    +0.101 C 
ATOM     13  C   UNL     1      -3.075  12.068  -1.683  0.00  0.00    +0.218 C 
ATOM     14  O   UNL     1      -3.068  13.280  -1.675  0.00  0.00    -0.275 OA
ATOM     15  N   UNL     1      -2.189  11.393  -0.928  0.00  0.00    -0.285 N 
ATOM     16  H   UNL     1      -1.477  11.950  -0.301  0.00  0.00    +0.155 HD
ENDBRANCH   1  10
BRANCH   3  17
ATOM     17  C   UNL     1      -1.490   3.616   0.036  0.00  0.00    +0.036 C 
ATOM     18  C   UNL     1      -0.773   3.123  -1.223  0.00  0.00    +0.029 C 
ATOM     19  C   UNL     1      -0.753   1.593  -1.232  0.00  0.00    -0.008 C 
ATOM     20  C   UNL     1      -0.013   1.086   0.008  0.00  0.00    +0.007 C 
ATOM     21  C   UNL     1      -0.729   1.579   1.267  0.00  0.00    -0.008 C 
ATOM     22  C   UNL     1      -0.750   3.109   1.275  0.00  0.00    +0.029 C 
ATOM     23  C   UNL     1      -2.164   1.050   1.278  0.00  0.00    +0.007 C 
ATOM     24  C   UNL     1      -2.904   1.556   0.038  0.00  0.00    -0.008 C 
ATOM     25  C   UNL     1      -2.188   1.063  -1.221  0.00  0.00    +0.007 C 
ATOM     26  C   UNL     1      -2.925   3.086   0.047  0.00  0.00    +0.029 C 
ENDBRANCH   3  17
TORSDOF 2
