REMARK  Name = ZINC16371910
REMARK  6 active torsions:
REMARK  status: ('A' for Active; 'I' for Inactive)
REMARK    1  A    between atoms: C_1  and  C_2
REMARK    2  A    between atoms: C_5  and  C_14
REMARK    3  A    between atoms: C_12  and  C_13
REMARK    4  A    between atoms: C_14  and  S_15
REMARK    5  A    between atoms: S_15  and  C_16
REMARK    6  A    between atoms: N_20  and  C_21
REMARK                            x       y       z     vdW  Elec       q    Type
REMARK                         _______ _______ _______ _____ _____    ______ ____
ROOT
ATOM      1  C   UNL     1      -2.510   4.306   0.049  0.00  0.00    +0.044 C 
ATOM      2  C   UNL     1      -1.210   3.543   0.033  0.00  0.00    -0.047 A 
ATOM      3  C   UNL     1      -1.226   2.166   0.031  0.00  0.00    +0.015 A 
ATOM      4  C   UNL     1      -0.018   1.462   0.010  0.00  0.00    +0.022 A 
ATOM      5  C   UNL     1       0.002  -0.004   0.002  0.00  0.00    -0.020 A 
ATOM      6  C   UNL     1       1.207  -0.628  -0.013  0.00  0.00    +0.097 A 
ATOM      7  C   UNL     1       2.393   0.137  -0.020  0.00  0.00    +0.338 A 
ATOM      8  O   UNL     1       3.468  -0.436  -0.033  0.00  0.00    -0.245 OA
ATOM      9  O   UNL     1       2.367   1.478  -0.012  0.00  0.00    -0.422 OA
ATOM     10  C   UNL     1       1.202   2.161   0.002  0.00  0.00    +0.140 A 
ATOM     11  C   UNL     1       1.194   3.549   0.010  0.00  0.00    +0.050 A 
ATOM     12  C   UNL     1      -0.006   4.231   0.025  0.00  0.00    -0.044 A 
ATOM     13  C   UNL     1      -0.007   5.737   0.032  0.00  0.00    +0.044 C 
ENDROOT
BRANCH   5  14
ATOM     14  C   UNL     1      -1.280  -0.796   0.011  0.00  0.00    +0.113 C 
BRANCH  14  15
ATOM     15  S   UNL     1      -1.810  -1.104  -1.692  0.00  0.00    -0.080 S 
BRANCH  15  16
ATOM     16  C   UNL     1      -3.286  -2.018  -1.393  0.00  0.00    +0.210 A 
ATOM     17  N   UNL     1      -3.783  -2.338  -0.217  0.00  0.00    -0.102 NA
ATOM     18  N   UNL     1      -4.870  -3.007  -0.355  0.00  0.00    -0.022 NA
ATOM     19  N   UNL     1      -5.145  -3.163  -1.605  0.00  0.00    -0.043 NA
ATOM     20  N   UNL     1      -4.126  -2.519  -2.329  0.00  0.00    -0.217 N 
BRANCH  20  21
ATOM     21  C   UNL     1      -3.999  -2.416  -3.785  0.00  0.00    +0.112 C 
ATOM     22  C   UNL     1      -5.250  -1.734  -4.377  0.00  0.00    +0.027 C 
ATOM     23  C   UNL     1      -5.491  -2.479  -5.714  0.00  0.00    +0.002 C 
ATOM     24  C   UNL     1      -5.135  -3.944  -5.359  0.00  0.00    +0.002 C 
ATOM     25  C   UNL     1      -3.926  -3.820  -4.409  0.00  0.00    +0.027 C 
ENDBRANCH  20  21
ENDBRANCH  15  16
ENDBRANCH  14  15
ENDBRANCH   5  14
TORSDOF 4
