REMARK  Name = ZINC21994008
REMARK  10 active torsions:
REMARK  status: ('A' for Active; 'I' for Inactive)
REMARK    1  A    between atoms: C_1  and  N_2
REMARK    2  A    between atoms: N_2  and  C_3
REMARK    3  A    between atoms: N_2  and  C_4
REMARK    4  A    between atoms: C_4  and  C_5
REMARK    5  A    between atoms: C_5  and  C_6
REMARK    6  A    between atoms: C_6  and  N_7
REMARK    7  A    between atoms: C_16  and  S_17
REMARK    8  A    between atoms: S_17  and  C_18
REMARK    9  A    between atoms: C_18  and  C_19
REMARK   10  A    between atoms: N_21  and  C_22
REMARK                            x       y       z     vdW  Elec       q    Type
REMARK                         _______ _______ _______ _____ _____    ______ ____
ROOT
ATOM      1  N   UNL     1      -0.730   1.581   1.183  0.00  0.00    -0.287 N 
ATOM      2  C   UNL     1      -1.710   0.832   1.720  0.00  0.00    +0.263 A 
ATOM      3  O   UNL     1      -2.026  -0.230   1.212  0.00  0.00    -0.267 OA
ATOM      4  C   UNL     1      -2.377   1.300   2.897  0.00  0.00    +0.076 A 
ATOM      5  C   UNL     1      -3.460   0.655   3.643  0.00  0.00    -0.023 A 
ATOM      6  C   UNL     1      -3.924   1.303   4.730  0.00  0.00    -0.004 A 
ATOM      7  S   UNL     1      -2.963   2.789   4.826  0.00  0.00    -0.073 S 
ATOM      8  C   UNL     1      -1.937   2.535   3.400  0.00  0.00    +0.117 A 
ATOM      9  N   UNL     1      -0.962   3.227   2.821  0.00  0.00    -0.216 NA
ATOM     10  C   UNL     1      -0.361   2.771   1.741  0.00  0.00    +0.173 A 
ATOM     11  C   UNL     1      -5.016   0.858   5.654  0.00  0.00    +0.043 C 
ATOM     12  C   UNL     1      -5.794  -0.278   4.974  0.00  0.00    +0.005 C 
ATOM     13  C   UNL     1      -4.793  -1.294   4.416  0.00  0.00    +0.005 C 
ATOM     14  C   UNL     1      -4.049  -0.690   3.225  0.00  0.00    +0.037 C 
ENDROOT
BRANCH   1  15
ATOM     15  C   UNL     1      -0.043   1.109  -0.021  0.00  0.00    +0.125 C 
BRANCH  15  16
ATOM     16  C   UNL     1      -0.774   1.624  -1.262  0.00  0.00    +0.003 C 
BRANCH  16  17
ATOM     17  C   UNL     1      -0.056   1.130  -2.520  0.00  0.00    -0.078 C 
BRANCH  17  19
ATOM     18  C   UNL     1       0.027   1.375  -4.927  0.00  0.00    -0.097 C 
ATOM     19  N   UNL     1      -0.758   1.625  -3.711  0.00  0.00    +0.376 N 
ATOM     20  C   UNL     1      -2.098   1.031  -3.818  0.00  0.00    -0.097 C 
ATOM     21  H   UNL     1      -0.879   2.713  -3.605  0.00  0.00    -0.083 HD
ENDBRANCH  17  19
ENDBRANCH  16  17
ENDBRANCH  15  16
ENDBRANCH   1  15
BRANCH  10  22
ATOM     22  S   UNL     1       0.933   3.712   1.003  0.00  0.00    -0.078 S 
BRANCH  22  23
ATOM     23  C   UNL     1       0.976   5.126   2.133  0.00  0.00    +0.173 C 
BRANCH  23  24
ATOM     24  C   UNL     1       2.042   6.094   1.686  0.00  0.00    +0.228 C 
ATOM     25  O   UNL     1       2.707   5.851   0.701  0.00  0.00    -0.275 OA
ATOM     26  N   UNL     1       2.256   7.228   2.381  0.00  0.00    -0.282 N 
ATOM     27  H   UNL     1       1.605   7.484   3.231  0.00  0.00    +0.155 HD
BRANCH  26  28
ATOM     28  C   UNL     1       3.307   8.082   2.022  0.00  0.00    +0.072 A 
ATOM     29  C   UNL     1       3.657   8.229   0.688  0.00  0.00    +0.064 A 
ATOM     30  C   UNL     1       4.692   9.077   0.336  0.00  0.00    +0.125 A 
ATOM     31  C   UNL     1       5.386   9.769   1.315  0.00  0.00    +0.041 A 
ATOM     32  C   UNL     1       5.042   9.620   2.646  0.00  0.00    +0.043 A 
ATOM     33  C   UNL     1       4.005   8.778   3.003  0.00  0.00    +0.145 A 
ATOM     34  F   UNL     1       3.669   8.633   4.304  0.00  0.00    -0.204 F 
ATOM     35  F   UNL     1       5.031   9.226  -0.964  0.00  0.00    -0.205 F 
ENDBRANCH  26  28
ENDBRANCH  23  24
ENDBRANCH  22  23
ENDBRANCH  10  22
TORSDOF 8
