REMARK  Name = ZINC22608381
REMARK  4 active torsions:
REMARK  status: ('A' for Active; 'I' for Inactive)
REMARK    1  A    between atoms: C_1  and  C_2
REMARK    2  A    between atoms: C_7  and  C_17
REMARK    3  A    between atoms: C_12  and  S_14
REMARK    4  A    between atoms: S_14  and  C_15
REMARK                            x       y       z     vdW  Elec       q    Type
REMARK                         _______ _______ _______ _____ _____    ______ ____
ROOT
ATOM      1  C   UNL     1       4.890   2.909  -4.963  0.00  0.00    +0.008 C 
ATOM      2  C   UNL     1       4.122   2.597  -3.677  0.00  0.00    -0.001 C 
ATOM      3  C   UNL     1       5.088   2.584  -2.490  0.00  0.00    +0.055 C 
ATOM      4  C   UNL     1       4.337   2.233  -1.228  0.00  0.00    +0.020 C 
ATOM      5  C   UNL     1       3.258   1.422  -1.265  0.00  0.00    +0.041 C 
ATOM      6  C   UNL     1       2.490   1.048  -0.017  0.00  0.00    +0.175 C 
ATOM      7  N   UNL     1       3.259   1.405   1.169  0.00  0.00    -0.220 N 
ATOM      8  C   UNL     1       4.341   2.220   1.138  0.00  0.00    +0.219 A 
ATOM      9  N   UNL     1       4.792   2.343   2.357  0.00  0.00    -0.187 NA
ATOM     10  C   UNL     1       4.031   1.620   3.191  0.00  0.00    +0.210 A 
ATOM     11  N   UNL     1       3.080   1.029   2.499  0.00  0.00    -0.141 NA
ATOM     12  N   UNL     1       4.801   2.766  -0.049  0.00  0.00    -0.287 N 
ATOM     13  C   UNL     1       2.800   0.886  -2.482  0.00  0.00    +0.163 C 
ATOM     14  O   UNL     1       1.837   0.145  -2.481  0.00  0.00    -0.292 OA
ATOM     15  C   UNL     1       3.474   1.212  -3.786  0.00  0.00    +0.083 C 
ATOM     16  H   UNL     1       5.517   3.602  -0.068  0.00  0.00    +0.155 HD
ENDROOT
BRANCH   6  17
ATOM     17  C   UNL     1       1.175   1.783   0.000  0.00  0.00    -0.017 A 
ATOM     18  C   UNL     1       1.156   3.166   0.008  0.00  0.00    +0.006 A 
ATOM     19  C   UNL     1      -0.050   3.841   0.024  0.00  0.00    +0.002 A 
ATOM     20  C   UNL     1      -1.238   3.135   0.031  0.00  0.00    +0.020 A 
ATOM     21  C   UNL     1      -1.220   1.752   0.017  0.00  0.00    +0.041 A 
ATOM     22  C   UNL     1      -0.013   1.076   0.008  0.00  0.00    +0.026 A 
ATOM     23 CL   UNL     1      -2.712   0.864   0.019  0.00  0.00    -0.084 Cl
ENDBRANCH   6  17
BRANCH  10  24
ATOM     24  S   UNL     1       4.265   1.485   4.932  0.00  0.00    -0.088 S 
ATOM     25  C   UNL     1       5.718   2.520   5.261  0.00  0.00    +0.093 C 
ENDBRANCH  10  24
TORSDOF 2
