REMARK  Name = ZINC24785177
REMARK  13 active torsions:
REMARK  status: ('A' for Active; 'I' for Inactive)
REMARK    1  A    between atoms: C_1  and  C_2
REMARK    2  A    between atoms: C_3  and  C_33
REMARK    3  A    between atoms: C_11  and  C_13
REMARK    4  A    between atoms: C_13  and  C_15
REMARK    5  A    between atoms: C_13  and  O_16
REMARK    6  A    between atoms: O_16  and  C_17
REMARK    7  A    between atoms: C_17  and  C_19
REMARK    8  A    between atoms: C_22  and  S_25
REMARK    9  A    between atoms: S_25  and  N_28
REMARK   10  A    between atoms: N_28  and  C_29
REMARK   11  A    between atoms: C_29  and  C_30
REMARK   12  A    between atoms: C_29  and  C_31
REMARK   13  A    between atoms: C_29  and  C_32
REMARK                            x       y       z     vdW  Elec       q    Type
REMARK                         _______ _______ _______ _____ _____    ______ ____
ROOT
ATOM      1  C   UNL     1      -0.564  -4.724   8.464  0.00  0.00    +0.340 C 
ATOM      2  O   UNL     1       0.119  -4.548   9.452  0.00  0.00    -0.245 OA
ENDROOT
BRANCH   1   3
ATOM      3  C   UNL     1      -2.034  -4.597   8.550  0.00  0.00    +0.059 A 
ATOM      4  C   UNL     1      -2.823  -4.805   7.417  0.00  0.00    +0.017 A 
ATOM      5  C   UNL     1      -4.194  -4.684   7.505  0.00  0.00    +0.029 A 
ATOM      6  C   UNL     1      -4.788  -4.359   8.712  0.00  0.00    +0.105 A 
ATOM      7  C   UNL     1      -4.012  -4.152   9.838  0.00  0.00    +0.029 A 
ATOM      8  C   UNL     1      -2.639  -4.275   9.766  0.00  0.00    +0.017 A 
BRANCH   6   9
ATOM      9  S   UNL     1      -6.540  -4.207   8.814  0.00  0.00    +0.059 S 
ATOM     10  O   UNL     1      -6.820  -3.560  10.048  0.00  0.00    -0.153 OA
ATOM     11  O   UNL     1      -6.977  -3.689   7.565  0.00  0.00    -0.153 OA
BRANCH   9  12
ATOM     12  N   UNL     1      -7.158  -5.739   8.933  0.00  0.00    -0.185 NA
ATOM     13  H   UNL     1      -7.689  -6.106   8.209  0.00  0.00    +0.149 HD
BRANCH  12  14
ATOM     14  C   UNL     1      -6.904  -6.541  10.133  0.00  0.00    +0.032 C 
ATOM     15  C   UNL     1      -7.603  -5.898  11.333  0.00  0.00    +0.029 C 
ATOM     16  C   UNL     1      -7.446  -7.956   9.925  0.00  0.00    +0.029 C 
ATOM     17  C   UNL     1      -5.398  -6.604  10.394  0.00  0.00    +0.029 C 
ENDBRANCH  12  14
ENDBRANCH   9  12
ENDBRANCH   6   9
ENDBRANCH   1   3
BRANCH   1  18
ATOM     18  O   UNL     1       0.017  -5.035   7.289  0.00  0.00    -0.450 OA
BRANCH  18  19
ATOM     19  C   UNL     1       1.442  -5.142   7.279  0.00  0.00    +0.239 C 
ATOM     20  C   UNL     1       1.848  -6.583   7.596  0.00  0.00    +0.060 C 
BRANCH  19  31
ATOM     21  C   UNL     1       3.577  -2.541   1.480  0.00  0.00    +0.045 C 
ATOM     22  C   UNL     1       3.450  -3.911   2.095  0.00  0.00    -0.026 A 
ATOM     23  C   UNL     1       3.834  -5.001   1.411  0.00  0.00    -0.008 A 
ATOM     24  S   UNL     1       3.492  -6.338   2.540  0.00  0.00    -0.073 S 
ATOM     25  C   UNL     1       2.844  -5.394   3.896  0.00  0.00    +0.116 A 
ATOM     26  C   UNL     1       2.917  -4.067   3.435  0.00  0.00    +0.075 A 
ATOM     27  C   UNL     1       2.451  -3.068   4.351  0.00  0.00    +0.260 A 
ATOM     28  O   UNL     1       2.469  -1.889   4.042  0.00  0.00    -0.267 OA
ATOM     29  N   UNL     1       1.993  -3.452   5.557  0.00  0.00    -0.307 N 
ATOM     30  H   UNL     1       1.677  -2.780   6.181  0.00  0.00    +0.170 HD
ATOM     31  C   UNL     1       1.964  -4.761   5.918  0.00  0.00    +0.152 A 
ATOM     32  N   UNL     1       2.373  -5.696   5.102  0.00  0.00    -0.223 NA
ATOM     33  C   UNL     1       4.414  -5.076   0.022  0.00  0.00    +0.052 C 
ENDBRANCH  19  31
ENDBRANCH  18  19
ENDBRANCH   1  18
TORSDOF 7
