REMARK  Name = ZINC39675477
REMARK  12 active torsions:
REMARK  status: ('A' for Active; 'I' for Inactive)
REMARK    1  A    between atoms: C_1  and  C_2
REMARK    2  A    between atoms: C_2  and  O_3
REMARK    3  A    between atoms: O_3  and  C_4
REMARK    4  A    between atoms: C_8  and  C_10
REMARK    5  A    between atoms: C_14  and  C_23
REMARK    6  A    between atoms: N_25  and  C_26
REMARK    7  A    between atoms: C_26  and  C_28
REMARK    8  A    between atoms: C_26  and  C_29
REMARK    9  A    between atoms: C_29  and  C_30
REMARK   10  A    between atoms: C_30  and  C_31
REMARK   11  A    between atoms: C_34  and  O_37
REMARK   12  A    between atoms: O_37  and  C_38
REMARK                            x       y       z     vdW  Elec       q    Type
REMARK                         _______ _______ _______ _____ _____    ______ ____
ROOT
ATOM      1  C   UNL     1      -4.293  -4.372   0.009  0.00  0.00    +0.247 C 
ATOM      2  O   UNL     1      -5.269  -3.658   0.127  0.00  0.00    -0.270 OA
ATOM      3  N   UNL     1      -4.443  -5.707  -0.101  0.00  0.00    -0.296 N 
ATOM      4  C   UNL     1      -3.383  -6.742  -0.123  0.00  0.00    +0.121 C 
ATOM      5  C   UNL     1      -3.959  -7.909   0.709  0.00  0.00    +0.100 C 
ATOM      6  C   UNL     1      -5.485  -7.727   0.636  0.00  0.00    -0.004 C 
ATOM      7  C   UNL     1      -5.708  -6.472  -0.219  0.00  0.00    +0.115 C 
ATOM      8  C   UNL     1      -6.059  -7.514   2.034  0.00  0.00    -0.010 C 
ATOM      9  C   UNL     1      -7.582  -7.393   1.942  0.00  0.00    -0.082 C 
ATOM     10  N   UNL     1      -8.137  -8.613   1.343  0.00  0.00    +0.379 N 
ATOM     11  C   UNL     1      -7.652  -8.761  -0.034  0.00  0.00    -0.082 C 
ATOM     12  C   UNL     1      -6.131  -8.940  -0.025  0.00  0.00    -0.010 C 
ATOM     13  H   UNL     1      -7.850  -9.413   1.887  0.00  0.00    -0.086 HD
ATOM     14  H   UNL     1      -9.145  -8.557   1.340  0.00  0.00    -0.086 HD
ENDROOT
BRANCH   1  19
ATOM     15  C   UNL     1      -0.624  -3.888  -0.654  0.00  0.00    +0.121 A 
ATOM     16  C   UNL     1      -0.404  -2.655  -0.055  0.00  0.00    +0.046 A 
ATOM     17  C   UNL     1      -1.444  -1.985   0.561  0.00  0.00    +0.004 A 
ATOM     18  C   UNL     1      -2.709  -2.537   0.585  0.00  0.00    +0.013 A 
ATOM     19  C   UNL     1      -2.939  -3.776  -0.015  0.00  0.00    +0.040 A 
ATOM     20  C   UNL     1      -1.889  -4.449  -0.642  0.00  0.00    +0.058 A 
BRANCH  15  21
ATOM     21  O   UNL     1       0.403  -4.542  -1.258  0.00  0.00    -0.492 OA
BRANCH  21  23
ATOM     22  C   UNL     1       2.704  -4.785  -1.957  0.00  0.00    +0.048 C 
ATOM     23  C   UNL     1       1.682  -3.905  -1.234  0.00  0.00    +0.225 C 
ENDBRANCH  21  23
ENDBRANCH  15  21
ENDBRANCH   1  19
BRANCH   5  24
ATOM     24  C   UNL     1      -3.486  -7.820   2.137  0.00  0.00    +0.218 C 
ATOM     25  O   UNL     1      -3.330  -6.736   2.658  0.00  0.00    -0.275 OA
ATOM     26  N   UNL     1      -3.234  -8.945   2.835  0.00  0.00    -0.312 N 
ATOM     27  H   UNL     1      -3.358  -9.812   2.418  0.00  0.00    +0.149 HD
BRANCH  26  28
ATOM     28  C   UNL     1      -2.773  -8.858   4.223  0.00  0.00    +0.070 C 
ATOM     29  C   UNL     1      -1.254  -8.680   4.246  0.00  0.00    +0.028 C 
BRANCH  28  30
ATOM     30  C   UNL     1      -3.147 -10.143   4.966  0.00  0.00    +0.026 C 
BRANCH  30  31
ATOM     31  C   UNL     1      -4.671 -10.258   5.051  0.00  0.00    +0.037 C 
BRANCH  31  32
ATOM     32  C   UNL     1      -5.039 -11.523   5.783  0.00  0.00    -0.047 A 
ATOM     33  C   UNL     1      -5.215 -12.700   5.079  0.00  0.00    +0.007 A 
ATOM     34  C   UNL     1      -5.553 -13.861   5.747  0.00  0.00    +0.046 A 
ATOM     35  C   UNL     1      -5.715 -13.845   7.125  0.00  0.00    +0.120 A 
ATOM     36  C   UNL     1      -5.537 -12.663   7.829  0.00  0.00    +0.046 A 
ATOM     37  C   UNL     1      -5.194 -11.505   7.156  0.00  0.00    +0.007 A 
BRANCH  35  38
ATOM     38  O   UNL     1      -6.048 -14.986   7.785  0.00  0.00    -0.495 OA
ATOM     39  C   UNL     1      -6.198 -14.895   9.203  0.00  0.00    +0.277 C 
ENDBRANCH  35  38
ENDBRANCH  31  32
ENDBRANCH  30  31
ENDBRANCH  28  30
ENDBRANCH  26  28
ENDBRANCH   5  24
TORSDOF 9
