REMARK  Name = ZINC01342975
REMARK  5 active torsions:
REMARK  status: ('A' for Active; 'I' for Inactive)
REMARK    1  A    between atoms: C_1  and  C_2
REMARK    2  A    between atoms: C_5  and  C_25
REMARK    3  A    between atoms: C_10  and  N_24
REMARK    4  A    between atoms: C_11  and  C_15
REMARK    5  A    between atoms: C_20  and  C_23
REMARK                            x       y       z     vdW  Elec       q    Type
REMARK                         _______ _______ _______ _____ _____    ______ ____
ROOT
ATOM      1  C   UNL     1       1.493  -4.021   2.507  0.00  0.00    +0.044 C 
ATOM      2  C   UNL     1       0.436  -3.738   1.471  0.00  0.00    -0.041 A 
ATOM      3  C   UNL     1      -0.462  -4.702   1.130  0.00  0.00    +0.004 A 
ATOM      4  C   UNL     1      -1.447  -4.459   0.174  0.00  0.00    +0.006 A 
ATOM      5  C   UNL     1      -1.540  -3.250  -0.445  0.00  0.00    -0.024 A 
ATOM      6  C   UNL     1      -0.631  -2.228  -0.121  0.00  0.00    +0.075 A 
ATOM      7  C   UNL     1       0.372  -2.475   0.853  0.00  0.00    +0.004 A 
ATOM      8  C   UNL     1       1.283  -1.466   1.184  0.00  0.00    +0.022 A 
ATOM      9  C   UNL     1       1.181  -0.220   0.540  0.00  0.00    +0.030 A 
ATOM     10  C   UNL     1       2.014   0.962   0.727  0.00  0.00    +0.053 A 
ATOM     11  C   UNL     1       1.733   2.084  -0.017  0.00  0.00    +0.097 A 
ATOM     12  S   UNL     1       0.332   1.593  -1.002  0.00  0.00    -0.062 S 
ATOM     13  C   UNL     1       0.141  -0.075  -0.419  0.00  0.00    +0.111 A 
ATOM     14  N   UNL     1      -0.700  -1.033  -0.714  0.00  0.00    -0.239 NA
ATOM     15  C   UNL     1      -2.613  -3.009  -1.475  0.00  0.00    +0.046 C 
ENDROOT
BRANCH  11  16
ATOM     16  C   UNL     1       2.400   3.334  -0.003  0.00  0.00    +0.255 C 
ATOM     17  O   UNL     1       3.614   3.376   0.088  0.00  0.00    -0.269 OA
ATOM     18  N   UNL     1       1.691   4.477  -0.092  0.00  0.00    -0.297 N 
ATOM     19  C   UNL     1       2.373   5.774  -0.197  0.00  0.00    +0.108 C 
ATOM     20  C   UNL     1       1.848   6.702   0.896  0.00  0.00    +0.022 C 
ATOM     21  C   UNL     1       0.322   6.784   0.804  0.00  0.00    -0.011 C 
ATOM     22  C   UNL     1      -0.279   5.393   1.019  0.00  0.00    +0.022 C 
ATOM     23  C   UNL     1       0.222   4.450  -0.079  0.00  0.00    +0.108 C 
ATOM     24  C   UNL     1      -0.203   7.738   1.879  0.00  0.00    +0.007 C 
ENDBRANCH  11  16
BRANCH  10  25
ATOM     25  N   UNL     1       3.064   0.955   1.633  0.00  0.00    -0.356 N 
ATOM     26  H   UNL     1       3.252   0.157   2.152  0.00  0.00    +0.142 HD
ATOM     27  H   UNL     1       3.610   1.748   1.748  0.00  0.00    +0.142 HD
ENDBRANCH  10  25
TORSDOF 2
