REMARK  Name = ZINC09431363
REMARK  9 active torsions:
REMARK  status: ('A' for Active; 'I' for Inactive)
REMARK    1  A    between atoms: C_1  and  O_2
REMARK    2  A    between atoms: O_2  and  C_3
REMARK    3  A    between atoms: C_3  and  C_4
REMARK    4  A    between atoms: C_4  and  C_5
REMARK    5  A    between atoms: C_5  and  N_6
REMARK    6  A    between atoms: C_18  and  C_19
REMARK    7  A    between atoms: C_19  and  C_20
REMARK    8  A    between atoms: C_20  and  C_21
REMARK    9  A    between atoms: C_21  and  C_22
REMARK                            x       y       z     vdW  Elec       q    Type
REMARK                         _______ _______ _______ _____ _____    ______ ____
ROOT
ATOM      1  N   UNL     1      -2.400  -4.236  -0.029  0.00  0.00    -0.276 N 
ATOM      2  C   UNL     1      -2.315  -4.897  -1.205  0.00  0.00    +0.270 A 
ATOM      3  O   UNL     1      -2.359  -4.284  -2.257  0.00  0.00    -0.266 OA
ATOM      4  C   UNL     1      -2.174  -6.291  -1.206  0.00  0.00    +0.101 A 
ATOM      5  C   UNL     1      -2.119  -7.026  -0.020  0.00  0.00    +0.071 A 
ATOM      6  C   UNL     1      -1.978  -8.397  -0.218  0.00  0.00    +0.034 A 
ATOM      7  C   UNL     1      -1.909  -8.889  -1.473  0.00  0.00    +0.048 A 
ATOM      8  S   UNL     1      -2.029  -7.534  -2.460  0.00  0.00    -0.090 S 
ATOM      9  N   UNL     1      -2.212  -6.295   1.173  0.00  0.00    -0.264 N 
ATOM     10  C   UNL     1      -2.342  -4.939   1.160  0.00  0.00    +0.239 A 
ATOM     11  N   UNL     1      -2.396  -4.551   2.415  0.00  0.00    -0.110 NA
ATOM     12  N   UNL     1      -2.302  -5.572   3.192  0.00  0.00    -0.132 NA
ATOM     13  C   UNL     1      -2.196  -6.665   2.485  0.00  0.00    +0.139 A 
ENDROOT
BRANCH   1  14
ATOM     14  C   UNL     1      -2.547  -2.779  -0.014  0.00  0.00    +0.130 C 
BRANCH  14  15
ATOM     15  C   UNL     1      -1.163  -2.127   0.007  0.00  0.00    +0.050 C 
BRANCH  15  16
ATOM     16  C   UNL     1      -1.316  -0.605   0.023  0.00  0.00    +0.161 C 
BRANCH  16  18
ATOM     17  C   UNL     1      -0.054   1.433   0.059  0.00  0.00    +0.193 C 
ATOM     18  O   UNL     1      -0.024   0.004   0.043  0.00  0.00    -0.383 OA
ENDBRANCH  16  18
ENDBRANCH  15  16
ENDBRANCH  14  15
ENDBRANCH   1  14
BRANCH  13  19
ATOM     19  C   UNL     1      -2.064  -8.068   3.019  0.00  0.00    +0.077 C 
BRANCH  19  20
ATOM     20  C   UNL     1      -0.584  -8.398   3.223  0.00  0.00    +0.017 C 
BRANCH  20  21
ATOM     21  C   UNL     1      -0.449  -9.822   3.765  0.00  0.00    +0.096 C 
BRANCH  21  22
ATOM     22  C   UNL     1       1.008 -10.148   3.966  0.00  0.00    +0.216 C 
ATOM     23  O   UNL     1       1.856  -9.322   3.701  0.00  0.00    -0.276 OA
ATOM     24  N   UNL     1       1.370 -11.357   4.439  0.00  0.00    -0.298 N 
ATOM     25  C   UNL     1       0.354 -12.370   4.758  0.00  0.00    +0.126 C 
ATOM     26  C   UNL     1       0.678 -13.651   3.979  0.00  0.00    +0.125 C 
ATOM     27  N   UNL     1       2.095 -13.980   4.185  0.00  0.00    -0.314 N 
ATOM     28  C   UNL     1       3.111 -12.967   3.867  0.00  0.00    +0.125 C 
ATOM     29  C   UNL     1       2.788 -11.688   4.640  0.00  0.00    +0.126 C 
ATOM     30  C   UNL     1       2.468 -15.227   4.673  0.00  0.00    +0.099 A 
ATOM     31  C   UNL     1       1.490 -16.126   5.087  0.00  0.00    +0.042 A 
ATOM     32  C   UNL     1       1.875 -17.363   5.571  0.00  0.00    +0.005 A 
ATOM     33  C   UNL     1       3.231 -17.661   5.625  0.00  0.00    +0.018 A 
ATOM     34  C   UNL     1       4.147 -16.721   5.198  0.00  0.00    +0.084 A 
ATOM     35  N   UNL     1       3.750 -15.550   4.736  0.00  0.00    -0.350 N 
ATOM     36  H   UNL     1       4.415 -14.909   4.438  0.00  0.00    +0.166 HD
ENDBRANCH  21  22
ENDBRANCH  20  21
ENDBRANCH  19  20
ENDBRANCH  13  19
TORSDOF 8
