REMARK  Name = ZINC35442707
REMARK  12 active torsions:
REMARK  status: ('A' for Active; 'I' for Inactive)
REMARK    1  A    between atoms: C_1  and  C_2
REMARK    2  A    between atoms: C_2  and  C_3
REMARK    3  A    between atoms: C_3  and  C_4
REMARK    4  A    between atoms: C_7  and  C_9
REMARK    5  A    between atoms: C_9  and  C_10
REMARK    6  A    between atoms: C_13  and  C_30
REMARK    7  A    between atoms: C_15  and  C_20
REMARK    8  A    between atoms: C_18  and  C_19
REMARK    9  A    between atoms: C_20  and  N_21
REMARK   10  A    between atoms: C_24  and  C_27
REMARK   11  A    between atoms: C_30  and  C_31
REMARK   12  A    between atoms: C_30  and  C_32
REMARK                            x       y       z     vdW  Elec       q    Type
REMARK                         _______ _______ _______ _____ _____    ______ ____
ROOT
ATOM      1  C   UNL     1      -3.381  -4.911  -1.620  0.00  0.00    +0.024 C 
ATOM      2  C   UNL     1      -2.862  -6.325  -1.887  0.00  0.00    +0.012 C 
ATOM      3  C   UNL     1      -2.254  -6.362  -3.295  0.00  0.00    -0.003 C 
ATOM      4  C   UNL     1      -3.381  -6.178  -4.313  0.00  0.00    -0.002 C 
ATOM      5  C   UNL     1      -4.227  -4.995  -3.940  0.00  0.00    -0.026 C 
ATOM      6  C   UNL     1      -4.228  -4.449  -2.769  0.00  0.00    -0.073 C 
ATOM      7  C   UNL     1      -5.142  -3.271  -2.546  0.00  0.00    +0.039 C 
ENDROOT
BRANCH   3   8
ATOM      8  C   UNL     1      -1.565  -7.708  -3.522  0.00  0.00    -0.014 C 
ATOM      9  C   UNL     1      -0.494  -7.921  -2.450  0.00  0.00    +0.007 C 
ATOM     10  C   UNL     1      -2.599  -8.832  -3.439  0.00  0.00    +0.007 C 
ENDBRANCH   3   8
BRANCH   1  11
ATOM     11  C   UNL     1      -2.195  -3.959  -1.450  0.00  0.00    +0.105 C 
BRANCH  11  15
ATOM     12  C   UNL     1      -3.428  -0.570  -1.131  0.00  0.00    +0.217 A 
ATOM     13  N   UNL     1      -3.325  -0.950   0.112  0.00  0.00    -0.112 NA
ATOM     14  N   UNL     1      -2.889  -2.160   0.154  0.00  0.00    -0.112 NA
ATOM     15  C   UNL     1      -2.699  -2.593  -1.060  0.00  0.00    +0.218 A 
ATOM     16  O   UNL     1      -3.039  -1.601  -1.900  0.00  0.00    -0.425 OA
BRANCH  12  17
ATOM     17  C   UNL     1      -3.901   0.776  -1.616  0.00  0.00    +0.097 C 
BRANCH  17  19
ATOM     18  C   UNL     1      -3.184   3.086  -2.242  0.00  0.00    +0.004 C 
ATOM     19  C   UNL     1      -2.704   1.719  -1.749  0.00  0.00    +0.006 C 
ENDBRANCH  17  19
ENDBRANCH  12  17
ENDBRANCH  11  15
ENDBRANCH   1  11
BRANCH   4  20
ATOM     20  C   UNL     1      -2.779  -5.949  -5.701  0.00  0.00    -0.071 C 
BRANCH  20  21
ATOM     21  N   UNL     1      -2.582  -7.242  -6.369  0.00  0.00    +0.380 N 
ATOM     22  C   UNL     1      -3.889  -7.843  -6.661  0.00  0.00    -0.078 C 
ATOM     23  C   UNL     1      -3.690  -9.227  -7.284  0.00  0.00    -0.006 C 
ATOM     24  C   UNL     1      -2.889  -9.087  -8.581  0.00  0.00    +0.071 C 
ATOM     25  C   UNL     1      -1.559  -8.391  -8.276  0.00  0.00    -0.006 C 
ATOM     26  C   UNL     1      -1.837  -7.039  -7.617  0.00  0.00    -0.078 C 
ATOM     27  H   UNL     1      -2.060  -7.857  -5.762  0.00  0.00    -0.082 HD
BRANCH  24  28
ATOM     28  C   UNL     1      -2.622 -10.453  -9.159  0.00  0.00    +0.213 C 
ATOM     29  O   UNL     1      -3.031 -11.443  -8.590  0.00  0.00    -0.276 OA
ATOM     30  N   UNL     1      -1.927 -10.575 -10.308  0.00  0.00    -0.329 N 
ATOM     31  H   UNL     1      -1.600  -9.784 -10.763  0.00  0.00    +0.145 HD
ATOM     32  H   UNL     1      -1.756 -11.454 -10.679  0.00  0.00    +0.145 HD
ENDBRANCH  24  28
ENDBRANCH  20  21
ENDBRANCH   4  20
TORSDOF 8
