REMARK  Name = ZINC66626713
REMARK  8 active torsions:
REMARK  status: ('A' for Active; 'I' for Inactive)
REMARK    1  A    between atoms: C_1  and  C_2
REMARK    2  A    between atoms: C_5  and  C_12
REMARK    3  A    between atoms: C_8  and  C_10
REMARK    4  A    between atoms: C_8  and  C_11
REMARK    5  A    between atoms: C_12  and  C_13
REMARK    6  A    between atoms: N_15  and  C_16
REMARK    7  A    between atoms: C_16  and  C_17
REMARK    8  A    between atoms: C_21  and  N_23
REMARK                            x       y       z     vdW  Elec       q    Type
REMARK                         _______ _______ _______ _____ _____    ______ ____
ROOT
ATOM      1  C   UNL     1       1.261  -2.335  -3.609  0.00  0.00    +0.214 C 
ATOM      2  O   UNL     1       0.220  -1.781  -3.326  0.00  0.00    -0.276 OA
ATOM      3  N   UNL     1       1.553  -2.604  -4.897  0.00  0.00    -0.311 N 
ATOM      4  H   UNL     1       2.386  -3.047  -5.124  0.00  0.00    +0.149 HD
ENDROOT
BRANCH   1   5
ATOM      5  C   UNL     1       2.228  -2.723  -2.521  0.00  0.00    +0.099 C 
BRANCH   5   9
ATOM      6  C   UNL     1       0.901   1.158   0.333  0.00  0.00    +0.007 C 
ATOM      7  C   UNL     1       0.997  -0.367   0.265  0.00  0.00    -0.013 C 
ATOM      8  C   UNL     1       1.565  -0.783  -1.094  0.00  0.00    +0.007 C 
ATOM      9  C   UNL     1       1.660  -2.308  -1.162  0.00  0.00    -0.002 C 
ATOM     10  C   UNL     1       2.581  -2.812  -0.049  0.00  0.00    +0.010 C 
ATOM     11  C   UNL     1       2.013  -2.397   1.310  0.00  0.00    -0.034 C 
ATOM     12  C   UNL     1       1.918  -0.871   1.378  0.00  0.00    +0.009 C 
ATOM     13  C   UNL     1       0.620  -3.003   1.487  0.00  0.00    +0.011 C 
ATOM     14  C   UNL     1       2.934  -2.900   2.423  0.00  0.00    +0.011 C 
ENDBRANCH   5   9
ENDBRANCH   1   5
BRANCH   3  15
ATOM     15  C   UNL     1       0.613  -2.227  -5.956  0.00  0.00    +0.139 C 
BRANCH  15  16
ATOM     16  C   UNL     1       1.173  -2.636  -7.294  0.00  0.00    -0.029 A 
ATOM     17  C   UNL     1       1.974  -1.760  -8.004  0.00  0.00    +0.005 A 
ATOM     18  C   UNL     1       2.489  -2.132  -9.232  0.00  0.00    +0.002 A 
ATOM     19  C   UNL     1       2.205  -3.379  -9.754  0.00  0.00    +0.023 A 
ATOM     20  C   UNL     1       1.401  -4.260  -9.043  0.00  0.00    +0.035 A 
ATOM     21  C   UNL     1       0.890  -3.886  -7.807  0.00  0.00    +0.028 A 
BRANCH  20  22
ATOM     22  N   UNL     1       1.112  -5.525  -9.568  0.00  0.00    -0.270 N 
ATOM     23  C   UNL     1      -0.081  -6.101  -9.319  0.00  0.00    +0.301 C 
ATOM     24  O   UNL     1      -0.941  -5.484  -8.721  0.00  0.00    -0.253 OA
ATOM     25  N   UNL     1      -0.320  -7.361  -9.733  0.00  0.00    -0.313 N 
ATOM     26  H   UNL     1       1.770  -5.987 -10.111  0.00  0.00    +0.156 HD
ATOM     27  H   UNL     1       0.366  -7.853 -10.210  0.00  0.00    +0.146 HD
ATOM     28  H   UNL     1      -1.179  -7.776  -9.554  0.00  0.00    +0.146 HD
ENDBRANCH  20  22
ENDBRANCH  15  16
ENDBRANCH   3  15
TORSDOF 5
