REMARK  Name = ZINC43485844
REMARK  5 active torsions:
REMARK  status: ('A' for Active; 'I' for Inactive)
REMARK    1  A    between atoms: C_1  and  C_2
REMARK    2  A    between atoms: C_2  and  C_4
REMARK    3  A    between atoms: C_2  and  N_9
REMARK    4  A    between atoms: N_12  and  C_13
REMARK    5  A    between atoms: C_18  and  N_19
REMARK                            x       y       z     vdW  Elec       q    Type
REMARK                         _______ _______ _______ _____ _____    ______ ____
ROOT
ATOM      1  N   UNL     1      -1.691  -0.026  -0.107  0.00  0.00    -0.292 N 
ATOM      2  C   UNL     1      -2.356  -0.162   1.057  0.00  0.00    +0.304 C 
ATOM      3  O   UNL     1      -2.111   0.582   1.987  0.00  0.00    -0.252 OA
ATOM      4  N   UNL     1      -3.293  -1.122   1.190  0.00  0.00    -0.268 N 
ATOM      5  H   UNL     1      -1.887  -0.620  -0.849  0.00  0.00    +0.151 HD
ATOM      6  H   UNL     1      -3.547  -1.661   0.425  0.00  0.00    +0.156 HD
ENDROOT
BRANCH   4   7
ATOM      7  C   UNL     1      -3.901  -1.340   2.435  0.00  0.00    +0.056 A 
ATOM      8  C   UNL     1      -3.242  -0.984   3.602  0.00  0.00    +0.025 A 
ATOM      9  C   UNL     1      -3.843  -1.201   4.828  0.00  0.00    +0.002 A 
ATOM     10  C   UNL     1      -5.101  -1.772   4.895  0.00  0.00    +0.002 A 
ATOM     11  C   UNL     1      -5.764  -2.131   3.737  0.00  0.00    +0.025 A 
ATOM     12  C   UNL     1      -5.171  -1.911   2.502  0.00  0.00    +0.051 A 
BRANCH  12  13
ATOM     13  N   UNL     1      -5.843  -2.267   1.328  0.00  0.00    -0.328 N 
ATOM     14  C   UNL     1      -5.769  -3.575   0.660  0.00  0.00    +0.105 C 
ATOM     15  C   UNL     1      -6.650  -3.495  -0.604  0.00  0.00    +0.020 C 
ATOM     16  C   UNL     1      -6.721  -1.971  -0.882  0.00  0.00    +0.020 C 
ATOM     17  C   UNL     1      -6.749  -1.395   0.558  0.00  0.00    +0.105 C 
ENDBRANCH  12  13
ENDBRANCH   4   7
BRANCH   1  19
ATOM     18  C   UNL     1      -1.344   2.333  -0.652  0.00  0.00    +0.033 C 
ATOM     19  C   UNL     1      -0.673   1.017  -0.252  0.00  0.00    +0.108 C 
BRANCH  19  20
ATOM     20  C   UNL     1       0.313   0.612  -1.317  0.00  0.00    +0.010 A 
ATOM     21  C   UNL     1       1.661   0.758  -1.333  0.00  0.00    +0.013 A 
ATOM     22  C   UNL     1       2.371   0.306  -2.429  0.00  0.00    +0.008 A 
ATOM     23  C   UNL     1       1.699  -0.269  -3.457  0.00  0.00    +0.045 A 
ATOM     24  S   UNL     1       0.010  -0.190  -2.883  0.00  0.00    -0.100 S 
ENDBRANCH  19  20
ENDBRANCH   1  19
TORSDOF 4
