REMARK  Name = ZINC16567771
REMARK  14 active torsions:
REMARK  status: ('A' for Active; 'I' for Inactive)
REMARK    1  A    between atoms: C_1  and  C_2
REMARK    2  A    between atoms: C_2  and  C_3
REMARK    3  A    between atoms: C_3  and  C_4
REMARK    4  A    between atoms: C_4  and  C_5
REMARK    5  A    between atoms: N_7  and  C_8
REMARK    6  A    between atoms: C_8  and  C_10
REMARK    7  A    between atoms: C_8  and  C_17
REMARK    8  A    between atoms: C_10  and  C_11
REMARK    9  A    between atoms: C_20  and  S_31
REMARK   10  A    between atoms: N_21  and  C_22
REMARK   11  A    between atoms: C_25  and  N_28
REMARK   12  A    between atoms: S_31  and  C_32
REMARK   13  A    between atoms: C_32  and  C_33
REMARK   14  A    between atoms: C_37  and  C_39
REMARK                            x       y       z     vdW  Elec       q    Type
REMARK                         _______ _______ _______ _____ _____    ______ ____
ROOT
ATOM      1  C   UNL     1      -0.148   9.862  -1.624  0.00  0.00    +0.159 A 
ATOM      2  N   UNL     1      -0.132   9.562  -0.356  0.00  0.00    -0.131 NA
ATOM      3  N   UNL     1      -0.118   8.286  -0.203  0.00  0.00    -0.122 NA
ATOM      4  C   UNL     1      -0.116   7.695  -1.375  0.00  0.00    +0.196 A 
ATOM      5  N   UNL     1      -0.138   8.683  -2.321  0.00  0.00    -0.273 N 
ENDROOT
BRANCH   5   6
ATOM      6  C   UNL     1      -0.150   8.522  -3.715  0.00  0.00    +0.050 A 
ATOM      7  C   UNL     1       0.923   8.967  -4.475  0.00  0.00    +0.028 A 
ATOM      8  C   UNL     1       0.911   8.803  -5.846  0.00  0.00    +0.035 A 
ATOM      9  C   UNL     1      -0.173   8.206  -6.463  0.00  0.00    +0.126 A 
ATOM     10  C   UNL     1      -1.246   7.767  -5.709  0.00  0.00    +0.035 A 
ATOM     11  C   UNL     1      -1.237   7.923  -4.336  0.00  0.00    +0.028 A 
BRANCH   9  12
ATOM     12  N   UNL     1      -0.186   8.037  -7.933  0.00  0.00    +0.056 N 
ATOM     13  O   UNL     1      -1.141   7.511  -8.478  0.00  0.00    -0.126 OA
ATOM     14  O   UNL     1       0.758   8.423  -8.599  0.00  0.00    -0.126 OA
ENDBRANCH   9  12
ENDBRANCH   5   6
BRANCH   1  15
ATOM     15  C   UNL     1      -0.172  11.248  -2.214  0.00  0.00    +0.146 C 
BRANCH  15  18
ATOM     16  C   UNL     1      -1.722  13.125  -2.107  0.00  0.00    +0.214 C 
ATOM     17  O   UNL     1      -1.422  13.400  -3.249  0.00  0.00    -0.276 OA
ATOM     18  N   UNL     1      -1.153  12.067  -1.497  0.00  0.00    -0.305 N 
ATOM     19  H   UNL     1      -1.393  11.847  -0.583  0.00  0.00    +0.149 HD
BRANCH  16  20
ATOM     20  C   UNL     1      -2.732  13.967  -1.369  0.00  0.00    +0.096 C 
BRANCH  20  21
ATOM     21  C   UNL     1      -3.219  15.095  -2.281  0.00  0.00    +0.009 C 
BRANCH  21  23
ATOM     22  C   UNL     1      -4.730  17.078  -2.444  0.00  0.00    +0.004 C 
ATOM     23  C   UNL     1      -4.243  15.950  -1.532  0.00  0.00    -0.003 C 
ENDBRANCH  21  23
ENDBRANCH  20  21
ENDBRANCH  16  20
ENDBRANCH  15  18
BRANCH  15  24
ATOM     24  C   UNL     1       1.214  11.883  -2.083  0.00  0.00    +0.065 C 
BRANCH  24  25
ATOM     25  C   UNL     1       1.223  13.218  -2.780  0.00  0.00    -0.045 A 
ATOM     26  C   UNL     1       1.573  13.299  -4.115  0.00  0.00    +0.004 A 
ATOM     27  C   UNL     1       1.576  14.523  -4.757  0.00  0.00    +0.000 A 
ATOM     28  C   UNL     1       1.240  15.669  -4.060  0.00  0.00    +0.000 A 
ATOM     29  C   UNL     1       0.896  15.590  -2.724  0.00  0.00    +0.000 A 
ATOM     30  C   UNL     1       0.887  14.364  -2.084  0.00  0.00    +0.004 A 
ENDBRANCH  24  25
ENDBRANCH  15  24
ENDBRANCH   1  15
BRANCH   4  31
ATOM     31  S   UNL     1      -0.095   5.958  -1.674  0.00  0.00    -0.081 S 
BRANCH  31  32
ATOM     32  C   UNL     1      -0.070   5.347   0.030  0.00  0.00    +0.112 C 
BRANCH  32  33
ATOM     33  C   UNL     1      -0.050   3.840   0.022  0.00  0.00    -0.037 A 
ATOM     34  C   UNL     1       1.157   3.165   0.008  0.00  0.00    +0.004 A 
ATOM     35  C   UNL     1       1.175   1.783   0.000  0.00  0.00    +0.001 A 
ATOM     36  C   UNL     1      -0.013   1.076   0.008  0.00  0.00    +0.003 A 
ATOM     37  C   UNL     1      -1.219   1.750   0.017  0.00  0.00    -0.050 A 
ATOM     38  C   UNL     1      -1.238   3.133   0.030  0.00  0.00    +0.007 A 
ATOM     39  C   UNL     1      -2.514   0.979   0.019  0.00  0.00    +0.044 C 
ENDBRANCH  32  33
ENDBRANCH  31  32
ENDBRANCH   4  31
TORSDOF 12
