REMARK  Name = ZINC34996211
REMARK  8 active torsions:
REMARK  status: ('A' for Active; 'I' for Inactive)
REMARK    1  A    between atoms: C_1  and  C_2
REMARK    2  A    between atoms: C_2  and  C_4
REMARK    3  A    between atoms: C_2  and  N_11
REMARK    4  A    between atoms: N_11  and  C_12
REMARK    5  A    between atoms: C_18  and  C_20
REMARK    6  A    between atoms: C_20  and  C_21
REMARK    7  A    between atoms: C_20  and  C_22
REMARK    8  A    between atoms: C_20  and  C_23
REMARK                            x       y       z     vdW  Elec       q    Type
REMARK                         _______ _______ _______ _____ _____    ______ ____
ROOT
ATOM      1  N   UNL     1       0.549  -0.287  -1.222  0.00  0.00    +0.385 N 
ATOM      2  H   UNL     1       1.472   0.119  -1.184  0.00  0.00    -0.085 HD
ATOM      3  H   UNL     1       0.625  -1.292  -1.269  0.00  0.00    -0.085 HD
ENDROOT
BRANCH   1   4
ATOM      4  C   UNL     1      -0.153   0.207  -2.414  0.00  0.00    -0.067 C 
ATOM      5  C   UNL     1      -1.546  -0.423  -2.483  0.00  0.00    -0.015 C 
ATOM      6  C   UNL     1      -1.414  -1.945  -2.563  0.00  0.00    -0.002 C 
ATOM      7  C   UNL     1      -0.621  -2.323  -3.816  0.00  0.00    +0.000 C 
ATOM      8  C   UNL     1       0.772  -1.693  -3.747  0.00  0.00    +0.002 C 
ATOM      9  C   UNL     1       0.640  -0.171  -3.667  0.00  0.00    -0.020 C 
BRANCH   9  10
ATOM     10  C   UNL     1       2.033   0.459  -3.598  0.00  0.00    -0.036 C 
ATOM     11  C   UNL     1       2.968  -0.456  -2.805  0.00  0.00    +0.011 C 
ATOM     12  C   UNL     1       2.580   0.642  -5.015  0.00  0.00    +0.011 C 
ATOM     13  C   UNL     1       1.943   1.820  -2.906  0.00  0.00    +0.011 C 
ENDBRANCH   9  10
ENDBRANCH   1   4
BRANCH   1  15
ATOM     14  C   UNL     1      -0.213   1.615   0.119  0.00  0.00    -0.009 C 
ATOM     15  C   UNL     1      -0.203   0.092  -0.019  0.00  0.00    -0.043 C 
BRANCH  15  16
ATOM     16  C   UNL     1       0.450  -0.518   1.194  0.00  0.00    -0.048 A 
ATOM     17  C   UNL     1       1.796  -0.833   1.170  0.00  0.00    +0.003 A 
ATOM     18  C   UNL     1       2.395  -1.392   2.283  0.00  0.00    +0.000 A 
ATOM     19  C   UNL     1       1.649  -1.637   3.421  0.00  0.00    +0.001 A 
ATOM     20  C   UNL     1       0.303  -1.323   3.446  0.00  0.00    +0.015 A 
ATOM     21  C   UNL     1      -0.296  -0.759   2.334  0.00  0.00    +0.019 A 
ATOM     22 BR   UNL     1      -2.136  -0.322   2.370  0.00  0.00    -0.050 Br
ENDBRANCH  15  16
ENDBRANCH   1  15
TORSDOF 4
