REMARK  Name = ZINC00921227
REMARK  9 active torsions:
REMARK  status: ('A' for Active; 'I' for Inactive)
REMARK    1  A    between atoms: C_1  and  C_2
REMARK    2  A    between atoms: C_7  and  N_8
REMARK    3  A    between atoms: N_8  and  C_9
REMARK    4  A    between atoms: C_9  and  C_11
REMARK    5  A    between atoms: C_9  and  C_18
REMARK    6  A    between atoms: C_14  and  O_17
REMARK    7  A    between atoms: N_20  and  C_21
REMARK    8  A    between atoms: C_27  and  C_29
REMARK    9  A    between atoms: C_29  and  N_30
REMARK                            x       y       z     vdW  Elec       q    Type
REMARK                         _______ _______ _______ _____ _____    ______ ____
ROOT
ATOM      1  N   UNL     1      -4.659   3.413  -1.673  0.00  0.00    -0.254 N 
ATOM      2  C   UNL     1      -3.660   4.277  -1.404  0.00  0.00    +0.242 C 
ATOM      3  O   UNL     1      -3.582   5.323  -2.014  0.00  0.00    -0.273 OA
ENDROOT
BRANCH   1  10
ATOM      4  C   UNL     1      -3.491   1.092  -2.832  0.00  0.00    +0.045 C 
ATOM      5  C   UNL     1      -4.192   1.050  -1.499  0.00  0.00    -0.029 A 
ATOM      6  C   UNL     1      -4.277  -0.138  -0.800  0.00  0.00    +0.005 A 
ATOM      7  C   UNL     1      -4.925  -0.178   0.421  0.00  0.00    +0.000 A 
ATOM      8  C   UNL     1      -5.485   0.971   0.949  0.00  0.00    +0.002 A 
ATOM      9  C   UNL     1      -5.398   2.163   0.257  0.00  0.00    +0.024 A 
ATOM     10  C   UNL     1      -4.748   2.207  -0.970  0.00  0.00    +0.040 A 
ENDBRANCH   1  10
BRANCH   1  11
ATOM     11  C   UNL     1      -5.651   3.737  -2.701  0.00  0.00    +0.197 C 
BRANCH  11  12
ATOM     12  C   UNL     1      -6.571   2.560  -2.899  0.00  0.00    -0.018 A 
ATOM     13  C   UNL     1      -7.352   2.110  -1.851  0.00  0.00    +0.009 A 
ATOM     14  C   UNL     1      -8.200   1.035  -2.032  0.00  0.00    +0.046 A 
ATOM     15  C   UNL     1      -8.260   0.400  -3.264  0.00  0.00    +0.117 A 
ATOM     16  C   UNL     1      -7.471   0.850  -4.312  0.00  0.00    +0.046 A 
ATOM     17  C   UNL     1      -6.629   1.929  -4.128  0.00  0.00    +0.009 A 
BRANCH  15  18
ATOM     18  O   UNL     1      -9.089  -0.662  -3.442  0.00  0.00    -0.507 OA
ATOM     19  H   UNL     1      -8.682  -1.516  -3.243  0.00  0.00    +0.292 HD
ENDBRANCH  15  18
ENDBRANCH  11  12
BRANCH  11  20
ATOM     20  C   UNL     1      -6.454   4.935  -2.264  0.00  0.00    +0.239 C 
ATOM     21  O   UNL     1      -6.221   5.466  -1.199  0.00  0.00    -0.273 OA
ATOM     22  N   UNL     1      -7.432   5.416  -3.057  0.00  0.00    -0.311 N 
ATOM     23  H   UNL     1      -7.618   4.992  -3.909  0.00  0.00    +0.149 HD
BRANCH  22  24
ATOM     24  C   UNL     1      -8.213   6.581  -2.633  0.00  0.00    +0.073 C 
ATOM     25  C   UNL     1      -9.366   6.123  -1.738  0.00  0.00    +0.022 C 
ATOM     26  C   UNL     1     -10.182   7.339  -1.294  0.00  0.00    +0.002 C 
ATOM     27  C   UNL     1     -10.744   8.052  -2.525  0.00  0.00    +0.000 C 
ATOM     28  C   UNL     1      -9.591   8.510  -3.421  0.00  0.00    +0.002 C 
ATOM     29  C   UNL     1      -8.775   7.294  -3.864  0.00  0.00    +0.022 C 
ENDBRANCH  22  24
ENDBRANCH  11  20
ENDBRANCH   1  11
BRANCH   2  30
ATOM     30  C   UNL     1      -2.639   3.945  -0.347  0.00  0.00    +0.242 C 
BRANCH  30  31
ATOM     31  N   UNL     1      -1.666   5.035  -0.246  0.00  0.00    -0.235 N 
ATOM     32  C   UNL     1      -0.492   5.158  -0.950  0.00  0.00    +0.090 A 
ATOM     33  C   UNL     1       0.140   4.384  -1.918  0.00  0.00    +0.029 A 
ATOM     34  C   UNL     1       1.338   4.789  -2.436  0.00  0.00    +0.002 A 
ATOM     35  C   UNL     1       1.927   5.974  -2.012  0.00  0.00    +0.002 A 
ATOM     36  C   UNL     1       1.325   6.753  -1.068  0.00  0.00    +0.032 A 
ATOM     37  C   UNL     1       0.098   6.358  -0.517  0.00  0.00    +0.113 A 
ATOM     38  N   UNL     1      -0.716   6.904   0.408  0.00  0.00    -0.129 NA
ATOM     39  N   UNL     1      -1.750   6.160   0.588  0.00  0.00    -0.064 NA
ENDBRANCH  30  31
ENDBRANCH   2  30
TORSDOF 8
