REMARK  Name = ZINC09033500
REMARK  15 active torsions:
REMARK  status: ('A' for Active; 'I' for Inactive)
REMARK    1  A    between atoms: C_1  and  C_2
REMARK    2  A    between atoms: C_4  and  O_33
REMARK    3  A    between atoms: C_5  and  C_32
REMARK    4  A    between atoms: C_6  and  C_31
REMARK    5  A    between atoms: C_7  and  C_8
REMARK    6  A    between atoms: C_8  and  C_9
REMARK    7  A    between atoms: C_9  and  C_10
REMARK    8  A    between atoms: C_10  and  C_11
REMARK    9  A    between atoms: C_10  and  C_12
REMARK   10  A    between atoms: C_10  and  O_30
REMARK   11  A    between atoms: C_13  and  C_14
REMARK   12  A    between atoms: C_21  and  O_22
REMARK   13  A    between atoms: O_22  and  C_23
REMARK   14  A    between atoms: C_29  and  N_69
REMARK   15  A    between atoms: O_33  and  C_34
REMARK                            x       y       z     vdW  Elec       q    Type
REMARK                         _______ _______ _______ _____ _____    ______ ____
ROOT
ATOM      1  C   UNL     1      -0.543  -1.364   0.497  0.00  0.00    -0.069 C 
ATOM      2  C   UNL     1      -0.722  -0.204   0.522  0.00  0.00    -0.110 C 
ENDROOT
BRANCH   2   3
ATOM      3  C   UNL     1      -0.947   1.250   0.554  0.00  0.00    +0.043 C 
ATOM      4  C   UNL     1      -1.577   1.627   1.870  0.00  0.00    -0.001 A 
ATOM      5  C   UNL     1      -2.611   2.535   1.948  0.00  0.00    -0.039 A 
ATOM      6  C   UNL     1      -3.158   2.858   3.180  0.00  0.00    +0.053 A 
ATOM      7  C   UNL     1      -2.674   2.275   4.339  0.00  0.00    +0.170 A 
ATOM      8  C   UNL     1      -1.632   1.357   4.265  0.00  0.00    +0.208 A 
ATOM      9  C   UNL     1      -1.086   1.036   3.030  0.00  0.00    +0.168 A 
ATOM     10  O   UNL     1      -1.337   0.927   5.528  0.00  0.00    -0.449 OA
ATOM     11  C   UNL     1      -1.933   1.895   6.412  0.00  0.00    +0.467 C 
ATOM     12  O   UNL     1      -3.034   2.422   5.648  0.00  0.00    -0.452 OA
ATOM     13  C   UNL     1      -3.177   3.197   0.717  0.00  0.00    +0.017 C 
ATOM     14  C   UNL     1      -2.202   3.046  -0.451  0.00  0.00    -0.072 C 
ATOM     15  C   UNL     1      -1.176   1.356  -1.852  0.00  0.00    -0.094 C 
ATOM     16  N   UNL     1      -1.842   1.618  -0.556  0.00  0.00    +0.390 N 
ATOM     17  H   UNL     1      -2.697   1.052  -0.499  0.00  0.00    -0.080 HD
BRANCH   9  18
ATOM     18  O   UNL     1      -0.068   0.138   2.953  0.00  0.00    -0.491 OA
ATOM     19  C   UNL     1       1.255   0.639   3.157  0.00  0.00    +0.277 C 
ENDBRANCH   9  18
ENDBRANCH   2   3
BRANCH   1  20
ATOM     20  C   UNL     1      -0.318  -2.818   0.465  0.00  0.00    +0.124 C 
ATOM     21  C   UNL     1       0.614  -3.215   1.612  0.00  0.00    +0.055 C 
BRANCH  20  22
ATOM     22  O   UNL     1      -1.567  -3.497   0.610  0.00  0.00    -0.377 OA
ATOM     23  H   UNL     1      -2.209  -3.292  -0.084  0.00  0.00    +0.211 HD
ENDBRANCH  20  22
BRANCH  20  24
ATOM     24  C   UNL     1       0.322  -3.206  -0.869  0.00  0.00    +0.052 C 
BRANCH  24  25
ATOM     25  C   UNL     1       0.555  -4.718  -0.902  0.00  0.00    +0.039 C 
BRANCH  25  32
ATOM     26  C   UNL     1       3.431  -4.754  -1.167  0.00  0.00    +0.044 C 
ATOM     27  C   UNL     1       2.562  -5.118  -2.343  0.00  0.00    -0.044 A 
ATOM     28  C   UNL     1       3.142  -5.468  -3.547  0.00  0.00    +0.049 A 
ATOM     29  C   UNL     1       2.342  -5.803  -4.630  0.00  0.00    +0.123 A 
ATOM     30  C   UNL     1       0.960  -5.785  -4.500  0.00  0.00    -0.006 A 
ATOM     31  C   UNL     1       0.386  -5.439  -3.293  0.00  0.00    -0.041 A 
ATOM     32  C   UNL     1       1.185  -5.101  -2.217  0.00  0.00    -0.041 A 
ATOM     33  C   UNL     1      -1.115  -5.426  -3.149  0.00  0.00    +0.044 C 
ATOM     34  C   UNL     1       0.088  -6.148  -5.674  0.00  0.00    +0.048 C 
BRANCH  29  35
ATOM     35  O   UNL     1       2.910  -6.149  -5.815  0.00  0.00    -0.495 OA
ATOM     36  C   UNL     1       4.337  -6.146  -5.875  0.00  0.00    +0.277 C 
ENDBRANCH  29  35
ENDBRANCH  25  32
ENDBRANCH  24  25
ENDBRANCH  20  24
ENDBRANCH   1  20
TORSDOF 8
