REMARK  Name = ZINC19500650
REMARK  13 active torsions:
REMARK  status: ('A' for Active; 'I' for Inactive)
REMARK    1  A    between atoms: C_1  and  C_2
REMARK    2  A    between atoms: C_2  and  C_3
REMARK    3  A    between atoms: C_3  and  C_5
REMARK    4  A    between atoms: C_3  and  N_18
REMARK    5  A    between atoms: N_9  and  C_10
REMARK    6  A    between atoms: C_10  and  C_11
REMARK    7  A    between atoms: C_11  and  C_12
REMARK    8  A    between atoms: N_18  and  C_19
REMARK    9  A    between atoms: N_18  and  C_25
REMARK   10  A    between atoms: C_19  and  C_20
REMARK   11  A    between atoms: C_25  and  C_26
REMARK   12  A    between atoms: C_30  and  C_39
REMARK   13  A    between atoms: C_32  and  C_38
REMARK                            x       y       z     vdW  Elec       q    Type
REMARK                         _______ _______ _______ _____ _____    ______ ____
ROOT
ATOM      1  N   UNL     1      -0.169  -0.049  -2.500  0.00  0.00    +0.394 N 
ATOM      2  H   UNL     1      -1.023  -0.495  -2.200  0.00  0.00    -0.080 HD
ENDROOT
BRANCH   1   3
ATOM      3  C   UNL     1       0.887  -0.294  -1.508  0.00  0.00    +0.003 C 
BRANCH   3   4
ATOM      4  C   UNL     1       2.149   0.411  -1.933  0.00  0.00    +0.138 A 
ATOM      5  N   UNL     1       2.634   0.483  -3.149  0.00  0.00    -0.115 NA
ATOM      6  N   UNL     1       3.723   1.170  -3.103  0.00  0.00    -0.023 NA
ATOM      7  N   UNL     1       3.945   1.539  -1.889  0.00  0.00    -0.044 NA
ATOM      8  N   UNL     1       2.994   1.095  -1.139  0.00  0.00    -0.231 N 
BRANCH   8   9
ATOM      9  C   UNL     1       2.860   1.295   0.306  0.00  0.00    +0.152 C 
BRANCH   9  10
ATOM     10  C   UNL     1       3.681   0.237   1.045  0.00  0.00    +0.058 C 
BRANCH  10  11
ATOM     11  C   UNL     1       3.544   0.443   2.532  0.00  0.00    -0.046 A 
ATOM     12  C   UNL     1       4.428   1.269   3.200  0.00  0.00    +0.004 A 
ATOM     13  C   UNL     1       4.301   1.458   4.563  0.00  0.00    +0.000 A 
ATOM     14  C   UNL     1       3.291   0.820   5.259  0.00  0.00    +0.000 A 
ATOM     15  C   UNL     1       2.407  -0.006   4.591  0.00  0.00    +0.000 A 
ATOM     16  C   UNL     1       2.531  -0.191   3.227  0.00  0.00    +0.004 A 
ENDBRANCH  10  11
ENDBRANCH   9  10
ENDBRANCH   8   9
ENDBRANCH   3   4
BRANCH   3  18
ATOM     17  C   UNL     1      -0.110  -2.505  -0.908  0.00  0.00    +0.002 C 
ATOM     18  C   UNL     1       1.152  -1.797  -1.406  0.00  0.00    -0.011 C 
ENDBRANCH   3  18
ENDBRANCH   1   3
BRANCH   1  19
ATOM     19  C   UNL     1      -0.391   1.397  -2.633  0.00  0.00    -0.002 C 
BRANCH  19  20
ATOM     20  C   UNL     1      -0.951   1.939  -1.343  0.00  0.00    +0.089 A 
ATOM     21  C   UNL     1      -0.240   2.513  -0.356  0.00  0.00    +0.042 A 
ATOM     22  C   UNL     1      -1.160   2.872   0.656  0.00  0.00    +0.041 A 
ATOM     23  C   UNL     1      -2.378   2.496   0.227  0.00  0.00    +0.195 A 
ATOM     24  O   UNL     1      -2.246   1.937  -0.987  0.00  0.00    -0.470 OA
ENDBRANCH  19  20
ENDBRANCH   1  19
BRANCH   1  25
ATOM     25  C   UNL     1       0.241  -0.603  -3.798  0.00  0.00    -0.036 C 
BRANCH  25  26
ATOM     26  C   UNL     1      -0.897  -0.481  -4.778  0.00  0.00    +0.001 A 
ATOM     27  C   UNL     1      -0.943   0.570  -5.633  0.00  0.00    +0.017 A 
ATOM     28  C   UNL     1      -2.061   0.658  -6.574  0.00  0.00    -0.001 A 
ATOM     29  C   UNL     1      -2.163   1.719  -7.480  0.00  0.00    +0.013 A 
ATOM     30  C   UNL     1      -3.219   1.772  -8.345  0.00  0.00    -0.050 A 
ATOM     31  C   UNL     1      -4.193   0.783  -8.331  0.00  0.00    +0.008 A 
ATOM     32  C   UNL     1      -4.114  -0.271  -7.447  0.00  0.00    -0.026 A 
ATOM     33  C   UNL     1      -3.047  -0.346  -6.557  0.00  0.00    +0.052 A 
ATOM     34  N   UNL     1      -2.942  -1.390  -5.662  0.00  0.00    -0.322 N 
ATOM     35  H   UNL     1      -3.623  -2.081  -5.652  0.00  0.00    +0.169 HD
ATOM     36  C   UNL     1      -1.908  -1.465  -4.806  0.00  0.00    +0.251 A 
ATOM     37  O   UNL     1      -1.845  -2.405  -4.032  0.00  0.00    -0.268 OA
ATOM     38  C   UNL     1      -5.179  -1.336  -7.442  0.00  0.00    +0.046 C 
ATOM     39  C   UNL     1      -3.328   2.914  -9.321  0.00  0.00    +0.044 C 
ENDBRANCH  25  26
ENDBRANCH   1  25
TORSDOF 10
