REMARK  Name = ZINC06537169
REMARK  4 active torsions:
REMARK  status: ('A' for Active; 'I' for Inactive)
REMARK    1  A    between atoms: C_1  and  C_2
REMARK    2  A    between atoms: C_10  and  S_12
REMARK    3  A    between atoms: S_12  and  C_13
REMARK    4  A    between atoms: C_13  and  C_14
REMARK                            x       y       z     vdW  Elec       q    Type
REMARK                         _______ _______ _______ _____ _____    ______ ____
ROOT
ATOM      1  S   UNL     1       0.096  -5.820   2.394  0.00  0.00    -0.082 S 
ENDROOT
BRANCH   1  11
ATOM      2  C   UNL     1      -0.018   1.503   0.010  0.00  0.00    +0.044 C 
ATOM      3  C   UNL     1       0.002  -0.004   0.002  0.00  0.00    -0.048 A 
ATOM      4  C   UNL     1       0.006  -0.686  -1.206  0.00  0.00    +0.005 A 
ATOM      5  C   UNL     1       0.024  -2.063  -1.230  0.00  0.00    +0.030 A 
ATOM      6  C   UNL     1       0.040  -2.778  -0.030  0.00  0.00    +0.090 A 
ATOM      7  C   UNL     1       0.037  -2.082   1.190  0.00  0.00    +0.067 A 
ATOM      8  C   UNL     1       0.023  -0.696   1.196  0.00  0.00    +0.031 A 
ATOM      9  N   UNL     1       0.055  -3.047   2.184  0.00  0.00    -0.333 N 
ATOM     10  H   UNL     1       0.058  -2.887   3.141  0.00  0.00    +0.168 HD
ATOM     11  C   UNL     1       0.069  -4.265   1.566  0.00  0.00    +0.168 A 
ATOM     12  N   UNL     1       0.060  -4.104   0.266  0.00  0.00    -0.222 NA
ENDBRANCH   1  11
BRANCH   1  13
ATOM     13  C   UNL     1       0.105  -7.035   1.047  0.00  0.00    +0.133 C 
BRANCH  13  14
ATOM     14  C   UNL     1       0.128  -8.426   1.625  0.00  0.00    +0.059 A 
ATOM     15  C   UNL     1      -1.006  -9.210   1.612  0.00  0.00    +0.095 A 
ATOM     16  C   UNL     1      -0.965 -10.496   2.151  0.00  0.00    +0.259 A 
ATOM     17  O   UNL     1      -1.966 -11.195   2.142  0.00  0.00    -0.267 OA
ATOM     18  N   UNL     1       0.197 -10.973   2.689  0.00  0.00    -0.262 N 
ATOM     19  C   UNL     1       0.395 -12.210   3.255  0.00  0.00    +0.104 A 
ATOM     20  C   UNL     1       1.582 -12.559   3.748  0.00  0.00    +0.067 A 
ATOM     21  S   UNL     1       2.554 -11.094   3.434  0.00  0.00    -0.058 S 
ATOM     22  C   UNL     1       1.275 -10.128   2.661  0.00  0.00    +0.180 A 
ATOM     23  N   UNL     1       1.245  -8.922   2.152  0.00  0.00    -0.227 NA
ENDBRANCH  13  14
ENDBRANCH   1  13
TORSDOF 3
