REMARK  Name = ZINC11146440
REMARK  10 active torsions:
REMARK  status: ('A' for Active; 'I' for Inactive)
REMARK    1  A    between atoms: C_1  and  C_2
REMARK    2  A    between atoms: C_2  and  C_3
REMARK    3  A    between atoms: C_2  and  C_4
REMARK    4  A    between atoms: C_4  and  C_6
REMARK    5  A    between atoms: C_4  and  N_24
REMARK    6  A    between atoms: N_8  and  C_9
REMARK    7  A    between atoms: C_9  and  C_10
REMARK    8  A    between atoms: C_13  and  N_16
REMARK    9  A    between atoms: C_17  and  C_19
REMARK   10  A    between atoms: C_25  and  C_27
REMARK                            x       y       z     vdW  Elec       q    Type
REMARK                         _______ _______ _______ _____ _____    ______ ____
ROOT
ATOM      1  C   UNL     1      -3.388   7.780  -1.669  0.00  0.00    +0.234 C 
ATOM      2  O   UNL     1      -4.189   6.940  -2.018  0.00  0.00    -0.274 OA
ATOM      3  N   UNL     1      -3.611   9.081  -1.944  0.00  0.00    -0.310 N 
ATOM      4  H   UNL     1      -3.007   9.759  -1.603  0.00  0.00    +0.149 HD
ENDROOT
BRANCH   1   5
ATOM      5  C   UNL     1      -2.142   7.371  -0.927  0.00  0.00    +0.161 C 
BRANCH   5   6
ATOM      6  N   UNL     1      -2.326   6.030  -0.365  0.00  0.00    -0.303 N 
ATOM      7  C   UNL     1      -1.617   5.649   0.716  0.00  0.00    +0.220 C 
ATOM      8  O   UNL     1      -0.826   6.416   1.224  0.00  0.00    -0.275 OA
ATOM      9  H   UNL     1      -2.959   5.417  -0.771  0.00  0.00    +0.149 HD
BRANCH   7  10
ATOM     10  C   UNL     1      -1.807   4.271   1.294  0.00  0.00    +0.048 C 
ATOM     11  C   UNL     1      -1.460   3.221   0.236  0.00  0.00    +0.019 C 
ATOM     12  C   UNL     1      -1.653   1.822   0.823  0.00  0.00    -0.009 C 
ATOM     13  C   UNL     1      -0.736   1.646   2.035  0.00  0.00    +0.007 C 
ATOM     14  C   UNL     1      -1.083   2.695   3.093  0.00  0.00    -0.009 C 
ATOM     15  C   UNL     1      -0.890   4.095   2.506  0.00  0.00    +0.019 C 
ATOM     16  C   UNL     1      -2.540   2.520   3.526  0.00  0.00    +0.007 C 
ATOM     17  C   UNL     1      -3.457   2.696   2.314  0.00  0.00    -0.009 C 
ATOM     18  C   UNL     1      -3.110   1.647   1.256  0.00  0.00    +0.007 C 
ATOM     19  C   UNL     1      -3.264   4.096   1.727  0.00  0.00    +0.019 C 
ENDBRANCH   7  10
ENDBRANCH   5   6
BRANCH   5  21
ATOM     20  C   UNL     1       0.332   7.071  -1.115  0.00  0.00    +0.009 C 
ATOM     21  C   UNL     1      -0.954   7.360  -1.892  0.00  0.00    +0.012 C 
ATOM     22  C   UNL     1      -1.166   6.275  -2.949  0.00  0.00    +0.009 C 
ENDBRANCH   5  21
ENDBRANCH   1   5
BRANCH   3  23
ATOM     23  C   UNL     1      -4.766   9.470  -2.757  0.00  0.00    +0.139 C 
BRANCH  23  24
ATOM     24  C   UNL     1      -4.787  10.968  -2.915  0.00  0.00    -0.030 A 
ATOM     25  C   UNL     1      -5.468  11.749  -1.999  0.00  0.00    +0.007 A 
ATOM     26  C   UNL     1      -5.485  13.123  -2.138  0.00  0.00    +0.023 A 
ATOM     27  C   UNL     1      -4.826  13.719  -3.206  0.00  0.00    +0.034 A 
ATOM     28  C   UNL     1      -4.148  12.932  -4.127  0.00  0.00    +0.023 A 
ATOM     29  C   UNL     1      -4.131  11.559  -3.979  0.00  0.00    +0.007 A 
BRANCH  27  30
ATOM     30  N   UNL     1      -4.846  15.110  -3.352  0.00  0.00    -0.279 N 
ATOM     31  C   UNL     1      -4.863  15.902  -2.262  0.00  0.00    +0.284 C 
ATOM     32  O   UNL     1      -4.777  15.411  -1.152  0.00  0.00    -0.266 OA
ATOM     33  H   UNL     1      -4.846  15.504  -4.238  0.00  0.00    +0.155 HD
BRANCH  31  34
ATOM     34  C   UNL     1      -4.987  17.355  -2.414  0.00  0.00    +0.189 A 
ATOM     35  C   UNL     1      -5.018  18.268  -1.399  0.00  0.00    +0.054 A 
ATOM     36  C   UNL     1      -5.145  19.532  -1.996  0.00  0.00    +0.042 A 
ATOM     37  C   UNL     1      -5.186  19.337  -3.333  0.00  0.00    +0.196 A 
ATOM     38  O   UNL     1      -5.085  18.025  -3.581  0.00  0.00    -0.458 OA
ENDBRANCH  31  34
ENDBRANCH  27  30
ENDBRANCH  23  24
ENDBRANCH   3  23
TORSDOF 8
