REMARK  Name = ZINC08791075
REMARK  12 active torsions:
REMARK  status: ('A' for Active; 'I' for Inactive)
REMARK    1  A    between atoms: C_1  and  C_2
REMARK    2  A    between atoms: C_4  and  C_40
REMARK    3  A    between atoms: C_13  and  C_15
REMARK    4  A    between atoms: C_15  and  C_16
REMARK    5  A    between atoms: C_16  and  C_17
REMARK    6  A    between atoms: N_22  and  C_25
REMARK    7  A    between atoms: C_25  and  C_26
REMARK    8  A    between atoms: C_26  and  C_27
REMARK    9  A    between atoms: C_30  and  O_35
REMARK   10  A    between atoms: C_31  and  O_33
REMARK   11  A    between atoms: O_33  and  C_34
REMARK   12  A    between atoms: O_35  and  C_36
REMARK                            x       y       z     vdW  Elec       q    Type
REMARK                         _______ _______ _______ _____ _____    ______ ____
ROOT
ATOM      1  C   UNL     1       2.182  -1.434  -4.500  0.00  0.00    +0.044 C 
ATOM      2  C   UNL     1       2.638  -0.132  -3.892  0.00  0.00    -0.050 A 
ATOM      3  C   UNL     1       3.831   0.440  -4.294  0.00  0.00    +0.008 A 
ATOM      4  C   UNL     1       4.253   1.631  -3.741  0.00  0.00    -0.029 A 
ATOM      5  C   UNL     1       3.480   2.267  -2.773  0.00  0.00    +0.039 A 
ATOM      6  C   UNL     1       2.280   1.683  -2.377  0.00  0.00    -0.027 A 
ATOM      7  C   UNL     1       1.863   0.493  -2.931  0.00  0.00    +0.008 A 
ATOM      8  C   UNL     1       1.698   2.602  -1.341  0.00  0.00    +0.050 C 
ATOM      9  C   UNL     1       1.489   1.886  -0.002  0.00  0.00    +0.088 C 
ATOM     10  C   UNL     1      -0.018   1.508   0.010  0.00  0.00    +0.073 C 
ATOM     11  C   UNL     1      -0.564   2.014  -1.342  0.00  0.00    -0.057 C 
ATOM     12  C   UNL     1       0.002  -0.004   0.002  0.00  0.00    +0.224 C 
ATOM     13  O   UNL     1      -0.978  -0.718   0.011  0.00  0.00    -0.275 OA
ATOM     14  N   UNL     1       1.270  -0.431  -0.017  0.00  0.00    -0.241 N 
ATOM     15  C   UNL     1       2.185   0.544  -0.023  0.00  0.00    +0.225 C 
ATOM     16  O   UNL     1       3.386   0.379  -0.042  0.00  0.00    -0.275 OA
ATOM     17  C   UNL     1       2.689   3.727  -1.215  0.00  0.00    +0.211 C 
ATOM     18  O   UNL     1       2.603   4.688  -0.480  0.00  0.00    -0.277 OA
ATOM     19  N   UNL     1       3.690   3.459  -2.075  0.00  0.00    -0.286 N 
ATOM     20  C   UNL     1       5.555   2.246  -4.186  0.00  0.00    +0.045 C 
ATOM     21  H   UNL     1       4.466   4.027  -2.197  0.00  0.00    +0.155 HD
ATOM     22  N   UNL     1       0.378   3.067  -1.730  0.00  0.00    +0.394 N 
ATOM     23  H   UNL     1       0.340   3.220  -2.745  0.00  0.00    -0.083 HD
ATOM     24  H   UNL     1       0.152   3.942  -1.243  0.00  0.00    -0.083 HD
ENDROOT
BRANCH  11  25
ATOM     25  C   UNL     1      -1.980   2.567  -1.172  0.00  0.00    -0.006 C 
BRANCH  25  26
ATOM     26  C   UNL     1      -2.547   2.947  -2.541  0.00  0.00    +0.094 C 
BRANCH  26  27
ATOM     27  C   UNL     1      -3.942   3.492  -2.373  0.00  0.00    +0.210 C 
ATOM     28  O   UNL     1      -4.435   3.568  -1.268  0.00  0.00    -0.276 OA
ATOM     29  N   UNL     1      -4.643   3.894  -3.452  0.00  0.00    -0.329 N 
ATOM     30  H   UNL     1      -4.249   3.833  -4.337  0.00  0.00    +0.145 HD
ATOM     31  H   UNL     1      -5.541   4.244  -3.344  0.00  0.00    +0.145 HD
ENDBRANCH  26  27
ENDBRANCH  25  26
ENDBRANCH  11  25
BRANCH  14  32
ATOM     32  C   UNL     1       1.627  -1.852  -0.030  0.00  0.00    +0.121 C 
BRANCH  32  33
ATOM     33  C   UNL     1       1.732  -2.338  -1.477  0.00  0.00    +0.054 C 
BRANCH  33  34
ATOM     34  C   UNL     1       2.099  -3.800  -1.491  0.00  0.00    -0.042 A 
ATOM     35  C   UNL     1       3.429  -4.176  -1.516  0.00  0.00    +0.007 A 
ATOM     36  C   UNL     1       3.771  -5.516  -1.523  0.00  0.00    +0.049 A 
ATOM     37  C   UNL     1       2.780  -6.484  -1.516  0.00  0.00    +0.161 A 
ATOM     38  C   UNL     1       1.441  -6.105  -1.497  0.00  0.00    +0.162 A 
ATOM     39  C   UNL     1       1.105  -4.760  -1.484  0.00  0.00    +0.053 A 
BRANCH  38  40
ATOM     40  O   UNL     1       0.465  -7.051  -1.490  0.00  0.00    -0.491 OA
ATOM     41  C   UNL     1      -0.887  -6.588  -1.471  0.00  0.00    +0.277 C 
ENDBRANCH  38  40
BRANCH  37  42
ATOM     42  O   UNL     1       3.115  -7.802  -1.529  0.00  0.00    -0.491 OA
ATOM     43  C   UNL     1       4.508  -8.117  -1.549  0.00  0.00    +0.277 C 
ENDBRANCH  37  42
ENDBRANCH  33  34
ENDBRANCH  32  33
ENDBRANCH  14  32
TORSDOF 8
