REMARK  Name = ZINC60356526
REMARK  8 active torsions:
REMARK  status: ('A' for Active; 'I' for Inactive)
REMARK    1  A    between atoms: C_1  and  N_2
REMARK    2  A    between atoms: N_2  and  C_3
REMARK    3  A    between atoms: N_2  and  C_20
REMARK    4  A    between atoms: C_3  and  C_4
REMARK    5  A    between atoms: C_4  and  C_5
REMARK    6  A    between atoms: N_7  and  N_8
REMARK    7  A    between atoms: C_20  and  C_21
REMARK    8  A    between atoms: C_26  and  C_27
REMARK                            x       y       z     vdW  Elec       q    Type
REMARK                         _______ _______ _______ _____ _____    ______ ____
ROOT
ATOM      1  C   UNL     1      -2.150   0.047  -1.206  0.00  0.00    +0.079 C 
ENDROOT
BRANCH   1   2
ATOM      2  C   UNL     1      -3.532  -0.553  -1.182  0.00  0.00    +0.228 C 
ATOM      3  O   UNL     1      -3.852  -1.304  -0.285  0.00  0.00    -0.274 OA
ATOM      4  N   UNL     1      -4.413  -0.256  -2.158  0.00  0.00    -0.224 N 
ATOM      5  H   UNL     1      -4.157   0.344  -2.876  0.00  0.00    +0.174 HD
BRANCH   4   6
ATOM      6  N   UNL     1      -5.698  -0.814  -2.136  0.00  0.00    -0.137 N 
ATOM      7  C   UNL     1      -6.102  -1.819  -2.940  0.00  0.00    +0.263 C 
ATOM      8  O   UNL     1      -5.448  -2.390  -3.787  0.00  0.00    -0.271 OA
ATOM      9  C   UNL     1      -7.541  -2.085  -2.563  0.00  0.00    +0.114 C 
ATOM     10  C   UNL     1      -7.701  -3.510  -2.045  0.00  0.00    +0.035 C 
ATOM     11  C   UNL     1      -9.158  -3.748  -1.641  0.00  0.00    +0.003 C 
ATOM     12  C   UNL     1     -10.066  -3.522  -2.851  0.00  0.00    +0.000 C 
ATOM     13  C   UNL     1      -9.912  -2.082  -3.344  0.00  0.00    +0.003 C 
ATOM     14  C   UNL     1      -8.458  -1.837  -3.756  0.00  0.00    +0.035 C 
ATOM     15  N   UNL     1      -7.814  -1.116  -1.494  0.00  0.00    -0.284 N 
ATOM     16  C   UNL     1      -6.675  -0.420  -1.310  0.00  0.00    +0.326 C 
ATOM     17  O   UNL     1      -6.550   0.467  -0.490  0.00  0.00    -0.251 OA
ATOM     18  H   UNL     1      -8.649  -1.001  -1.013  0.00  0.00    +0.151 HD
ENDBRANCH   4   6
ENDBRANCH   1   2
BRANCH   1  19
ATOM     19  C   UNL     1      -1.358  -0.449   0.005  0.00  0.00    -0.069 C 
BRANCH  19  21
ATOM     20  C   UNL     1      -0.107   1.593   0.150  0.00  0.00    -0.096 C 
ATOM     21  N   UNL     1      -0.011   0.137  -0.018  0.00  0.00    +0.381 N 
ATOM     22  H   UNL     1       0.431  -0.072  -0.901  0.00  0.00    -0.082 HD
BRANCH  21  23
ATOM     23  C   UNL     1       0.789  -0.431   1.076  0.00  0.00    -0.043 C 
BRANCH  23  24
ATOM     24  C   UNL     1       2.209   0.061   0.968  0.00  0.00    -0.056 A 
ATOM     25  C   UNL     1       2.678   1.017   1.846  0.00  0.00    +0.002 A 
ATOM     26  C   UNL     1       3.982   1.470   1.748  0.00  0.00    +0.000 A 
ATOM     27  C   UNL     1       4.822   0.967   0.770  0.00  0.00    +0.001 A 
ATOM     28  C   UNL     1       4.363   0.011  -0.113  0.00  0.00    +0.009 A 
ATOM     29  C   UNL     1       3.052  -0.452  -0.015  0.00  0.00    -0.017 A 
BRANCH  29  30
ATOM     30  C   UNL     1       2.555  -1.484  -0.959  0.00  0.00    -0.018 A 
ATOM     31  C   UNL     1       2.025  -2.678  -0.473  0.00  0.00    +0.008 A 
ATOM     32  C   UNL     1       1.563  -3.634  -1.355  0.00  0.00    +0.001 A 
ATOM     33  C   UNL     1       1.626  -3.409  -2.718  0.00  0.00    +0.000 A 
ATOM     34  C   UNL     1       2.152  -2.226  -3.205  0.00  0.00    +0.001 A 
ATOM     35  C   UNL     1       2.611  -1.261  -2.333  0.00  0.00    +0.008 A 
ENDBRANCH  29  30
ENDBRANCH  23  24
ENDBRANCH  21  23
ENDBRANCH  19  21
ENDBRANCH   1  19
TORSDOF 7
