REMARK  Name = ZINC00926315
REMARK  8 active torsions:
REMARK  status: ('A' for Active; 'I' for Inactive)
REMARK    1  A    between atoms: C_1  and  C_2
REMARK    2  A    between atoms: C_12  and  C_14
REMARK    3  A    between atoms: C_14  and  N_15
REMARK    4  A    between atoms: N_15  and  C_16
REMARK    5  A    between atoms: N_15  and  C_26
REMARK    6  A    between atoms: C_16  and  C_17
REMARK    7  A    between atoms: C_26  and  C_27
REMARK    8  A    between atoms: N_31  and  C_32
REMARK                            x       y       z     vdW  Elec       q    Type
REMARK                         _______ _______ _______ _____ _____    ______ ____
ROOT
ATOM      1  N   UNL     1       1.651  -2.963   5.177  0.00  0.00    -0.287 NA
ENDROOT
BRANCH   1   2
ATOM      2  C   UNL     1       0.282  -2.923   4.647  0.00  0.00    +0.125 C 
BRANCH   2  14
ATOM      3  C   UNL     1      -0.182   2.280   0.656  0.00  0.00    +0.046 C 
ATOM      4  C   UNL     1       0.028   0.816   0.364  0.00  0.00    -0.026 A 
ATOM      5  C   UNL     1       0.163   0.384  -0.938  0.00  0.00    +0.005 A 
ATOM      6  C   UNL     1       0.357  -0.961  -1.221  0.00  0.00    +0.001 A 
ATOM      7  C   UNL     1       0.417  -1.882  -0.214  0.00  0.00    +0.010 A 
ATOM      8  C   UNL     1       0.282  -1.466   1.115  0.00  0.00    -0.001 A 
ATOM      9  C   UNL     1       0.092  -0.102   1.406  0.00  0.00    +0.052 A 
ATOM     10  N   UNL     1      -0.035   0.303   2.718  0.00  0.00    -0.322 N 
ATOM     11  H   UNL     1      -0.171   1.243   2.917  0.00  0.00    +0.169 HD
ATOM     12  C   UNL     1       0.025  -0.585   3.725  0.00  0.00    +0.254 A 
ATOM     13  O   UNL     1      -0.092  -0.191   4.872  0.00  0.00    -0.268 OA
ATOM     14  C   UNL     1       0.221  -1.962   3.487  0.00  0.00    +0.031 A 
ATOM     15  C   UNL     1       0.341  -2.426   2.219  0.00  0.00    +0.020 A 
ENDBRANCH   2  14
ENDBRANCH   1   2
BRANCH   1  16
ATOM     16  C   UNL     1       2.023  -1.673   5.772  0.00  0.00    +0.120 C 
BRANCH  16  17
ATOM     17  C   UNL     1       3.481  -1.697   6.153  0.00  0.00    -0.030 A 
ATOM     18  C   UNL     1       3.850  -2.003   7.450  0.00  0.00    +0.009 A 
ATOM     19  C   UNL     1       5.186  -2.026   7.804  0.00  0.00    +0.050 A 
ATOM     20  C   UNL     1       6.159  -1.743   6.859  0.00  0.00    +0.166 A 
ATOM     21  C   UNL     1       5.787  -1.435   5.553  0.00  0.00    +0.167 A 
ATOM     22  C   UNL     1       4.447  -1.419   5.204  0.00  0.00    +0.054 A 
ATOM     23  O   UNL     1       6.916  -1.198   4.823  0.00  0.00    -0.453 OA
ATOM     24  C   UNL     1       7.957  -0.963   5.789  0.00  0.00    +0.466 C 
ATOM     25  O   UNL     1       7.521  -1.699   6.947  0.00  0.00    -0.453 OA
ENDBRANCH  16  17
ENDBRANCH   1  16
BRANCH   1  26
ATOM     26  C   UNL     1       1.808  -4.055   6.147  0.00  0.00    +0.163 C 
BRANCH  26  27
ATOM     27  C   UNL     1       1.760  -5.378   5.427  0.00  0.00    +0.166 A 
ATOM     28  N   UNL     1       0.709  -6.143   5.265  0.00  0.00    -0.112 NA
ATOM     29  N   UNL     1       1.073  -7.184   4.598  0.00  0.00    -0.023 NA
ATOM     30  N   UNL     1       2.329  -7.102   4.330  0.00  0.00    -0.044 NA
ATOM     31  N   UNL     1       2.788  -6.000   4.819  0.00  0.00    -0.225 N 
BRANCH  31  32
ATOM     32  C   UNL     1       4.169  -5.518   4.733  0.00  0.00    +0.111 C 
ATOM     33  C   UNL     1       5.115  -6.580   5.296  0.00  0.00    +0.027 C 
ATOM     34  C   UNL     1       6.558  -6.077   5.206  0.00  0.00    +0.002 C 
ATOM     35  C   UNL     1       6.912  -5.801   3.743  0.00  0.00    +0.000 C 
ATOM     36  C   UNL     1       5.965  -4.739   3.181  0.00  0.00    +0.002 C 
ATOM     37  C   UNL     1       4.523  -5.242   3.271  0.00  0.00    +0.027 C 
ENDBRANCH  31  32
ENDBRANCH  26  27
ENDBRANCH   1  26
TORSDOF 7
