REMARK  Name = ZINC09585713
REMARK  12 active torsions:
REMARK  status: ('A' for Active; 'I' for Inactive)
REMARK    1  A    between atoms: C_1  and  C_2
REMARK    2  A    between atoms: C_2  and  O_3
REMARK    3  A    between atoms: O_3  and  C_4
REMARK    4  A    between atoms: C_7  and  S_10
REMARK    5  A    between atoms: S_10  and  N_13
REMARK    6  A    between atoms: C_18  and  C_19
REMARK    7  A    between atoms: C_18  and  N_59
REMARK    8  A    between atoms: C_19  and  C_21
REMARK    9  A    between atoms: C_19  and  O_32
REMARK   10  A    between atoms: C_21  and  O_22
REMARK   11  A    between atoms: O_22  and  C_23
REMARK   12  A    between atoms: C_27  and  N_29
REMARK                            x       y       z     vdW  Elec       q    Type
REMARK                         _______ _______ _______ _____ _____    ______ ____
ROOT
ATOM      1  N   UNL     1      -0.791   2.159  -1.263  0.00  0.00    -0.180 NA
ATOM      2  C   UNL     1      -1.736   1.175  -1.814  0.00  0.00    +0.091 C 
ATOM      3  C   UNL     1      -3.103   1.858  -1.974  0.00  0.00    -0.061 C 
ATOM      4  C   UNL     1      -2.082   4.054  -2.092  0.00  0.00    -0.061 C 
ATOM      5  C   UNL     1      -0.677   3.464  -1.933  0.00  0.00    +0.091 C 
ATOM      6  N   UNL     1      -2.931   3.072  -2.801  0.00  0.00    +0.383 N 
ATOM      7  H   UNL     1      -2.475   2.813  -3.683  0.00  0.00    -0.082 HD
ENDROOT
BRANCH   1   8
ATOM      8  S   UNL     1       0.124   1.805   0.070  0.00  0.00    +0.061 S 
ATOM      9  O   UNL     1       0.220   0.389   0.133  0.00  0.00    -0.153 OA
ATOM     10  O   UNL     1       1.269   2.644   0.012  0.00  0.00    -0.153 OA
BRANCH   8  14
ATOM     11  C   UNL     1      -2.246   3.102   3.704  0.00  0.00    +0.121 A 
ATOM     12  C   UNL     1      -2.388   1.816   3.205  0.00  0.00    +0.047 A 
ATOM     13  C   UNL     1      -1.664   1.423   2.096  0.00  0.00    +0.032 A 
ATOM     14  C   UNL     1      -0.798   2.310   1.484  0.00  0.00    +0.106 A 
ATOM     15  C   UNL     1      -0.651   3.591   1.983  0.00  0.00    +0.032 A 
ATOM     16  C   UNL     1      -1.377   3.991   3.088  0.00  0.00    +0.047 A 
BRANCH  11  17
ATOM     17  O   UNL     1      -2.958   3.492   4.794  0.00  0.00    -0.492 OA
BRANCH  17  19
ATOM     18  C   UNL     1      -3.640   5.084   6.480  0.00  0.00    +0.048 C 
ATOM     19  C   UNL     1      -2.761   4.831   5.253  0.00  0.00    +0.225 C 
ENDBRANCH  17  19
ENDBRANCH  11  17
ENDBRANCH   8  14
ENDBRANCH   1   8
BRANCH   6  20
ATOM     20  C   UNL     1      -4.250   3.669  -3.100  0.00  0.00    -0.044 C 
BRANCH  20  21
ATOM     21  C   UNL     1      -5.100   3.758  -1.831  0.00  0.00    +0.135 C 
BRANCH  21  22
ATOM     22  O   UNL     1      -4.506   4.688  -0.923  0.00  0.00    -0.390 OA
ATOM     23  H   UNL     1      -4.425   5.585  -1.276  0.00  0.00    +0.210 HD
ENDBRANCH  21  22
BRANCH  21  24
ATOM     24  C   UNL     1      -6.510   4.230  -2.194  0.00  0.00    +0.258 C 
BRANCH  24  25
ATOM     25  O   UNL     1      -7.336   4.201  -1.029  0.00  0.00    -0.489 OA
BRANCH  25  26
ATOM     26  C   UNL     1      -8.629   4.593  -1.180  0.00  0.00    +0.123 A 
ATOM     27  C   UNL     1      -9.092   4.997  -2.424  0.00  0.00    +0.046 A 
ATOM     28  C   UNL     1     -10.406   5.395  -2.575  0.00  0.00    +0.006 A 
ATOM     29  C   UNL     1     -11.260   5.390  -1.487  0.00  0.00    +0.033 A 
ATOM     30  C   UNL     1     -10.801   4.988  -0.246  0.00  0.00    +0.130 A 
ATOM     31  C   UNL     1      -9.489   4.585  -0.091  0.00  0.00    +0.078 A 
BRANCH  30  32
ATOM     32  N   UNL     1     -11.718   4.984   0.916  0.00  0.00    +0.057 N 
ATOM     33  O   UNL     1     -12.876   5.335   0.779  0.00  0.00    -0.126 OA
ATOM     34  O   UNL     1     -11.314   4.630   2.009  0.00  0.00    -0.126 OA
ENDBRANCH  30  32
ENDBRANCH  25  26
ENDBRANCH  24  25
ENDBRANCH  21  24
ENDBRANCH  20  21
ENDBRANCH   6  20
TORSDOF 11
