REMARK  Name = ZINC15033988
REMARK  11 active torsions:
REMARK  status: ('A' for Active; 'I' for Inactive)
REMARK    1  A    between atoms: C_6  and  S_7
REMARK    2  A    between atoms: S_7  and  N_10
REMARK    3  A    between atoms: N_10  and  C_11
REMARK    4  A    between atoms: C_11  and  C_12
REMARK    5  A    between atoms: C_12  and  C_13
REMARK    6  A    between atoms: N_15  and  C_16
REMARK    7  A    between atoms: C_16  and  C_17
REMARK    8  A    between atoms: C_17  and  N_18
REMARK    9  A    between atoms: N_18  and  C_19
REMARK   10  A    between atoms: C_22  and  C_28
REMARK   11  A    between atoms: C_24  and  N_25
REMARK                            x       y       z     vdW  Elec       q    Type
REMARK                         _______ _______ _______ _____ _____    ______ ____
ROOT
ATOM      1  C   UNL     1      -0.448   5.320  -3.787  0.00  0.00    +0.214 C 
ATOM      2  O   UNL     1      -0.232   6.156  -2.936  0.00  0.00    -0.276 OA
ATOM      3  N   UNL     1      -1.118   5.656  -4.907  0.00  0.00    -0.314 N 
ATOM      4  H   UNL     1      -1.291   4.987  -5.588  0.00  0.00    +0.149 HD
ENDROOT
BRANCH   1   5
ATOM      5  C   UNL     1       0.033   3.905  -3.593  0.00  0.00    +0.112 C 
BRANCH   5   6
ATOM      6  C   UNL     1       0.759   3.793  -2.250  0.00  0.00    +0.115 C 
BRANCH   6   7
ATOM      7  N   UNL     1       1.226   2.418  -2.061  0.00  0.00    -0.189 NA
ATOM      8  H   UNL     1       0.877   1.706  -2.619  0.00  0.00    +0.148 HD
BRANCH   7   9
ATOM      9  S   UNL     1       2.352   2.079  -0.894  0.00  0.00    +0.058 S 
ATOM     10  O   UNL     1       2.576   0.677  -0.941  0.00  0.00    -0.153 OA
ATOM     11  O   UNL     1       3.401   3.024  -1.055  0.00  0.00    -0.153 OA
BRANCH   9  17
ATOM     12  C   UNL     1       1.712   3.677   1.224  0.00  0.00    +0.030 A 
ATOM     13  C   UNL     1       1.121   3.945   2.444  0.00  0.00    +0.022 A 
ATOM     14  C   UNL     1       0.430   2.949   3.111  0.00  0.00    +0.041 A 
ATOM     15  C   UNL     1       0.327   1.687   2.554  0.00  0.00    +0.022 A 
ATOM     16  C   UNL     1       0.914   1.422   1.331  0.00  0.00    +0.030 A 
ATOM     17  C   UNL     1       1.604   2.418   0.665  0.00  0.00    +0.105 A 
ATOM     18 CL   UNL     1      -0.307   3.283   4.647  0.00  0.00    -0.084 Cl
ENDBRANCH   9  17
ENDBRANCH   7   9
ENDBRANCH   6   7
ENDBRANCH   5   6
ENDBRANCH   1   5
BRANCH   3  19
ATOM     19  C   UNL     1      -1.586   7.031  -5.096  0.00  0.00    +0.123 C 
BRANCH  19  20
ATOM     20  C   UNL     1      -2.312   7.143  -6.439  0.00  0.00    +0.120 C 
BRANCH  20  21
ATOM     21  N   UNL     1      -2.779   8.518  -6.628  0.00  0.00    -0.341 N 
ATOM     22  H   UNL     1      -2.607   9.188  -5.947  0.00  0.00    +0.146 HD
BRANCH  21  23
ATOM     23  C   UNL     1      -3.474   8.867  -7.788  0.00  0.00    +0.058 A 
ATOM     24  C   UNL     1      -3.617   7.944  -8.818  0.00  0.00    +0.026 A 
ATOM     25  C   UNL     1      -4.304   8.291  -9.964  0.00  0.00    +0.014 A 
ATOM     26  C   UNL     1      -4.850   9.556 -10.088  0.00  0.00    +0.057 A 
ATOM     27  C   UNL     1      -4.710  10.476  -9.066  0.00  0.00    +0.047 A 
ATOM     28  C   UNL     1      -4.029  10.134  -7.914  0.00  0.00    +0.147 A 
BRANCH  26  29
ATOM     29  C   UNL     1      -5.600   9.931 -11.340  0.00  0.00    +0.417 C 
ATOM     30  F   UNL     1      -5.609   8.845 -12.222  0.00  0.00    -0.166 F 
ATOM     31  F   UNL     1      -6.916  10.275 -11.010  0.00  0.00    -0.166 F 
ATOM     32  F   UNL     1      -4.972  11.022 -11.950  0.00  0.00    -0.166 F 
ENDBRANCH  26  29
BRANCH  28  33
ATOM     33  N   UNL     1      -3.885  11.117  -6.818  0.00  0.00    +0.058 N 
ATOM     34  O   UNL     1      -3.941  10.750  -5.658  0.00  0.00    -0.126 OA
ATOM     35  O   UNL     1      -3.709  12.295  -7.075  0.00  0.00    -0.126 OA
ENDBRANCH  28  33
ENDBRANCH  21  23
ENDBRANCH  20  21
ENDBRANCH  19  20
ENDBRANCH   3  19
TORSDOF 11
