REMARK  Name = ZINC10751822
REMARK  10 active torsions:
REMARK  status: ('A' for Active; 'I' for Inactive)
REMARK    1  A    between atoms: C_1  and  C_2
REMARK    2  A    between atoms: C_5  and  C_33
REMARK    3  A    between atoms: N_11  and  C_12
REMARK    4  A    between atoms: C_12  and  C_13
REMARK    5  A    between atoms: C_13  and  N_63
REMARK    6  A    between atoms: C_14  and  N_63
REMARK    7  A    between atoms: C_15  and  N_63
REMARK    8  A    between atoms: C_16  and  C_18
REMARK    9  A    between atoms: N_23  and  S_25
REMARK   10  A    between atoms: S_25  and  C_28
REMARK                            x       y       z     vdW  Elec       q    Type
REMARK                         _______ _______ _______ _____ _____    ______ ____
ROOT
ATOM      1  C   UNL     1      -2.547   3.255   4.529  0.00  0.00    +0.046 C 
ATOM      2  C   UNL     1      -2.046   2.225   3.549  0.00  0.00    -0.024 A 
ATOM      3  C   UNL     1      -0.773   1.732   3.676  0.00  0.00    +0.006 A 
ATOM      4  C   UNL     1      -0.272   0.783   2.796  0.00  0.00    +0.005 A 
ATOM      5  C   UNL     1      -1.074   0.323   1.768  0.00  0.00    -0.035 A 
ATOM      6  C   UNL     1      -2.348   0.815   1.630  0.00  0.00    +0.044 A 
ATOM      7  C   UNL     1      -2.894   1.777   2.510  0.00  0.00    +0.083 A 
ATOM      8  N   UNL     1      -4.163   2.157   2.248  0.00  0.00    -0.224 NA
ATOM      9  C   UNL     1      -4.854   1.665   1.246  0.00  0.00    +0.168 A 
ATOM     10  S   UNL     1      -3.694   0.523   0.507  0.00  0.00    -0.052 S 
ATOM     11  N   UNL     1      -6.151   1.957   0.859  0.00  0.00    -0.252 N 
ATOM     12  C   UNL     1      -6.874   2.859   1.551  0.00  0.00    +0.226 C 
ATOM     13  O   UNL     1      -6.434   3.328   2.579  0.00  0.00    -0.275 OA
ATOM     14  C   UNL     1      -0.551  -0.708   0.801  0.00  0.00    +0.045 C 
ENDROOT
BRANCH  12  15
ATOM     15  C   UNL     1      -8.230   3.285   1.049  0.00  0.00    +0.091 C 
ATOM     16  C   UNL     1      -8.061   4.174  -0.185  0.00  0.00    +0.015 C 
ATOM     17  C   UNL     1      -9.438   4.580  -0.716  0.00  0.00    +0.018 C 
ATOM     18  C   UNL     1     -10.179   5.380   0.359  0.00  0.00    +0.109 C 
ATOM     19  N   UNL     1     -10.219   4.588   1.596  0.00  0.00    -0.175 NA
ATOM     20  C   UNL     1      -8.958   4.070   2.144  0.00  0.00    +0.122 C 
BRANCH  19  21
ATOM     21  S   UNL     1     -11.658   4.283   2.357  0.00  0.00    +0.067 S 
ATOM     22  O   UNL     1     -11.349   4.024   3.720  0.00  0.00    -0.152 OA
ATOM     23  O   UNL     1     -12.552   5.314   1.962  0.00  0.00    -0.152 OA
BRANCH  21  24
ATOM     24  C   UNL     1     -12.293   2.782   1.690  0.00  0.00    +0.143 A 
ATOM     25  C   UNL     1     -12.092   1.509   2.109  0.00  0.00    +0.036 A 
ATOM     26  C   UNL     1     -12.700   0.473   1.424  0.00  0.00    +0.010 A 
ATOM     27  C   UNL     1     -13.478   0.761   0.353  0.00  0.00    +0.047 A 
ATOM     28  S   UNL     1     -13.375   2.542   0.289  0.00  0.00    -0.077 S 
ENDBRANCH  21  24
ENDBRANCH  19  21
ENDBRANCH  12  15
BRANCH  11  29
ATOM     29  C   UNL     1      -6.737   1.286  -0.304  0.00  0.00    +0.097 C 
BRANCH  29  30
ATOM     30  C   UNL     1      -7.310  -0.067   0.123  0.00  0.00    -0.060 C 
BRANCH  30  33
ATOM     31  C   UNL     1      -6.863  -1.093  -2.024  0.00  0.00    -0.097 C 
ATOM     32  C   UNL     1      -8.662  -1.927  -0.635  0.00  0.00    -0.097 C 
ATOM     33  N   UNL     1      -7.916  -0.722  -1.055  0.00  0.00    +0.377 N 
ATOM     34  H   UNL     1      -8.566  -0.066  -1.504  0.00  0.00    -0.083 HD
ENDBRANCH  30  33
ENDBRANCH  29  30
ENDBRANCH  11  29
TORSDOF 6
