REMARK  Name = ZINC28633057
REMARK  9 active torsions:
REMARK  status: ('A' for Active; 'I' for Inactive)
REMARK    1  A    between atoms: C_1  and  O_2
REMARK    2  A    between atoms: O_2  and  C_3
REMARK    3  A    between atoms: C_6  and  S_9
REMARK    4  A    between atoms: S_9  and  N_12
REMARK    5  A    between atoms: C_16  and  C_19
REMARK    6  A    between atoms: N_21  and  N_22
REMARK    7  A    between atoms: N_22  and  C_23
REMARK    8  A    between atoms: C_23  and  N_25
REMARK    9  A    between atoms: N_25  and  C_26
REMARK                            x       y       z     vdW  Elec       q    Type
REMARK                         _______ _______ _______ _____ _____    ______ ____
ROOT
ATOM      1  N   UNL     1       1.565  -2.916   5.681  0.00  0.00    -0.176 NA
ATOM      2  C   UNL     1       1.316  -1.900   6.712  0.00  0.00    +0.109 C 
ATOM      3  C   UNL     1       1.441  -2.555   8.091  0.00  0.00    +0.018 C 
ATOM      4  C   UNL     1       0.506  -3.765   8.163  0.00  0.00    +0.015 C 
ATOM      5  C   UNL     1       0.913  -4.790   7.102  0.00  0.00    +0.092 C 
ATOM      6  C   UNL     1       0.778  -4.157   5.708  0.00  0.00    +0.122 C 
ENDROOT
BRANCH   5   7
ATOM      7  C   UNL     1       0.013  -5.995   7.195  0.00  0.00    +0.233 C 
ATOM      8  O   UNL     1      -0.665  -6.321   6.244  0.00  0.00    -0.274 OA
ATOM      9  N   UNL     1      -0.039  -6.711   8.336  0.00  0.00    -0.235 N 
ATOM     10  H   UNL     1       0.504  -6.450   9.097  0.00  0.00    +0.173 HD
BRANCH   9  11
ATOM     11  N   UNL     1      -0.876  -7.831   8.423  0.00  0.00    -0.246 N 
ATOM     12  H   UNL     1      -1.418  -8.091   7.662  0.00  0.00    +0.172 HD
BRANCH  11  13
ATOM     13  C   UNL     1      -0.927  -8.546   9.564  0.00  0.00    +0.147 C 
ATOM     14  S   UNL     1      -1.950  -9.915   9.670  0.00  0.00    -0.017 S 
BRANCH  13  15
ATOM     15  N   UNL     1      -0.174  -8.185  10.621  0.00  0.00    -0.323 N 
ATOM     16  H   UNL     1       0.406  -7.409  10.561  0.00  0.00    +0.148 HD
BRANCH  15  17
ATOM     17  C   UNL     1      -0.230  -8.963  11.861  0.00  0.00    +0.072 C 
ATOM     18  C   UNL     1      -1.402  -8.476  12.716  0.00  0.00    +0.022 C 
ATOM     19  C   UNL     1      -1.460  -9.288  14.011  0.00  0.00    +0.002 C 
ATOM     20  C   UNL     1      -0.154  -9.107  14.786  0.00  0.00    +0.000 C 
ATOM     21  C   UNL     1       1.018  -9.594  13.932  0.00  0.00    +0.002 C 
ATOM     22  C   UNL     1       1.077  -8.782  12.636  0.00  0.00    +0.022 C 
ENDBRANCH  15  17
ENDBRANCH  13  15
ENDBRANCH  11  13
ENDBRANCH   9  11
ENDBRANCH   5   7
BRANCH   1  23
ATOM     23  S   UNL     1       2.704  -2.665   4.505  0.00  0.00    +0.061 S 
ATOM     24  O   UNL     1       3.098  -3.949   4.041  0.00  0.00    -0.153 OA
ATOM     25  O   UNL     1       3.632  -1.728   5.033  0.00  0.00    -0.153 OA
BRANCH  23  29
ATOM     26  C   UNL     1       0.626  -0.618   1.042  0.00  0.00    +0.120 A 
ATOM     27  C   UNL     1       1.202   0.138   2.051  0.00  0.00    +0.047 A 
ATOM     28  C   UNL     1       1.835  -0.488   3.107  0.00  0.00    +0.032 A 
ATOM     29  C   UNL     1       1.895  -1.869   3.158  0.00  0.00    +0.106 A 
ATOM     30  C   UNL     1       1.322  -2.625   2.152  0.00  0.00    +0.032 A 
ATOM     31  C   UNL     1       0.682  -2.003   1.098  0.00  0.00    +0.047 A 
BRANCH  26  33
ATOM     32  C   UNL     1      -0.017   1.425   0.010  0.00  0.00    +0.277 C 
ATOM     33  O   UNL     1       0.002  -0.004   0.002  0.00  0.00    -0.495 OA
ENDBRANCH  26  33
ENDBRANCH  23  29
ENDBRANCH   1  23
TORSDOF 8
