REMARK  Name = ZINC36252568
REMARK  7 active torsions:
REMARK  status: ('A' for Active; 'I' for Inactive)
REMARK    1  A    between atoms: C_1  and  C_2
REMARK    2  A    between atoms: C_3  and  N_21
REMARK    3  A    between atoms: C_8  and  C_11
REMARK    4  A    between atoms: C_14  and  C_17
REMARK    5  A    between atoms: C_17  and  C_18
REMARK    6  A    between atoms: C_17  and  C_19
REMARK    7  A    between atoms: C_17  and  C_20
REMARK                            x       y       z     vdW  Elec       q    Type
REMARK                         _______ _______ _______ _____ _____    ______ ____
ROOT
ATOM      1  C   UNL     1       2.055  -0.082   4.592  0.00  0.00    +0.066 C 
ATOM      2  C   UNL     1       1.718  -1.316   3.796  0.00  0.00    +0.045 A 
ATOM      3  C   UNL     1       2.433  -2.454   3.981  0.00  0.00    +0.044 A 
ATOM      4  C   UNL     1       2.125  -3.613   3.240  0.00  0.00    +0.028 A 
ATOM      5  C   UNL     1       1.107  -3.586   2.338  0.00  0.00    +0.050 A 
ATOM      6  C   UNL     1       0.376  -2.397   2.159  0.00  0.00    +0.162 A 
ATOM      7  N   UNL     1       0.692  -1.284   2.896  0.00  0.00    -0.278 N 
ATOM      8  C   UNL     1      -0.188  -0.312   2.505  0.00  0.00    +0.169 A 
ATOM      9  N   UNL     1      -0.976  -0.843   1.590  0.00  0.00    -0.128 NA
ATOM     10  N   UNL     1      -0.643  -2.067   1.377  0.00  0.00    -0.129 NA
ENDROOT
BRANCH   8  11
ATOM     11  C   UNL     1      -0.245   1.074   3.013  0.00  0.00    +0.020 A 
ATOM     12  C   UNL     1      -0.183   2.150   2.124  0.00  0.00    +0.012 A 
ATOM     13  C   UNL     1      -0.237   3.441   2.605  0.00  0.00    +0.005 A 
ATOM     14  C   UNL     1      -0.353   3.673   3.964  0.00  0.00    -0.042 A 
ATOM     15  C   UNL     1      -0.416   2.611   4.850  0.00  0.00    +0.005 A 
ATOM     16  C   UNL     1      -0.368   1.315   4.383  0.00  0.00    +0.012 A 
BRANCH  14  17
ATOM     17  C   UNL     1      -0.412   5.087   4.482  0.00  0.00    -0.013 C 
ATOM     18  C   UNL     1      -1.623   5.801   3.879  0.00  0.00    +0.015 C 
ATOM     19  C   UNL     1      -0.539   5.066   6.007  0.00  0.00    +0.015 C 
ATOM     20  C   UNL     1       0.867   5.828   4.087  0.00  0.00    +0.015 C 
ENDBRANCH  14  17
ENDBRANCH   8  11
BRANCH   3  21
ATOM     21  N   UNL     1       3.481  -2.477   4.910  0.00  0.00    -0.357 N 
ATOM     22  H   UNL     1       3.694  -1.680   5.420  0.00  0.00    +0.142 HD
ATOM     23  H   UNL     1       3.993  -3.290   5.043  0.00  0.00    +0.142 HD
ENDBRANCH   3  21
TORSDOF 3
