REMARK  Name = ZINC39665818
REMARK  10 active torsions:
REMARK  status: ('A' for Active; 'I' for Inactive)
REMARK    1  A    between atoms: C_1  and  C_2
REMARK    2  A    between atoms: C_2  and  C_4
REMARK    3  A    between atoms: C_2  and  O_32
REMARK    4  A    between atoms: C_4  and  N_5
REMARK    5  A    between atoms: C_6  and  C_8
REMARK    6  A    between atoms: C_19  and  C_21
REMARK    7  A    between atoms: C_24  and  C_26
REMARK    8  A    between atoms: O_32  and  C_33
REMARK    9  A    between atoms: C_36  and  O_39
REMARK   10  A    between atoms: O_39  and  C_40
REMARK                            x       y       z     vdW  Elec       q    Type
REMARK                         _______ _______ _______ _____ _____    ______ ____
ROOT
ATOM      1  C   UNL     1       1.659  -4.300  -2.643  0.00  0.00    +0.100 C 
ATOM      2  C   UNL     1       0.292  -4.940  -2.974  0.00  0.00    +0.121 C 
ATOM      3  N   UNL     1       0.287  -5.071  -4.450  0.00  0.00    -0.294 N 
ATOM      4  C   UNL     1       1.671  -5.480  -4.788  0.00  0.00    +0.115 C 
ATOM      5  C   UNL     1       2.562  -4.660  -3.834  0.00  0.00    -0.004 C 
ATOM      6  C   UNL     1       3.050  -3.392  -4.529  0.00  0.00    -0.010 C 
ATOM      7  C   UNL     1       3.991  -3.774  -5.675  0.00  0.00    -0.082 C 
ATOM      8  N   UNL     1       5.129  -4.533  -5.143  0.00  0.00    +0.379 N 
ATOM      9  C   UNL     1       4.660  -5.795  -4.559  0.00  0.00    -0.082 C 
ATOM     10  C   UNL     1       3.747  -5.499  -3.366  0.00  0.00    -0.010 C 
ATOM     11  C   UNL     1      -0.743  -4.863  -5.294  0.00  0.00    +0.282 C 
ATOM     12  O   UNL     1      -0.587  -5.013  -6.492  0.00  0.00    -0.267 OA
ATOM     13  H   UNL     1       5.778  -4.731  -5.890  0.00  0.00    -0.086 HD
ATOM     14  H   UNL     1       5.594  -3.987  -4.433  0.00  0.00    -0.086 HD
ENDROOT
BRANCH  11  15
ATOM     15  C   UNL     1      -2.050  -4.458  -4.770  0.00  0.00    +0.190 A 
ATOM     16  C   UNL     1      -3.182  -4.220  -5.517  0.00  0.00    +0.055 A 
ATOM     17  C   UNL     1      -4.191  -3.860  -4.617  0.00  0.00    +0.050 A 
ATOM     18  C   UNL     1      -3.643  -3.891  -3.367  0.00  0.00    +0.136 A 
ATOM     19  O   UNL     1      -2.355  -4.258  -3.471  0.00  0.00    -0.450 OA
BRANCH  18  20
ATOM     20  C   UNL     1      -4.351  -3.579  -2.109  0.00  0.00    +0.017 A 
ATOM     21  C   UNL     1      -5.700  -3.219  -2.134  0.00  0.00    +0.011 A 
ATOM     22  C   UNL     1      -6.356  -2.930  -0.955  0.00  0.00    +0.001 A 
ATOM     23  C   UNL     1      -5.679  -2.995   0.250  0.00  0.00    +0.000 A 
ATOM     24  C   UNL     1      -4.342  -3.350   0.282  0.00  0.00    +0.001 A 
ATOM     25  C   UNL     1      -3.676  -3.648  -0.889  0.00  0.00    +0.011 A 
ENDBRANCH  18  20
ENDBRANCH  11  15
BRANCH   1  27
ATOM     26  N   UNL     1       2.354  -2.116  -1.714  0.00  0.00    -0.312 N 
ATOM     27  C   UNL     1       1.522  -2.805  -2.520  0.00  0.00    +0.218 C 
ATOM     28  O   UNL     1       0.663  -2.221  -3.147  0.00  0.00    -0.275 OA
ATOM     29  H   UNL     1       3.041  -2.583  -1.213  0.00  0.00    +0.149 HD
BRANCH  26  30
ATOM     30  C   UNL     1       2.221  -0.661  -1.595  0.00  0.00    +0.148 C 
BRANCH  30  32
ATOM     31  C   UNL     1       3.062   1.368  -0.405  0.00  0.00    +0.053 C 
ATOM     32  C   UNL     1       3.279  -0.131  -0.626  0.00  0.00    +0.187 C 
BRANCH  32  33
ATOM     33  O   UNL     1       4.580  -0.347  -1.175  0.00  0.00    -0.488 OA
BRANCH  33  34
ATOM     34  C   UNL     1       5.616  -0.420  -0.297  0.00  0.00    +0.121 A 
ATOM     35  C   UNL     1       6.889  -0.735  -0.750  0.00  0.00    +0.049 A 
ATOM     36  C   UNL     1       7.941  -0.808   0.142  0.00  0.00    +0.049 A 
ATOM     37  C   UNL     1       7.725  -0.567   1.490  0.00  0.00    +0.120 A 
ATOM     38  C   UNL     1       6.453  -0.251   1.944  0.00  0.00    +0.049 A 
ATOM     39  C   UNL     1       5.402  -0.173   1.051  0.00  0.00    +0.049 A 
BRANCH  37  40
ATOM     40  O   UNL     1       8.761  -0.640   2.368  0.00  0.00    -0.495 OA
ATOM     41  C   UNL     1       8.467  -0.379   3.742  0.00  0.00    +0.277 C 
ENDBRANCH  37  40
ENDBRANCH  33  34
ENDBRANCH  32  33
ENDBRANCH  30  32
ENDBRANCH  26  30
ENDBRANCH   1  27
TORSDOF 8
