REMARK  Name = ZINC15015507
REMARK  11 active torsions:
REMARK  status: ('A' for Active; 'I' for Inactive)
REMARK    1  A    between atoms: C_1  and  C_2
REMARK    2  A    between atoms: C_2  and  C_3
REMARK    3  A    between atoms: N_10  and  N_11
REMARK    4  A    between atoms: C_12  and  C_14
REMARK    5  A    between atoms: C_14  and  N_26
REMARK    6  A    between atoms: C_15  and  C_16
REMARK    7  A    between atoms: C_18  and  O_24
REMARK    8  A    between atoms: C_21  and  O_22
REMARK    9  A    between atoms: O_22  and  C_23
REMARK   10  A    between atoms: O_24  and  C_25
REMARK   11  A    between atoms: C_27  and  C_29
REMARK                            x       y       z     vdW  Elec       q    Type
REMARK                         _______ _______ _______ _____ _____    ______ ____
ROOT
ATOM      1  C   UNL     1      -5.998  -2.181  -6.547  0.00  0.00    +0.098 C 
ATOM      2  C   UNL     1      -7.290  -2.452  -6.236  0.00  0.00    +0.040 C 
ENDROOT
BRANCH   2   3
ATOM      3  C   UNL     1      -8.305  -2.501  -7.295  0.00  0.00    +0.022 A 
ATOM      4  C   UNL     1      -8.104  -1.808  -8.495  0.00  0.00    +0.057 A 
ATOM      5  C   UNL     1      -9.066  -1.859  -9.487  0.00  0.00    +0.121 A 
ATOM      6  C   UNL     1     -10.229  -2.595  -9.296  0.00  0.00    +0.049 A 
ATOM      7  C   UNL     1     -10.436  -3.281  -8.115  0.00  0.00    +0.050 A 
ATOM      8  C   UNL     1      -9.481  -3.246  -7.112  0.00  0.00    +0.127 A 
BRANCH   8   9
ATOM      9  O   UNL     1      -9.683  -3.926  -5.954  0.00  0.00    -0.495 OA
ATOM     10  C   UNL     1     -10.902  -4.662  -5.839  0.00  0.00    +0.277 C 
ENDBRANCH   8   9
BRANCH   5  11
ATOM     11  O   UNL     1      -8.872  -1.187 -10.653  0.00  0.00    -0.495 OA
ATOM     12  C   UNL     1      -9.850  -1.373 -11.678  0.00  0.00    +0.277 C 
ENDBRANCH   5  11
ENDBRANCH   2   3
BRANCH   1  14
ATOM     13  N   UNL     1      -5.391  -2.068  -4.188  0.00  0.00    -0.201 N 
ATOM     14  C   UNL     1      -5.013  -1.982  -5.479  0.00  0.00    +0.277 C 
ATOM     15  O   UNL     1      -3.854  -1.739  -5.758  0.00  0.00    -0.267 OA
ATOM     16  H   UNL     1      -6.315  -2.262  -3.966  0.00  0.00    +0.178 HD
BRANCH  13  24
ATOM     17  C   UNL     1      -2.107  -1.411   0.749  0.00  0.00    -0.047 A 
ATOM     18  C   UNL     1      -2.933  -1.591   1.845  0.00  0.00    +0.005 A 
ATOM     19  C   UNL     1      -4.274  -1.870   1.676  0.00  0.00    +0.024 A 
ATOM     20  C   UNL     1      -4.810  -1.975   0.397  0.00  0.00    +0.043 A 
ATOM     21  C   UNL     1      -3.970  -1.792  -0.710  0.00  0.00    +0.028 A 
ATOM     22  C   UNL     1      -2.621  -1.505  -0.529  0.00  0.00    +0.015 A 
ATOM     23  C   UNL     1      -4.818  -1.962  -1.912  0.00  0.00    +0.153 C 
ATOM     24  N   UNL     1      -4.450  -1.878  -3.168  0.00  0.00    -0.174 NA
ATOM     25  C   UNL     1      -6.168  -2.248  -1.388  0.00  0.00    +0.269 C 
ATOM     26  O   UNL     1      -7.167  -2.452  -2.054  0.00  0.00    -0.268 OA
ATOM     27  N   UNL     1      -6.101  -2.242  -0.046  0.00  0.00    -0.280 N 
ATOM     28  H   UNL     1      -6.856  -2.403   0.540  0.00  0.00    +0.155 HD
BRANCH  17  30
ATOM     29  C   UNL     1      -0.446   0.408   1.034  0.00  0.00    +0.009 C 
ATOM     30  C   UNL     1      -0.644  -1.106   0.951  0.00  0.00    +0.032 C 
ENDBRANCH  17  30
ENDBRANCH  13  24
ENDBRANCH   1  14
BRANCH   1  31
ATOM     31  N   UNL     1      -5.605  -2.092  -7.886  0.00  0.00    -0.277 N 
ATOM     32  C   UNL     1      -5.008  -0.972  -8.340  0.00  0.00    +0.248 C 
ATOM     33  O   UNL     1      -4.726  -0.077  -7.566  0.00  0.00    -0.270 OA
ATOM     34  H   UNL     1      -5.763  -2.835  -8.489  0.00  0.00    +0.155 HD
BRANCH  32  35
ATOM     35  C   UNL     1      -4.696  -0.831  -9.778  0.00  0.00    +0.037 A 
ATOM     36  C   UNL     1      -5.119  -1.804 -10.685  0.00  0.00    +0.013 A 
ATOM     37  C   UNL     1      -4.824  -1.667 -12.026  0.00  0.00    +0.001 A 
ATOM     38  C   UNL     1      -4.111  -0.568 -12.472  0.00  0.00    +0.000 A 
ATOM     39  C   UNL     1      -3.689   0.400 -11.578  0.00  0.00    +0.001 A 
ATOM     40  C   UNL     1      -3.982   0.278 -10.235  0.00  0.00    +0.013 A 
ENDBRANCH  32  35
ENDBRANCH   1  31
TORSDOF 8
