REMARK  Name = ZINC64532405
REMARK  9 active torsions:
REMARK  status: ('A' for Active; 'I' for Inactive)
REMARK    1  A    between atoms: C_1  and  C_2
REMARK    2  A    between atoms: C_5  and  C_9
REMARK    3  A    between atoms: C_7  and  C_8
REMARK    4  A    between atoms: N_16  and  C_17
REMARK    5  A    between atoms: C_20  and  C_24
REMARK    6  A    between atoms: C_22  and  C_23
REMARK    7  A    between atoms: N_26  and  C_27
REMARK    8  A    between atoms: C_27  and  C_28
REMARK    9  A    between atoms: C_27  and  C_29
REMARK                            x       y       z     vdW  Elec       q    Type
REMARK                         _______ _______ _______ _____ _____    ______ ____
ROOT
ATOM      1  C   UNL     1       0.057  -4.291  -0.012  0.00  0.00    +0.108 C 
ATOM      2  C   UNL     1       1.484  -4.809  -0.285  0.00  0.00    +0.029 C 
ATOM      3  C   UNL     1       1.239  -6.041  -1.195  0.00  0.00    +0.021 C 
ATOM      4  C   UNL     1       0.023  -5.572  -2.033  0.00  0.00    +0.110 C 
ATOM      5  N   UNL     1      -0.804  -4.793  -1.093  0.00  0.00    -0.278 N 
ATOM      6  C   UNL     1      -2.130  -4.577  -1.206  0.00  0.00    +0.307 C 
ATOM      7  O   UNL     1      -2.712  -3.917  -0.368  0.00  0.00    -0.252 OA
ATOM      8  N   UNL     1      -2.810  -5.094  -2.249  0.00  0.00    -0.269 N 
ATOM      9  H   UNL     1      -2.334  -5.551  -2.960  0.00  0.00    +0.156 HD
ENDROOT
BRANCH   1  14
ATOM     10  C   UNL     1       0.027   1.487  -0.001  0.00  0.00    +0.044 C 
ATOM     11  C   UNL     1       0.035  -0.019  -0.004  0.00  0.00    -0.048 A 
ATOM     12  C   UNL     1       0.038  -0.709  -1.203  0.00  0.00    +0.004 A 
ATOM     13  C   UNL     1       0.045  -2.091  -1.205  0.00  0.00    +0.006 A 
ATOM     14  C   UNL     1       0.050  -2.784  -0.009  0.00  0.00    -0.027 A 
ATOM     15  C   UNL     1       0.047  -2.095   1.189  0.00  0.00    +0.009 A 
ATOM     16  C   UNL     1       0.044  -0.713   1.192  0.00  0.00    -0.047 A 
ATOM     17  C   UNL     1       0.047   0.038   2.498  0.00  0.00    +0.044 C 
ENDBRANCH   1  14
BRANCH   8  18
ATOM     18  C   UNL     1      -4.197  -4.971  -2.306  0.00  0.00    +0.038 A 
ATOM     19  C   UNL     1      -4.929  -4.809  -1.133  0.00  0.00    +0.024 A 
ATOM     20  C   UNL     1      -6.299  -4.688  -1.185  0.00  0.00    +0.015 A 
ATOM     21  C   UNL     1      -6.955  -4.726  -2.419  0.00  0.00    +0.037 A 
ATOM     22  C   UNL     1      -6.218  -4.888  -3.595  0.00  0.00    +0.018 A 
ATOM     23  C   UNL     1      -4.847  -5.005  -3.535  0.00  0.00    -0.028 A 
ATOM     24  C   UNL     1      -4.051  -5.174  -4.803  0.00  0.00    +0.045 C 
BRANCH  21  25
ATOM     25  C   UNL     1      -8.424  -4.597  -2.479  0.00  0.00    +0.244 C 
ATOM     26  O   UNL     1      -8.994  -4.631  -3.552  0.00  0.00    -0.270 OA
ATOM     27  N   UNL     1      -9.134  -4.441  -1.343  0.00  0.00    -0.309 N 
ATOM     28  H   UNL     1      -8.679  -4.414  -0.487  0.00  0.00    +0.149 HD
BRANCH  27  29
ATOM     29  C   UNL     1     -10.592  -4.313  -1.403  0.00  0.00    +0.067 C 
ATOM     30  C   UNL     1     -11.199  -4.765  -0.073  0.00  0.00    +0.027 C 
ATOM     31  C   UNL     1     -10.965  -2.852  -1.663  0.00  0.00    +0.027 C 
ENDBRANCH  27  29
ENDBRANCH  21  25
ENDBRANCH   8  18
TORSDOF 4
