REMARK  Name = ZINC03414654
REMARK  9 active torsions:
REMARK  status: ('A' for Active; 'I' for Inactive)
REMARK    1  A    between atoms: C_7  and  C_11
REMARK    2  A    between atoms: C_11  and  C_12
REMARK    3  A    between atoms: C_12  and  C_14
REMARK    4  A    between atoms: C_12  and  N_31
REMARK    5  A    between atoms: C_14  and  O_16
REMARK    6  A    between atoms: O_16  and  C_17
REMARK    7  A    between atoms: C_17  and  C_18
REMARK    8  A    between atoms: N_20  and  C_21
REMARK    9  A    between atoms: C_32  and  C_34
REMARK                            x       y       z     vdW  Elec       q    Type
REMARK                         _______ _______ _______ _____ _____    ______ ____
ROOT
ATOM      1  C   UNL     1       5.603  -6.460   0.419  0.00  0.00    +0.186 C 
ENDROOT
BRANCH   1   2
ATOM      2  N   UNL     1       6.818  -7.061   0.973  0.00  0.00    -0.298 N 
ATOM      3  C   UNL     1       7.995  -6.915   0.333  0.00  0.00    +0.251 C 
ATOM      4  O   UNL     1       8.048  -6.283  -0.706  0.00  0.00    -0.270 OA
ATOM      5  H   UNL     1       6.776  -7.565   1.801  0.00  0.00    +0.150 HD
BRANCH   3   6
ATOM      6  C   UNL     1       9.211  -7.517   0.887  0.00  0.00    +0.074 A 
ATOM      7  C   UNL     1      10.505  -7.485   0.392  0.00  0.00    +0.021 A 
ATOM      8  C   UNL     1      11.469  -8.139   1.119  0.00  0.00    +0.008 A 
ATOM      9  C   UNL     1      11.116  -8.774   2.268  0.00  0.00    +0.046 A 
ATOM     10  S   UNL     1       9.413  -8.474   2.380  0.00  0.00    -0.092 S 
ENDBRANCH   3   6
ENDBRANCH   1   2
BRANCH   1  11
ATOM     11  C   UNL     1       5.781  -4.967   0.321  0.00  0.00    +0.328 C 
ATOM     12  O   UNL     1       6.891  -4.489   0.324  0.00  0.00    -0.249 OA
BRANCH  11  13
ATOM     13  O   UNL     1       4.706  -4.167   0.231  0.00  0.00    -0.454 OA
BRANCH  13  14
ATOM     14  C   UNL     1       4.953  -2.739   0.140  0.00  0.00    +0.328 C 
BRANCH  14  15
ATOM     15  C   UNL     1       3.639  -2.007   0.048  0.00  0.00    +0.255 C 
ATOM     16  O   UNL     1       2.597  -2.628   0.057  0.00  0.00    -0.272 OA
ATOM     17  N   UNL     1       3.621  -0.663  -0.046  0.00  0.00    -0.283 N 
ATOM     18  H   UNL     1       4.453  -0.172  -0.131  0.00  0.00    +0.155 HD
BRANCH  17  19
ATOM     19  C   UNL     1       2.401   0.025  -0.021  0.00  0.00    +0.037 A 
ATOM     20  C   UNL     1       1.346  -0.460   0.740  0.00  0.00    +0.027 A 
ATOM     21  C   UNL     1       0.142   0.217   0.764  0.00  0.00    +0.051 A 
ATOM     22  C   UNL     1      -0.016   1.384   0.030  0.00  0.00    +0.162 A 
ATOM     23  C   UNL     1       1.040   1.873  -0.730  0.00  0.00    +0.164 A 
ATOM     24  C   UNL     1       2.247   1.192  -0.756  0.00  0.00    +0.072 A 
ATOM     25  O   UNL     1       0.906   3.021  -1.451  0.00  0.00    -0.485 OA
ATOM     26  C   UNL     1      -0.429   3.473  -1.699  0.00  0.00    +0.270 C 
ATOM     27  C   UNL     1      -1.216   3.395  -0.384  0.00  0.00    +0.270 C 
ATOM     28  O   UNL     1      -1.213   2.033   0.059  0.00  0.00    -0.485 OA
ENDBRANCH  17  19
ENDBRANCH  14  15
ENDBRANCH  13  14
ENDBRANCH  11  13
ENDBRANCH   1  11
BRANCH   1  29
ATOM     29  C   UNL     1       5.339  -7.035  -0.974  0.00  0.00    +0.071 C 
BRANCH  29  36
ATOM     30  C   UNL     1       1.420  -9.453  -0.101  0.00  0.00    +0.001 A 
ATOM     31  C   UNL     1       1.622 -10.826  -0.094  0.00  0.00    +0.002 A 
ATOM     32  C   UNL     1       2.873 -11.354  -0.327  0.00  0.00    +0.026 A 
ATOM     33  C   UNL     1       3.947 -10.503  -0.572  0.00  0.00    +0.047 A 
ATOM     34  C   UNL     1       3.736  -9.112  -0.579  0.00  0.00    +0.003 A 
ATOM     35  C   UNL     1       2.460  -8.600  -0.340  0.00  0.00    +0.010 A 
ATOM     36  C   UNL     1       5.040  -8.507  -0.862  0.00  0.00    -0.020 A 
ATOM     37  C   UNL     1       5.916  -9.514  -1.009  0.00  0.00    +0.087 A 
ATOM     38  N   UNL     1       5.282 -10.713  -0.834  0.00  0.00    -0.360 N 
ATOM     39  H   UNL     1       5.709 -11.583  -0.889  0.00  0.00    +0.165 HD
ENDBRANCH  29  36
ENDBRANCH   1  29
TORSDOF 9
