REMARK  Name = ZINC09884629
REMARK  7 active torsions:
REMARK  status: ('A' for Active; 'I' for Inactive)
REMARK    1  A    between atoms: C_1  and  C_2
REMARK    2  A    between atoms: C_4  and  C_14
REMARK    3  A    between atoms: C_5  and  C_13
REMARK    4  A    between atoms: N_6  and  C_7
REMARK    5  A    between atoms: C_15  and  C_16
REMARK    6  A    between atoms: C_21  and  C_24
REMARK    7  A    between atoms: N_26  and  C_27
REMARK                            x       y       z     vdW  Elec       q    Type
REMARK                         _______ _______ _______ _____ _____    ______ ____
ROOT
ATOM      1  C   UNL     1       9.844   3.002  -1.481  0.00  0.00    +0.239 C 
ATOM      2  O   UNL     1      10.757   2.209  -1.336  0.00  0.00    -0.271 OA
ATOM      3  N   UNL     1       8.754   2.927  -0.693  0.00  0.00    -0.298 N 
ATOM      4  C   UNL     1       8.700   1.969   0.420  0.00  0.00    +0.109 C 
ATOM      5  C   UNL     1       7.431   1.122   0.280  0.00  0.00    +0.032 C 
ATOM      6  C   UNL     1       6.214   2.045   0.185  0.00  0.00    +0.078 C 
ATOM      7  C   UNL     1       6.341   2.934  -1.054  0.00  0.00    +0.032 C 
ATOM      8  C   UNL     1       7.597   3.801  -0.929  0.00  0.00    +0.109 C 
ENDROOT
BRANCH   6   9
ATOM      9  C   UNL     1       4.960   1.215   0.082  0.00  0.00    +0.220 C 
ATOM     10  O   UNL     1       5.033   0.004   0.084  0.00  0.00    -0.275 OA
ATOM     11  N   UNL     1       3.759   1.818  -0.012  0.00  0.00    -0.285 N 
ATOM     12  H   UNL     1       3.698   2.913  -0.099  0.00  0.00    +0.155 HD
BRANCH  11  13
ATOM     13  C   UNL     1       2.587   1.050  -0.001  0.00  0.00    +0.037 A 
ATOM     14  C   UNL     1       2.528  -0.115   0.752  0.00  0.00    +0.027 A 
ATOM     15  C   UNL     1       1.373  -0.873   0.766  0.00  0.00    +0.051 A 
ATOM     16  C   UNL     1       0.270  -0.473   0.028  0.00  0.00    +0.166 A 
ATOM     17  C   UNL     1       0.327   0.695  -0.729  0.00  0.00    +0.168 A 
ATOM     18  C   UNL     1       1.485   1.454  -0.741  0.00  0.00    +0.072 A 
ATOM     19  O   UNL     1      -0.872   0.864  -1.360  0.00  0.00    -0.453 OA
ATOM     20  C   UNL     1      -1.523  -0.417  -1.303  0.00  0.00    +0.466 C 
ATOM     21  O   UNL     1      -0.966  -1.033  -0.126  0.00  0.00    -0.453 OA
ENDBRANCH  11  13
ENDBRANCH   6   9
BRANCH   1  23
ATOM     22  C   UNL     1      11.060   4.139  -3.208  0.00  0.00    +0.015 C 
ATOM     23  C   UNL     1       9.929   4.004  -2.480  0.00  0.00    +0.068 C 
BRANCH  22  27
ATOM     24  C   UNL     1       9.914   8.026  -6.302  0.00  0.00    +0.063 C 
ATOM     25  C   UNL     1      10.624   6.896  -5.602  0.00  0.00    +0.017 A 
ATOM     26  C   UNL     1      10.106   6.141  -4.617  0.00  0.00    +0.030 A 
ATOM     27  C   UNL     1      11.147   5.177  -4.242  0.00  0.00    -0.004 A 
ATOM     28  C   UNL     1      12.223   5.442  -5.065  0.00  0.00    +0.023 A 
ATOM     29  N   UNL     1      11.893   6.472  -5.870  0.00  0.00    -0.345 N 
ATOM     30  C   UNL     1      13.540   4.709  -5.063  0.00  0.00    +0.064 C 
BRANCH  29  31
ATOM     31  C   UNL     1      12.771   7.053  -6.888  0.00  0.00    +0.087 C 
ATOM     32  C   UNL     1      13.138   8.484  -6.489  0.00  0.00    +0.025 C 
ATOM     33  C   UNL     1      14.055   9.091  -7.552  0.00  0.00    +0.002 C 
ATOM     34  C   UNL     1      13.332   9.107  -8.900  0.00  0.00    +0.000 C 
ATOM     35  C   UNL     1      12.965   7.677  -9.300  0.00  0.00    +0.002 C 
ATOM     36  C   UNL     1      12.048   7.069  -8.237  0.00  0.00    +0.025 C 
ENDBRANCH  29  31
ENDBRANCH  22  27
ENDBRANCH   1  23
TORSDOF 5
