REMARK  Name = ZINC60039900
REMARK  9 active torsions:
REMARK  status: ('A' for Active; 'I' for Inactive)
REMARK    1  A    between atoms: C_1  and  C_2
REMARK    2  A    between atoms: C_2  and  C_3
REMARK    3  A    between atoms: C_3  and  N_4
REMARK    4  A    between atoms: N_4  and  C_5
REMARK    5  A    between atoms: N_4  and  C_22
REMARK    6  A    between atoms: C_5  and  C_6
REMARK    7  A    between atoms: N_11  and  C_12
REMARK    8  A    between atoms: C_15  and  C_18
REMARK    9  A    between atoms: C_19  and  C_21
REMARK                            x       y       z     vdW  Elec       q    Type
REMARK                         _______ _______ _______ _____ _____    ______ ____
ROOT
ATOM      1  C   UNL     1      -0.730  -2.201  -1.246  0.00  0.00    -0.021 C 
ENDROOT
BRANCH   1   2
ATOM      2  C   UNL     1      -1.449  -1.558  -0.088  0.00  0.00    +0.034 A 
ATOM      3  C   UNL     1      -2.185  -0.431  -0.249  0.00  0.00    +0.070 A 
ATOM      4  S   UNL     1      -2.765  -0.171   1.420  0.00  0.00    -0.060 S 
ATOM      5  C   UNL     1      -2.022  -1.502   2.134  0.00  0.00    +0.172 A 
ATOM      6  N   UNL     1      -1.395  -2.071   1.127  0.00  0.00    -0.231 NA
ATOM      7  N   UNL     1      -2.065  -1.905   3.465  0.00  0.00    -0.219 N 
ATOM      8  C   UNL     1      -1.317  -2.948   3.877  0.00  0.00    +0.223 C 
ATOM      9  O   UNL     1      -0.530  -3.469   3.116  0.00  0.00    -0.275 OA
ATOM     10  C   UNL     1      -1.460  -3.467   5.285  0.00  0.00    +0.110 C 
BRANCH   7  11
ATOM     11  C   UNL     1      -2.885  -1.227   4.376  0.00  0.00    +0.043 A 
ATOM     12  C   UNL     1      -2.318  -0.468   5.391  0.00  0.00    +0.024 A 
ATOM     13  C   UNL     1      -3.129   0.200   6.287  0.00  0.00    +0.005 A 
ATOM     14  C   UNL     1      -4.504   0.113   6.175  0.00  0.00    -0.050 A 
ATOM     15  C   UNL     1      -5.072  -0.643   5.165  0.00  0.00    +0.005 A 
ATOM     16  C   UNL     1      -4.266  -1.308   4.262  0.00  0.00    +0.024 A 
ATOM     17  C   UNL     1      -5.386   0.843   7.155  0.00  0.00    +0.044 C 
ENDBRANCH   7  11
ENDBRANCH   1   2
BRANCH   1  18
ATOM     18  N   UNL     1       0.662  -1.732  -1.279  0.00  0.00    +0.385 N 
ATOM     19  H   UNL     1       1.092  -1.892  -0.381  0.00  0.00    -0.081 HD
BRANCH  18  20
ATOM     20  C   UNL     1       1.402  -2.466  -2.314  0.00  0.00    -0.063 C 
ATOM     21  C   UNL     1       2.852  -1.970  -2.362  0.00  0.00    -0.010 C 
ATOM     22  C   UNL     1       3.526  -2.572  -3.593  0.00  0.00    +0.034 C 
ATOM     23  C   UNL     1       3.324  -4.065  -3.631  0.00  0.00    -0.044 A 
ATOM     24  C   UNL     1       4.166  -4.811  -4.446  0.00  0.00    +0.004 A 
ATOM     25  C   UNL     1       4.029  -6.181  -4.528  0.00  0.00    +0.000 A 
ATOM     26  C   UNL     1       3.045  -6.817  -3.795  0.00  0.00    +0.000 A 
ATOM     27  C   UNL     1       2.209  -6.078  -2.983  0.00  0.00    +0.004 A 
ATOM     28  C   UNL     1       2.348  -4.699  -2.896  0.00  0.00    -0.046 A 
ATOM     29  C   UNL     1       1.412  -3.956  -1.979  0.00  0.00    +0.020 C 
ENDBRANCH  18  20
BRANCH  18  30
ATOM     30  C   UNL     1       0.687  -0.295  -1.586  0.00  0.00    -0.078 C 
BRANCH  30  32
ATOM     31  C   UNL     1       0.050   1.442  -3.264  0.00  0.00    +0.002 C 
ATOM     32  C   UNL     1       0.092  -0.060  -2.975  0.00  0.00    -0.022 C 
ENDBRANCH  30  32
ENDBRANCH  18  30
ENDBRANCH   1  18
TORSDOF 6
