REMARK  Name = ZINC25478680
REMARK  5 active torsions:
REMARK  status: ('A' for Active; 'I' for Inactive)
REMARK    1  A    between atoms: C_6  and  C_7
REMARK    2  A    between atoms: C_7  and  N_8
REMARK    3  A    between atoms: N_8  and  C_9
REMARK    4  A    between atoms: N_8  and  C_19
REMARK    5  A    between atoms: C_9  and  N_10
REMARK                            x       y       z     vdW  Elec       q    Type
REMARK                         _______ _______ _______ _____ _____    ______ ____
ROOT
ATOM      1  N   UNL     1      -2.975   1.063   1.385  0.00  0.00    +0.397 N 
ATOM      2  H   UNL     1      -1.986   1.216   1.843  0.00  0.00    -0.078 HD
ENDROOT
BRANCH   1   3
ATOM      3  C   UNL     1      -3.795   2.247   1.678  0.00  0.00    -0.066 C 
ATOM      4  C   UNL     1      -3.063   3.558   1.971  0.00  0.00    -0.017 C 
ATOM      5  C   UNL     1      -3.755   2.798   3.105  0.00  0.00    -0.017 C 
ENDBRANCH   1   3
BRANCH   1   6
ATOM      6  C   UNL     1      -3.565  -0.145   1.976  0.00  0.00    -0.040 C 
BRANCH   6  12
ATOM      7  C   UNL     1      -2.427  -0.523   4.173  0.00  0.00    +0.003 A 
ATOM      8  C   UNL     1      -2.385  -0.424   5.551  0.00  0.00    +0.015 A 
ATOM      9  C   UNL     1      -3.443   0.146   6.236  0.00  0.00    +0.018 A 
ATOM     10  C   UNL     1      -4.540   0.623   5.542  0.00  0.00    +0.015 A 
ATOM     11  C   UNL     1      -4.579   0.528   4.163  0.00  0.00    +0.003 A 
ATOM     12  C   UNL     1      -3.522  -0.042   3.479  0.00  0.00    -0.064 A 
ATOM     13 BR   UNL     1      -3.388   0.276   8.122  0.00  0.00    -0.050 Br
ENDBRANCH   6  12
ENDBRANCH   1   6
BRANCH   1  14
ATOM     14  C   UNL     1      -2.782   0.901  -0.062  0.00  0.00    +0.074 C 
BRANCH  14  15
ATOM     15  N   UNL     1      -1.646   1.718  -0.498  0.00  0.00    -0.245 N 
ATOM     16  C   UNL     1      -0.484   1.112  -0.808  0.00  0.00    +0.285 A 
ATOM     17  O   UNL     1      -0.380  -0.102  -0.727  0.00  0.00    -0.265 OA
ATOM     18  C   UNL     1       0.610   1.895  -1.235  0.00  0.00    +0.126 A 
ATOM     19  C   UNL     1       0.436   3.250  -1.307  0.00  0.00    +0.084 A 
ATOM     20  C   UNL     1      -0.818   3.780  -0.954  0.00  0.00    +0.154 A 
ATOM     21  N   UNL     1      -1.783   2.992  -0.569  0.00  0.00    -0.177 NA
ATOM     22 CL   UNL     1       1.729   4.289  -1.820  0.00  0.00    -0.080 Cl
ATOM     23 CL   UNL     1       2.127   1.162  -1.654  0.00  0.00    -0.076 Cl
ENDBRANCH  14  15
ENDBRANCH   1  14
TORSDOF 5
