REMARK  Name = ZINC38573705
REMARK  7 active torsions:
REMARK  status: ('A' for Active; 'I' for Inactive)
REMARK    1  A    between atoms: C_1  and  S_2
REMARK    2  A    between atoms: S_2  and  C_3
REMARK    3  A    between atoms: C_3  and  C_4
REMARK    4  A    between atoms: C_4  and  C_5
REMARK    5  A    between atoms: C_5  and  C_7
REMARK    6  A    between atoms: C_5  and  N_24
REMARK    7  A    between atoms: C_25  and  C_27
REMARK                            x       y       z     vdW  Elec       q    Type
REMARK                         _______ _______ _______ _____ _____    ______ ____
ROOT
ATOM      1  C   UNL     1      -3.356  -2.382   0.022  0.00  0.00    +0.160 C 
ENDROOT
BRANCH   1   2
ATOM      2  C   UNL     1      -3.445  -3.866  -0.227  0.00  0.00    +0.236 C 
ATOM      3  O   UNL     1      -4.034  -4.578   0.558  0.00  0.00    -0.274 OA
ATOM      4  N   UNL     1      -2.870  -4.401  -1.322  0.00  0.00    -0.300 N 
ATOM      5  C   UNL     1      -2.057  -3.572  -2.222  0.00  0.00    +0.106 C 
ATOM      6  C   UNL     1      -0.686  -4.234  -2.396  0.00  0.00    +0.009 C 
ATOM      7  C   UNL     1      -0.875  -5.676  -2.867  0.00  0.00    -0.037 C 
ATOM      8  C   UNL     1      -1.664  -6.463  -1.820  0.00  0.00    +0.009 C 
ATOM      9  C   UNL     1      -3.040  -5.827  -1.635  0.00  0.00    +0.106 C 
ATOM     10  C   UNL     1       0.490  -6.330  -3.083  0.00  0.00    +0.140 C 
ATOM     11  C   UNL     1       1.139  -5.559  -4.229  0.00  0.00    +0.042 C 
ATOM     12  N   UNL     1       2.258  -5.138  -3.783  0.00  0.00    -0.243 NA
ATOM     13  C   UNL     1       2.417  -5.433  -2.470  0.00  0.00    +0.216 C 
ATOM     14  N   UNL     1       1.411  -6.116  -1.965  0.00  0.00    -0.264 NA
ATOM     15  C   UNL     1       0.410  -5.319  -5.527  0.00  0.00    +0.034 C 
ATOM     16  C   UNL     1      -0.987  -4.801  -5.138  0.00  0.00    -0.076 C 
ATOM     17  N   UNL     1      -1.602  -5.686  -4.145  0.00  0.00    +0.385 N 
ATOM     18  H   UNL     1      -1.613  -6.628  -4.508  0.00  0.00    -0.085 HD
ATOM     19  H   UNL     1      -2.552  -5.388  -3.984  0.00  0.00    -0.085 HD
ENDBRANCH   1   2
BRANCH   1  20
ATOM     20  N   UNL     1      -4.501  -1.952   0.828  0.00  0.00    -0.300 N 
ATOM     21  C   UNL     1      -4.927  -0.675   0.767  0.00  0.00    +0.245 C 
ATOM     22  O   UNL     1      -4.362   0.120   0.042  0.00  0.00    -0.270 OA
ATOM     23  H   UNL     1      -4.952  -2.587   1.407  0.00  0.00    +0.150 HD
BRANCH  21  24
ATOM     24  C   UNL     1      -6.081  -0.242   1.580  0.00  0.00    +0.040 A 
ATOM     25  C   UNL     1      -6.728  -1.154   2.417  0.00  0.00    +0.017 A 
ATOM     26  C   UNL     1      -7.804  -0.748   3.176  0.00  0.00    +0.050 A 
ATOM     27  C   UNL     1      -8.249   0.566   3.111  0.00  0.00    +0.166 A 
ATOM     28  C   UNL     1      -7.607   1.481   2.276  0.00  0.00    +0.167 A 
ATOM     29  C   UNL     1      -6.524   1.081   1.517  0.00  0.00    +0.062 A 
ATOM     30  O   UNL     1      -8.230   2.690   2.394  0.00  0.00    -0.453 OA
ATOM     31  C   UNL     1      -9.508   2.406   2.994  0.00  0.00    +0.466 C 
ATOM     32  O   UNL     1      -9.271   1.204   3.750  0.00  0.00    -0.453 OA
ENDBRANCH  21  24
ENDBRANCH   1  20
BRANCH   1  33
ATOM     33  C   UNL     1      -2.059  -2.067   0.769  0.00  0.00    +0.042 C 
BRANCH  33  34
ATOM     34  C   UNL     1      -1.898  -0.551   0.895  0.00  0.00    +0.071 C 
BRANCH  34  36
ATOM     35  C   UNL     1      -0.319   1.635   1.846  0.00  0.00    +0.084 C 
ATOM     36  S   UNL     1      -0.360  -0.177   1.781  0.00  0.00    -0.164 S 
ENDBRANCH  34  36
ENDBRANCH  33  34
ENDBRANCH   1  33
TORSDOF 6
