REMARK  Name = ZINC08623444
REMARK  9 active torsions:
REMARK  status: ('A' for Active; 'I' for Inactive)
REMARK    1  A    between atoms: C_1  and  C_2
REMARK    2  A    between atoms: C_2  and  C_4
REMARK    3  A    between atoms: C_7  and  N_10
REMARK    4  A    between atoms: C_11  and  O_13
REMARK    5  A    between atoms: O_13  and  C_14
REMARK    6  A    between atoms: C_14  and  C_15
REMARK    7  A    between atoms: C_23  and  C_25
REMARK    8  A    between atoms: C_27  and  C_37
REMARK    9  A    between atoms: C_29  and  C_31
REMARK                            x       y       z     vdW  Elec       q    Type
REMARK                         _______ _______ _______ _____ _____    ______ ____
ROOT
ATOM      1  C   UNL     1      -0.126   3.797  -0.120  0.00  0.00    -0.030 C 
ATOM      2  C   UNL     1      -0.249   2.401  -0.737  0.00  0.00    -0.008 C 
ATOM      3  C   UNL     1       0.579   2.354  -2.027  0.00  0.00    -0.007 C 
ATOM      4  C   UNL     1       2.038   2.678  -1.684  0.00  0.00    -0.015 C 
ATOM      5  C   UNL     1       2.098   4.066  -1.041  0.00  0.00    -0.078 C 
ATOM      6  C   UNL     1       0.166   4.797  -2.307  0.00  0.00    -0.068 C 
ATOM      7  C   UNL     1       0.057   3.418  -3.002  0.00  0.00    +0.024 C 
ATOM      8  N   UNL     1       0.744   4.654  -0.954  0.00  0.00    +0.384 N 
ATOM      9  H   UNL     1       0.811   5.583  -0.520  0.00  0.00    -0.081 HD
ENDROOT
BRANCH   7  10
ATOM     10  C   UNL     1      -1.386   3.137  -3.331  0.00  0.00    +0.047 A 
ATOM     11  C   UNL     1      -2.217   4.157  -3.772  0.00  0.00    +0.047 A 
ATOM     12  C   UNL     1      -3.538   3.855  -4.065  0.00  0.00    +0.048 A 
ATOM     13  N   UNL     1      -3.965   2.612  -3.916  0.00  0.00    -0.232 NA
ATOM     14  C   UNL     1      -3.145   1.661  -3.492  0.00  0.00    +0.160 A 
ATOM     15  N   UNL     1      -1.875   1.915  -3.208  0.00  0.00    -0.232 NA
BRANCH  14  16
ATOM     16  C   UNL     1      -3.659   0.278  -3.336  0.00  0.00    +0.022 A 
ATOM     17  C   UNL     1      -2.824  -0.753  -2.897  0.00  0.00    +0.031 A 
ATOM     18  C   UNL     1      -3.345  -2.025  -2.761  0.00  0.00    +0.111 A 
ATOM     19  N   UNL     1      -4.608  -2.273  -3.049  0.00  0.00    -0.263 NA
ATOM     20  C   UNL     1      -5.427  -1.330  -3.471  0.00  0.00    +0.111 A 
ATOM     21  C   UNL     1      -4.990  -0.030  -3.630  0.00  0.00    +0.031 A 
ENDBRANCH  14  16
BRANCH  12  22
ATOM     22  C   UNL     1      -4.477   4.931  -4.547  0.00  0.00    +0.038 C 
ATOM     23  C   UNL     1      -4.243   5.203  -6.047  0.00  0.00    +0.010 C 
ATOM     24  C   UNL     1      -4.431   6.734  -6.189  0.00  0.00    +0.001 C 
ATOM     25  C   UNL     1      -3.791   7.279  -4.888  0.00  0.00    +0.001 C 
ATOM     26  C   UNL     1      -4.190   6.250  -3.810  0.00  0.00    +0.010 C 
ENDBRANCH  12  22
ENDBRANCH   7  10
BRANCH   1  27
ATOM     27  C   UNL     1      -1.512   4.438  -0.028  0.00  0.00    +0.219 C 
BRANCH  27  28
ATOM     28  O   UNL     1      -1.403   5.739   0.607  0.00  0.00    -0.452 OA
BRANCH  28  30
ATOM     29  N   UNL     1      -2.469   7.740   1.157  0.00  0.00    -0.251 N 
ATOM     30  C   UNL     1      -2.523   6.483   0.675  0.00  0.00    +0.404 C 
ATOM     31  O   UNL     1      -3.583   6.020   0.303  0.00  0.00    -0.226 OA
ATOM     32  H   UNL     1      -1.614   8.134   1.390  0.00  0.00    +0.158 HD
BRANCH  29  36
ATOM     33  C   UNL     1      -5.967   9.931   1.645  0.00  0.00    +0.017 A 
ATOM     34  C   UNL     1      -4.785  10.572   1.251  0.00  0.00    +0.013 A 
ATOM     35  C   UNL     1      -3.638   9.848   1.092  0.00  0.00    +0.024 A 
ATOM     36  C   UNL     1      -3.642   8.475   1.321  0.00  0.00    +0.036 A 
ATOM     37  C   UNL     1      -4.815   7.832   1.707  0.00  0.00    +0.024 A 
ATOM     38  C   UNL     1      -5.965   8.549   1.874  0.00  0.00    +0.013 A 
BRANCH  33  40
ATOM     39  C   UNL     1      -8.438  10.039   2.366  0.00  0.00    +0.091 C 
ATOM     40  C   UNL     1      -7.202  10.705   1.818  0.00  0.00    +0.160 C 
ATOM     41  O   UNL     1      -7.229  11.880   1.519  0.00  0.00    -0.292 OA
ENDBRANCH  33  40
ENDBRANCH  29  36
ENDBRANCH  28  30
ENDBRANCH  27  28
ENDBRANCH   1  27
TORSDOF 8
