REMARK  Name = ZINC14794019
REMARK  9 active torsions:
REMARK  status: ('A' for Active; 'I' for Inactive)
REMARK    1  A    between atoms: C_1  and  N_2
REMARK    2  A    between atoms: N_2  and  C_3
REMARK    3  A    between atoms: N_2  and  S_4
REMARK    4  A    between atoms: S_4  and  C_7
REMARK    5  A    between atoms: C_11  and  C_13
REMARK    6  A    between atoms: N_15  and  C_16
REMARK    7  A    between atoms: C_16  and  C_17
REMARK    8  A    between atoms: C_17  and  C_19
REMARK    9  A    between atoms: C_17  and  C_25
REMARK                            x       y       z     vdW  Elec       q    Type
REMARK                         _______ _______ _______ _____ _____    ______ ____
ROOT
ATOM      1  C   UNL     1      -3.152  -1.438  -1.225  0.00  0.00    +0.117 C 
ENDROOT
BRANCH   1   4
ATOM      2  C   UNL     1      -5.340  -1.567  -2.288  0.00  0.00    +0.246 C 
ATOM      3  O   UNL     1      -4.841  -2.242  -3.167  0.00  0.00    -0.270 OA
ATOM      4  N   UNL     1      -4.580  -1.115  -1.271  0.00  0.00    -0.310 N 
ATOM      5  H   UNL     1      -4.978  -0.577  -0.570  0.00  0.00    +0.149 HD
BRANCH   2  10
ATOM      6  C   UNL     1      -8.703  -0.167  -1.376  0.00  0.00    +0.106 A 
ATOM      7  C   UNL     1      -9.482  -0.631  -2.422  0.00  0.00    +0.030 A 
ATOM      8  C   UNL     1      -8.918  -1.399  -3.424  0.00  0.00    +0.022 A 
ATOM      9  C   UNL     1      -7.572  -1.708  -3.388  0.00  0.00    +0.053 A 
ATOM     10  C   UNL     1      -6.781  -1.241  -2.335  0.00  0.00    +0.057 A 
ATOM     11  C   UNL     1      -7.359  -0.471  -1.324  0.00  0.00    +0.043 A 
ATOM     12 CL   UNL     1      -6.865  -2.671  -4.647  0.00  0.00    -0.083 Cl
BRANCH   6  13
ATOM     13  S   UNL     1      -9.432   0.811  -0.105  0.00  0.00    +0.060 S 
ATOM     14  O   UNL     1      -8.383   1.579   0.470  0.00  0.00    -0.153 OA
ATOM     15  O   UNL     1     -10.593   1.409  -0.667  0.00  0.00    -0.153 OA
BRANCH  13  17
ATOM     16  C   UNL     1      -9.064  -0.602   2.172  0.00  0.00    +0.131 C 
ATOM     17  N   UNL     1      -9.957  -0.228   1.072  0.00  0.00    -0.183 NA
ATOM     18  C   UNL     1     -11.316  -0.775   1.014  0.00  0.00    +0.131 C 
ENDBRANCH  13  17
ENDBRANCH   6  13
ENDBRANCH   2  10
ENDBRANCH   1   4
BRANCH   1  19
ATOM     19  C   UNL     1      -2.527  -0.809   0.022  0.00  0.00    +0.068 C 
BRANCH  19  20
ATOM     20  C   UNL     1      -1.037  -1.037   0.006  0.00  0.00    -0.013 A 
ATOM     21  C   UNL     1      -0.411  -2.224  -0.006  0.00  0.00    +0.088 A 
ATOM     22  N   UNL     1       0.945  -2.036  -0.018  0.00  0.00    -0.360 N 
ATOM     23  H   UNL     1       1.605  -2.746  -0.028  0.00  0.00    +0.165 HD
ATOM     24  C   UNL     1       1.231  -0.689  -0.013  0.00  0.00    +0.047 A 
ATOM     25  C   UNL     1       0.002  -0.004   0.002  0.00  0.00    +0.003 A 
ATOM     26  C   UNL     1      -0.017   1.392   0.010  0.00  0.00    +0.010 A 
ATOM     27  C   UNL     1       1.160   2.086   0.002  0.00  0.00    +0.001 A 
ATOM     28  C   UNL     1       2.375   1.415  -0.013  0.00  0.00    +0.002 A 
ATOM     29  C   UNL     1       2.417   0.038  -0.021  0.00  0.00    +0.026 A 
ENDBRANCH  19  20
BRANCH  19  30
ATOM     30  C   UNL     1      -3.119  -1.442   1.255  0.00  0.00    -0.038 A 
ATOM     31  C   UNL     1      -2.991  -2.803   1.462  0.00  0.00    +0.004 A 
ATOM     32  C   UNL     1      -3.531  -3.383   2.595  0.00  0.00    +0.000 A 
ATOM     33  C   UNL     1      -4.205  -2.603   3.516  0.00  0.00    +0.000 A 
ATOM     34  C   UNL     1      -4.337  -1.244   3.306  0.00  0.00    +0.000 A 
ATOM     35  C   UNL     1      -3.794  -0.663   2.175  0.00  0.00    +0.004 A 
ENDBRANCH  19  30
ENDBRANCH   1  19
TORSDOF 7
