REMARK  Name = ZINC58022026
REMARK  3 active torsions:
REMARK  status: ('A' for Active; 'I' for Inactive)
REMARK    1  A    between atoms: C_1  and  C_2
REMARK    2  A    between atoms: C_5  and  N_21
REMARK    3  A    between atoms: C_7  and  C_8
REMARK                            x       y       z     vdW  Elec       q    Type
REMARK                         _______ _______ _______ _____ _____    ______ ____
ROOT
ATOM      1  C   UNL     1       0.025   0.021   2.493  0.00  0.00    +0.170 A 
ATOM      2  N   UNL     1       0.096   1.322   2.645  0.00  0.00    -0.128 NA
ATOM      3  N   UNL     1       0.073   1.619   3.897  0.00  0.00    -0.121 NA
ATOM      4  C   UNL     1      -0.012   0.528   4.603  0.00  0.00    +0.201 A 
ATOM      5  N   UNL     1      -0.053  -0.547   3.760  0.00  0.00    -0.269 N 
ATOM      6  C   UNL     1      -0.150  -1.827   4.317  0.00  0.00    +0.064 A 
ATOM      7  C   UNL     1      -0.201  -3.045   3.619  0.00  0.00    +0.030 A 
ATOM      8  C   UNL     1      -0.297  -4.239   4.292  0.00  0.00    +0.040 A 
ATOM      9  C   UNL     1      -0.347  -4.282   5.678  0.00  0.00    +0.125 A 
ATOM     10  C   UNL     1      -0.298  -3.095   6.391  0.00  0.00    +0.055 A 
ATOM     11  C   UNL     1      -0.202  -1.901   5.714  0.00  0.00    +0.042 A 
ATOM     12  S   UNL     1      -0.104  -0.201   6.219  0.00  0.00    -0.047 S 
ATOM     13  F   UNL     1      -0.442  -5.465   6.323  0.00  0.00    -0.205 F 
ENDROOT
BRANCH   1  20
ATOM     14  C   UNL     1      -1.853   0.773   0.428  0.00  0.00    +0.044 C 
ATOM     15  C   UNL     1      -0.879  -0.354   0.203  0.00  0.00    -0.040 A 
ATOM     16  C   UNL     1      -0.876  -1.034  -0.999  0.00  0.00    +0.006 A 
ATOM     17  C   UNL     1       0.015  -2.069  -1.210  0.00  0.00    +0.023 A 
ATOM     18  C   UNL     1       0.914  -2.433  -0.214  0.00  0.00    +0.025 A 
ATOM     19  C   UNL     1       0.919  -1.757   0.996  0.00  0.00    +0.034 A 
ATOM     20  C   UNL     1       0.023  -0.709   1.207  0.00  0.00    +0.024 A 
BRANCH  18  21
ATOM     21  N   UNL     1       1.812  -3.481  -0.433  0.00  0.00    -0.358 N 
ATOM     22  H   UNL     1       1.809  -3.954  -1.279  0.00  0.00    +0.142 HD
ATOM     23  H   UNL     1       2.439  -3.735   0.262  0.00  0.00    +0.142 HD
ENDBRANCH  18  21
ENDBRANCH   1  20
TORSDOF 2
