REMARK  Name = ZINC14466734
REMARK  6 active torsions:
REMARK  status: ('A' for Active; 'I' for Inactive)
REMARK    1  A    between atoms: C_1  and  C_2
REMARK    2  A    between atoms: C_2  and  C_3
REMARK    3  A    between atoms: C_3  and  C_5
REMARK    4  A    between atoms: C_3  and  N_6
REMARK    5  A    between atoms: C_7  and  C_9
REMARK    6  A    between atoms: C_22  and  C_25
REMARK                            x       y       z     vdW  Elec       q    Type
REMARK                         _______ _______ _______ _____ _____    ______ ____
ROOT
ATOM      1  C   UNL     1      -4.427   1.010  -1.994  0.00  0.00    +0.037 A 
ATOM      2  C   UNL     1      -4.671  -0.213  -1.363  0.00  0.00    +0.015 A 
ATOM      3  C   UNL     1      -5.923  -0.778  -1.419  0.00  0.00    +0.024 A 
ATOM      4  C   UNL     1      -6.957  -0.141  -2.101  0.00  0.00    +0.031 A 
ATOM      5  C   UNL     1      -6.714   1.092  -2.724  0.00  0.00    -0.019 A 
ATOM      6  C   UNL     1      -5.464   1.659  -2.670  0.00  0.00    +0.019 A 
ATOM      7  C   UNL     1      -7.849   1.743  -3.414  0.00  0.00    +0.049 C 
ATOM      8  C   UNL     1      -7.650   2.676  -4.552  0.00  0.00    -0.023 C 
ATOM      9  C   UNL     1      -8.695   2.582  -5.365  0.00  0.00    -0.030 C 
ATOM     10  C   UNL     1      -9.676   1.532  -4.837  0.00  0.00    +0.033 C 
ATOM     11  C   UNL     1      -8.731   0.625  -4.045  0.00  0.00    +0.029 C 
ATOM     12  C   UNL     1      -9.341  -0.119  -2.871  0.00  0.00    +0.106 C 
ATOM     13  N   UNL     1      -8.207  -0.757  -2.168  0.00  0.00    -0.336 N 
ATOM     14  H   UNL     1      -8.334  -1.620  -1.746  0.00  0.00    +0.147 HD
ENDROOT
BRANCH  12  15
ATOM     15  C   UNL     1     -10.046   0.846  -1.952  0.00  0.00    -0.009 A 
ATOM     16  C   UNL     1      -9.389   1.353  -0.847  0.00  0.00    +0.007 A 
ATOM     17  C   UNL     1     -10.034   2.242  -0.007  0.00  0.00    +0.000 A 
ATOM     18  C   UNL     1     -11.339   2.616  -0.267  0.00  0.00    +0.001 A 
ATOM     19  C   UNL     1     -11.999   2.105  -1.369  0.00  0.00    +0.020 A 
ATOM     20  C   UNL     1     -11.352   1.219  -2.212  0.00  0.00    +0.046 A 
ATOM     21 CL   UNL     1     -12.180   0.576  -3.596  0.00  0.00    -0.083 Cl
ENDBRANCH  12  15
BRANCH   1  23
ATOM     22  N   UNL     1      -2.087   0.991  -1.284  0.00  0.00    -0.309 N 
ATOM     23  C   UNL     1      -3.083   1.616  -1.942  0.00  0.00    +0.244 C 
ATOM     24  O   UNL     1      -2.875   2.680  -2.492  0.00  0.00    -0.270 OA
ATOM     25  H   UNL     1      -2.254   0.142  -0.845  0.00  0.00    +0.149 HD
BRANCH  22  26
ATOM     26  C   UNL     1      -0.753   1.593  -1.232  0.00  0.00    +0.070 C 
ATOM     27  C   UNL     1       0.031   1.205  -2.487  0.00  0.00    +0.028 C 
BRANCH  26  29
ATOM     28  C   UNL     1      -0.729   1.579   1.267  0.00  0.00    +0.005 C 
ATOM     29  C   UNL     1      -0.013   1.086   0.008  0.00  0.00    +0.018 C 
ENDBRANCH  26  29
ENDBRANCH  22  26
ENDBRANCH   1  23
TORSDOF 4
