REMARK  Name = ZINC39969488
REMARK  11 active torsions:
REMARK  status: ('A' for Active; 'I' for Inactive)
REMARK    1  A    between atoms: C_1  and  C_2
REMARK    2  A    between atoms: C_2  and  C_3
REMARK    3  A    between atoms: C_2  and  C_4
REMARK    4  A    between atoms: C_4  and  C_6
REMARK    5  A    between atoms: C_4  and  N_30
REMARK    6  A    between atoms: C_10  and  S_16
REMARK    7  A    between atoms: N_12  and  C_13
REMARK    8  A    between atoms: C_13  and  C_14
REMARK    9  A    between atoms: S_16  and  C_17
REMARK   10  A    between atoms: C_17  and  C_18
REMARK   11  A    between atoms: C_31  and  C_33
REMARK                            x       y       z     vdW  Elec       q    Type
REMARK                         _______ _______ _______ _____ _____    ______ ____
ROOT
ATOM      1  C   UNL     1      -2.085  -0.225  -1.354  0.00  0.00    +0.221 C 
ATOM      2  N   UNL     1      -2.067   1.236  -1.507  0.00  0.00    -0.169 NA
ATOM      3  N   UNL     1      -3.169   1.661  -1.866  0.00  0.00    -0.160 NA
ATOM      4  C   UNL     1      -4.136   0.566  -2.023  0.00  0.00    +0.259 C 
ATOM      5  N   UNL     1      -3.524  -0.585  -1.308  0.00  0.00    -0.243 NA
ENDROOT
BRANCH   1   6
ATOM      6  C   UNL     1      -1.392  -0.633  -0.052  0.00  0.00    +0.117 C 
BRANCH   6   7
ATOM      7  N   UNL     1      -1.397  -2.093   0.067  0.00  0.00    -0.305 N 
ATOM      8  C   UNL     1      -1.322  -2.670   1.282  0.00  0.00    +0.244 C 
ATOM      9  O   UNL     1      -1.250  -1.979   2.280  0.00  0.00    -0.270 OA
ATOM     10  H   UNL     1      -1.454  -2.644  -0.730  0.00  0.00    +0.149 HD
BRANCH   8  11
ATOM     11  C   UNL     1      -1.327  -4.144   1.402  0.00  0.00    +0.037 A 
ATOM     12  C   UNL     1      -1.404  -4.940   0.259  0.00  0.00    +0.013 A 
ATOM     13  C   UNL     1      -1.408  -6.314   0.378  0.00  0.00    +0.001 A 
ATOM     14  C   UNL     1      -1.336  -6.904   1.627  0.00  0.00    +0.000 A 
ATOM     15  C   UNL     1      -1.261  -6.120   2.765  0.00  0.00    +0.001 A 
ATOM     16  C   UNL     1      -1.250  -4.745   2.660  0.00  0.00    +0.013 A 
ENDBRANCH   8  11
ENDBRANCH   6   7
BRANCH   6  18
ATOM     17  C   UNL     1       0.702  -0.410   1.293  0.00  0.00    +0.009 C 
ATOM     18  C   UNL     1       0.052  -0.127  -0.063  0.00  0.00    +0.007 C 
ATOM     19  C   UNL     1       0.836  -0.845  -1.164  0.00  0.00    +0.009 C 
ENDBRANCH   6  18
ENDBRANCH   1   6
BRANCH   5  20
ATOM     20  C   UNL     1      -3.775  -1.844  -2.023  0.00  0.00    +0.116 C 
BRANCH  20  21
ATOM     21  C   UNL     1      -5.184  -2.304  -1.751  0.00  0.00    -0.019 C 
ATOM     22  C   UNL     1      -5.998  -2.546  -2.749  0.00  0.00    +0.005 C 
ENDBRANCH  20  21
ENDBRANCH   5  20
BRANCH   4  23
ATOM     23  S   UNL     1      -5.723   1.013  -1.267  0.00  0.00    -0.109 S 
BRANCH  23  24
ATOM     24  C   UNL     1      -5.306   1.347   0.466  0.00  0.00    +0.146 C 
BRANCH  24  25
ATOM     25  C   UNL     1      -6.553   1.735   1.218  0.00  0.00    +0.120 A 
ATOM     26  N   UNL     1      -6.444   2.031   2.539  0.00  0.00    -0.310 N 
ATOM     27  H   UNL     1      -5.576   1.988   2.971  0.00  0.00    +0.170 HD
ATOM     28  C   UNL     1      -7.534   2.385   3.258  0.00  0.00    +0.259 A 
ATOM     29  O   UNL     1      -7.451   2.654   4.442  0.00  0.00    -0.267 OA
ATOM     30  C   UNL     1      -8.824   2.434   2.553  0.00  0.00    +0.065 A 
ATOM     31  C   UNL     1     -10.006   2.786   3.202  0.00  0.00    +0.015 A 
ATOM     32  C   UNL     1     -11.186   2.815   2.492  0.00  0.00    +0.001 A 
ATOM     33  C   UNL     1     -11.207   2.496   1.141  0.00  0.00    +0.002 A 
ATOM     34  C   UNL     1     -10.050   2.145   0.482  0.00  0.00    +0.028 A 
ATOM     35  C   UNL     1      -8.840   2.109   1.179  0.00  0.00    +0.078 A 
ATOM     36  N   UNL     1      -7.676   1.774   0.568  0.00  0.00    -0.233 NA
ENDBRANCH  24  25
ENDBRANCH  23  24
ENDBRANCH   4  23
TORSDOF 9
