REMARK  Name = ZINC12588955
REMARK  7 active torsions:
REMARK  status: ('A' for Active; 'I' for Inactive)
REMARK    1  A    between atoms: C_4  and  O_33
REMARK    2  A    between atoms: C_5  and  N_7
REMARK    3  A    between atoms: N_10  and  C_13
REMARK    4  A    between atoms: C_13  and  C_14
REMARK    5  A    between atoms: N_16  and  C_17
REMARK    6  A    between atoms: C_17  and  C_18
REMARK    7  A    between atoms: C_18  and  C_23
REMARK                            x       y       z     vdW  Elec       q    Type
REMARK                         _______ _______ _______ _____ _____    ______ ____
ROOT
ATOM      1  C   UNL     1       2.833  -7.298  -0.355  0.00  0.00    +0.227 C 
ATOM      2  O   UNL     1       1.823  -6.983  -0.949  0.00  0.00    -0.274 OA
ATOM      3  N   UNL     1       3.695  -8.173  -0.909  0.00  0.00    -0.313 N 
ATOM      4  H   UNL     1       4.503  -8.424  -0.435  0.00  0.00    +0.149 HD
ENDROOT
BRANCH   1   5
ATOM      5  C   UNL     1       3.123  -6.711   1.002  0.00  0.00    +0.180 C 
BRANCH   5   9
ATOM      6  N   UNL     1       0.752  -3.475   2.236  0.00  0.00    -0.325 N 
ATOM      7  C   UNL     1       0.924  -4.580   3.192  0.00  0.00    +0.120 C 
ATOM      8  C   UNL     1       2.163  -5.385   2.787  0.00  0.00    +0.104 C 
ATOM      9  N   UNL     1       2.040  -5.793   1.381  0.00  0.00    -0.291 NA
ATOM     10  C   UNL     1       2.002  -4.627   0.488  0.00  0.00    +0.104 C 
ATOM     11  C   UNL     1       0.750  -3.792   0.799  0.00  0.00    +0.120 C 
BRANCH   6  16
ATOM     12  C   UNL     1      -0.842  -0.364   3.379  0.00  0.00    +0.002 A 
ATOM     13  C   UNL     1       0.263   0.448   3.563  0.00  0.00    +0.004 A 
ATOM     14  C   UNL     1       1.532  -0.038   3.308  0.00  0.00    +0.047 A 
ATOM     15  C   UNL     1       1.700  -1.340   2.867  0.00  0.00    +0.138 A 
ATOM     16  C   UNL     1       0.588  -2.158   2.682  0.00  0.00    +0.072 A 
ATOM     17  C   UNL     1      -0.682  -1.664   2.939  0.00  0.00    +0.027 A 
BRANCH  15  18
ATOM     18  O   UNL     1       2.948  -1.819   2.615  0.00  0.00    -0.505 OA
ATOM     19  H   UNL     1       3.372  -2.233   3.380  0.00  0.00    +0.292 HD
ENDBRANCH  15  18
ENDBRANCH   6  16
ENDBRANCH   5   9
ENDBRANCH   1   5
BRANCH   3  20
ATOM     20  C   UNL     1       3.413  -8.743  -2.229  0.00  0.00    +0.115 C 
BRANCH  20  21
ATOM     21  C   UNL     1       4.473  -9.793  -2.568  0.00  0.00    +0.011 C 
ATOM     22  C   UNL     1       4.494 -10.891  -1.484  0.00  0.00    +0.013 C 
ATOM     23  C   UNL     1       3.591 -12.010  -2.060  0.00  0.00    +0.001 C 
ATOM     24  C   UNL     1       3.938 -11.988  -3.569  0.00  0.00    +0.001 C 
ATOM     25  C   UNL     1       4.119 -10.490  -3.893  0.00  0.00    +0.013 C 
BRANCH  21  26
ATOM     26  C   UNL     1       5.828  -9.143  -2.672  0.00  0.00    -0.036 A 
ATOM     27  C   UNL     1       6.953  -9.921  -2.874  0.00  0.00    +0.008 A 
ATOM     28  C   UNL     1       8.198  -9.329  -2.969  0.00  0.00    +0.050 A 
ATOM     29  C   UNL     1       8.322  -7.951  -2.861  0.00  0.00    +0.162 A 
ATOM     30  C   UNL     1       7.191  -7.169  -2.660  0.00  0.00    +0.162 A 
ATOM     31  C   UNL     1       5.944  -7.770  -2.571  0.00  0.00    +0.053 A 
ATOM     32  O   UNL     1       7.289  -5.815  -2.560  0.00  0.00    -0.485 OA
ATOM     33  C   UNL     1       8.590  -5.283  -2.288  0.00  0.00    +0.270 C 
ATOM     34  C   UNL     1       9.597  -5.976  -3.216  0.00  0.00    +0.270 C 
ATOM     35  O   UNL     1       9.555  -7.383  -2.953  0.00  0.00    -0.485 OA
ENDBRANCH  21  26
ENDBRANCH  20  21
ENDBRANCH   3  20
TORSDOF 7
