REMARK  Name = ZINC13318065
REMARK  11 active torsions:
REMARK  status: ('A' for Active; 'I' for Inactive)
REMARK    1  A    between atoms: C_1  and  C_2
REMARK    2  A    between atoms: C_2  and  C_3
REMARK    3  A    between atoms: C_5  and  C_9
REMARK    4  A    between atoms: C_7  and  C_8
REMARK    5  A    between atoms: N_11  and  N_12
REMARK    6  A    between atoms: C_13  and  C_15
REMARK    7  A    between atoms: C_15  and  O_16
REMARK    8  A    between atoms: O_16  and  C_17
REMARK    9  A    between atoms: C_20  and  S_25
REMARK   10  A    between atoms: C_22  and  C_23
REMARK   11  A    between atoms: S_25  and  N_28
REMARK                            x       y       z     vdW  Elec       q    Type
REMARK                         _______ _______ _______ _____ _____    ______ ____
ROOT
ATOM      1  O   UNL     1       2.365   1.125  -0.015  0.00  0.00    -0.482 OA
ENDROOT
BRANCH   1   2
ATOM      2  C   UNL     1       1.180   1.785   0.000  0.00  0.00    +0.135 A 
ATOM      3  C   UNL     1      -0.013   1.076   0.008  0.00  0.00    +0.048 A 
ATOM      4  C   UNL     1      -1.218   1.749   0.017  0.00  0.00    +0.032 A 
ATOM      5  C   UNL     1      -1.248   3.134   0.031  0.00  0.00    +0.106 A 
ATOM      6  C   UNL     1      -0.073   3.855   0.024  0.00  0.00    +0.047 A 
ATOM      7  C   UNL     1       1.154   3.186   0.008  0.00  0.00    +0.107 A 
BRANCH   7   8
ATOM      8  C   UNL     1       2.414   3.951  -0.000  0.00  0.00    +0.390 C 
ATOM      9  O   UNL     1       3.480   3.366  -0.014  0.00  0.00    -0.240 OA
ATOM     10  O   UNL     1       2.385   5.298   0.007  0.00  0.00    -0.240 OA
ENDBRANCH   7   8
BRANCH   5  11
ATOM     11  S   UNL     1      -2.794   3.978   0.050  0.00  0.00    +0.061 S 
ATOM     12  O   UNL     1      -3.742   3.076   0.605  0.00  0.00    -0.153 OA
ATOM     13  O   UNL     1      -2.549   5.263   0.606  0.00  0.00    -0.153 OA
BRANCH  11  14
ATOM     14  N   UNL     1      -3.239   4.221  -1.526  0.00  0.00    -0.177 NA
ATOM     15  C   UNL     1      -2.902   5.398  -2.340  0.00  0.00    +0.109 C 
ATOM     16  C   UNL     1      -3.547   5.197  -3.727  0.00  0.00    +0.018 C 
ATOM     17  C   UNL     1      -4.689   4.188  -3.434  0.00  0.00    +0.018 C 
ATOM     18  C   UNL     1      -4.044   3.296  -2.345  0.00  0.00    +0.109 C 
ENDBRANCH  11  14
ENDBRANCH   5  11
ENDBRANCH   1   2
BRANCH   1  19
ATOM     19  C   UNL     1       2.312  -0.303  -0.023  0.00  0.00    +0.326 C 
BRANCH  19  21
ATOM     20  N   UNL     1       3.910  -2.191  -0.049  0.00  0.00    -0.231 N 
ATOM     21  C   UNL     1       3.713  -0.858  -0.039  0.00  0.00    +0.267 C 
ATOM     22  O   UNL     1       4.663  -0.104  -0.044  0.00  0.00    -0.271 OA
ATOM     23  H   UNL     1       3.150  -2.793  -0.045  0.00  0.00    +0.173 HD
BRANCH  20  26
ATOM     24  C   UNL     1       5.410  -4.039  -0.074  0.00  0.00    +0.267 C 
ATOM     25  O   UNL     1       4.457  -4.795  -0.069  0.00  0.00    -0.268 OA
ATOM     26  N   UNL     1       5.213  -2.706  -0.065  0.00  0.00    -0.230 N 
ATOM     27  H   UNL     1       5.973  -2.103  -0.069  0.00  0.00    +0.173 HD
BRANCH  24  30
ATOM     28  C   UNL     1       8.543  -6.129  -0.117  0.00  0.00    -0.037 A 
ATOM     29  C   UNL     1       7.190  -5.900  -0.102  0.00  0.00    +0.024 A 
ATOM     30  C   UNL     1       6.773  -4.578  -0.090  0.00  0.00    +0.076 A 
ATOM     31  S   UNL     1       8.328  -3.704  -0.108  0.00  0.00    -0.089 S 
ATOM     32  C   UNL     1       9.395  -5.071  -0.120  0.00  0.00    -0.009 A 
ATOM     33  C   UNL     1      10.902  -5.082  -0.137  0.00  0.00    +0.052 C 
BRANCH  28  35
ATOM     34  C   UNL     1       9.392  -7.979   1.300  0.00  0.00    +0.009 C 
ATOM     35  C   UNL     1       9.078  -7.538  -0.131  0.00  0.00    +0.032 C 
ENDBRANCH  28  35
ENDBRANCH  24  30
ENDBRANCH  20  26
ENDBRANCH  19  21
ENDBRANCH   1  19
TORSDOF 9
