REMARK  Name = ZINC59122194
REMARK  11 active torsions:
REMARK  status: ('A' for Active; 'I' for Inactive)
REMARK    1  A    between atoms: C_1  and  C_2
REMARK    2  A    between atoms: C_2  and  C_4
REMARK    3  A    between atoms: C_4  and  S_16
REMARK    4  A    between atoms: N_5  and  N_6
REMARK    5  A    between atoms: N_6  and  C_7
REMARK    6  A    between atoms: C_12  and  N_13
REMARK    7  A    between atoms: S_16  and  C_17
REMARK    8  A    between atoms: C_20  and  C_28
REMARK    9  A    between atoms: N_21  and  C_22
REMARK   10  A    between atoms: C_28  and  C_30
REMARK   11  A    between atoms: C_28  and  O_36
REMARK                            x       y       z     vdW  Elec       q    Type
REMARK                         _______ _______ _______ _____ _____    ______ ____
ROOT
ATOM      1  C   UNL     1      -0.010  -2.559  -3.089  0.00  0.00    +0.202 A 
ATOM      2  N   UNL     1       0.057  -1.637  -4.049  0.00  0.00    -0.122 NA
ATOM      3  N   UNL     1       0.093  -2.220  -5.195  0.00  0.00    -0.130 NA
ATOM      4  C   UNL     1       0.052  -3.532  -5.036  0.00  0.00    +0.172 A 
ATOM      5  N   UNL     1      -0.008  -3.786  -3.713  0.00  0.00    -0.272 N 
ENDROOT
BRANCH   5   6
ATOM      6  C   UNL     1      -0.061  -5.044  -3.099  0.00  0.00    +0.050 A 
ATOM      7  C   UNL     1       1.019  -5.912  -3.197  0.00  0.00    +0.026 A 
ATOM      8  C   UNL     1       0.964  -7.151  -2.590  0.00  0.00    +0.002 A 
ATOM      9  C   UNL     1      -0.165  -7.528  -1.885  0.00  0.00    +0.000 A 
ATOM     10  C   UNL     1      -1.242  -6.666  -1.786  0.00  0.00    +0.002 A 
ATOM     11  C   UNL     1      -1.190  -5.423  -2.385  0.00  0.00    +0.026 A 
ENDBRANCH   5   6
BRANCH   1  12
ATOM     12  S   UNL     1      -0.075  -2.281  -1.454  0.00  0.00    -0.025 S 
BRANCH  12  13
ATOM     13  C   UNL     1      -0.046  -0.626  -1.326  0.00  0.00    +0.164 C 
ATOM     14  N   UNL     1       0.017   0.128  -2.428  0.00  0.00    -0.172 NA
BRANCH  13  16
ATOM     15  C   UNL     1       1.133   0.005   0.882  0.00  0.00    +0.094 C 
ATOM     16  C   UNL     1      -0.091   0.011   0.002  0.00  0.00    +0.187 C 
ATOM     17  O   UNL     1      -1.111   0.541   0.386  0.00  0.00    -0.290 OA
ENDBRANCH  13  16
BRANCH  14  18
ATOM     18  N   UNL     1       0.138   1.408  -2.327  0.00  0.00    -0.234 N 
ATOM     19  H   UNL     1       0.111   1.831  -1.454  0.00  0.00    +0.174 HD
BRANCH  18  20
ATOM     20  C   UNL     1       0.307   2.179  -3.463  0.00  0.00    +0.078 A 
ATOM     21  C   UNL     1       0.224   1.591  -4.726  0.00  0.00    +0.027 A 
ATOM     22  C   UNL     1       0.392   2.364  -5.855  0.00  0.00    +0.002 A 
ATOM     23  C   UNL     1       0.643   3.721  -5.738  0.00  0.00    +0.002 A 
ATOM     24  C   UNL     1       0.727   4.309  -4.487  0.00  0.00    +0.034 A 
ATOM     25  C   UNL     1       0.554   3.547  -3.351  0.00  0.00    +0.149 A 
BRANCH  25  26
ATOM     26  N   UNL     1       0.638   4.178  -2.014  0.00  0.00    +0.058 N 
ATOM     27  O   UNL     1       0.752   5.486  -1.910  0.00  0.00    -0.126 OA
ATOM     28  O   UNL     1       0.598   3.432  -0.930  0.00  0.00    -0.126 OA
ENDBRANCH  25  26
ENDBRANCH  18  20
ENDBRANCH  14  18
ENDBRANCH  12  13
ENDBRANCH   1  12
BRANCH   4  29
ATOM     29  C   UNL     1       0.075  -4.561  -6.137  0.00  0.00    +0.212 C 
BRANCH  29  30
ATOM     30  C   UNL     1       1.472  -4.670  -6.693  0.00  0.00    -0.012 A 
ATOM     31  C   UNL     1       1.930  -3.732  -7.599  0.00  0.00    +0.006 A 
ATOM     32  C   UNL     1       3.211  -3.833  -8.109  0.00  0.00    +0.000 A 
ATOM     33  C   UNL     1       4.033  -4.871  -7.713  0.00  0.00    +0.000 A 
ATOM     34  C   UNL     1       3.575  -5.808  -6.806  0.00  0.00    +0.000 A 
ATOM     35  C   UNL     1       2.296  -5.705  -6.293  0.00  0.00    +0.006 A 
ENDBRANCH  29  30
BRANCH  29  36
ATOM     36  O   UNL     1      -0.822  -4.165  -7.177  0.00  0.00    -0.379 OA
ATOM     37  H   UNL     1      -0.607  -3.312  -7.579  0.00  0.00    +0.211 HD
ENDBRANCH  29  36
ENDBRANCH   4  29
TORSDOF 10
