REMARK  Name = ZINC06887834
REMARK  6 active torsions:
REMARK  status: ('A' for Active; 'I' for Inactive)
REMARK    1  A    between atoms: C_1  and  C_2
REMARK    2  A    between atoms: N_5  and  C_8
REMARK    3  A    between atoms: C_11  and  N_14
REMARK    4  A    between atoms: N_14  and  S_15
REMARK    5  A    between atoms: S_15  and  C_18
REMARK    6  A    between atoms: C_20  and  C_23
REMARK                            x       y       z     vdW  Elec       q    Type
REMARK                         _______ _______ _______ _____ _____    ______ ____
ROOT
ATOM      1  N   UNL     1      -0.012   1.428  -0.006  0.00  0.00    -0.216 N 
ATOM      2  H   UNL     1      -0.537   2.026  -0.561  0.00  0.00    +0.174 HD
ENDROOT
BRANCH   1   6
ATOM      3  C   UNL     1       0.107  -2.650  -0.868  0.00  0.00    +0.030 A 
ATOM      4  C   UNL     1      -0.637  -2.190   0.210  0.00  0.00    +0.025 A 
ATOM      5  C   UNL     1      -0.677  -0.839   0.495  0.00  0.00    +0.026 A 
ATOM      6  C   UNL     1       0.028   0.058  -0.296  0.00  0.00    +0.048 A 
ATOM      7  C   UNL     1       0.767  -0.401  -1.378  0.00  0.00    +0.026 A 
ATOM      8  C   UNL     1       0.811  -1.752  -1.660  0.00  0.00    +0.025 A 
BRANCH   3  13
ATOM      9  C   UNL     1       1.206  -8.100  -1.863  0.00  0.00    +0.007 C 
ATOM     10  C   UNL     1       1.357  -6.617  -1.519  0.00  0.00    -0.011 C 
ATOM     11  C   UNL     1       0.892  -5.766  -2.704  0.00  0.00    +0.022 C 
ATOM     12  C   UNL     1       0.988  -4.285  -2.332  0.00  0.00    +0.105 C 
ATOM     13  N   UNL     1       0.147  -4.019  -1.157  0.00  0.00    -0.330 N 
ATOM     14  C   UNL     1       0.603  -4.790   0.007  0.00  0.00    +0.105 C 
ATOM     15  C   UNL     1       0.497  -6.286  -0.296  0.00  0.00    +0.022 C 
ENDBRANCH   3  13
ENDBRANCH   1   6
BRANCH   1  16
ATOM     16  S   UNL     1       0.843   2.027   1.279  0.00  0.00    +0.073 S 
ATOM     17  O   UNL     1       0.644   3.434   1.278  0.00  0.00    -0.150 OA
ATOM     18  O   UNL     1       0.520   1.213   2.397  0.00  0.00    -0.150 OA
BRANCH  16  19
ATOM     19  C   UNL     1       2.551   1.760   0.938  0.00  0.00    +0.116 A 
ATOM     20  C   UNL     1       3.148   0.571   1.273  0.00  0.00    +0.049 A 
ATOM     21  C   UNL     1       4.494   0.432   0.970  0.00  0.00    +0.076 A 
ATOM     22  S   UNL     1       4.866   2.011   0.228  0.00  0.00    -0.090 S 
ATOM     23  C   UNL     1       3.294   2.732   0.346  0.00  0.00    +0.074 A 
BRANCH  21  24
ATOM     24  C   UNL     1       5.381  -0.711   1.204  0.00  0.00    +0.248 C 
ATOM     25  O   UNL     1       4.948  -1.719   1.730  0.00  0.00    -0.270 OA
ATOM     26  N   UNL     1       6.676  -0.645   0.836  0.00  0.00    -0.325 N 
ATOM     27  H   UNL     1       7.021   0.158   0.417  0.00  0.00    +0.145 HD
ATOM     28  H   UNL     1       7.263  -1.402   0.991  0.00  0.00    +0.145 HD
ENDBRANCH  21  24
ENDBRANCH  16  19
ENDBRANCH   1  16
TORSDOF 5
