REMARK  Name = ZINC16934663
REMARK  9 active torsions:
REMARK  status: ('A' for Active; 'I' for Inactive)
REMARK    1  A    between atoms: C_1  and  O_2
REMARK    2  A    between atoms: O_2  and  C_3
REMARK    3  A    between atoms: C_6  and  C_11
REMARK    4  A    between atoms: C_7  and  O_9
REMARK    5  A    between atoms: O_9  and  C_10
REMARK    6  A    between atoms: N_15  and  C_26
REMARK    7  A    between atoms: N_17  and  C_18
REMARK    8  A    between atoms: C_22  and  O_24
REMARK    9  A    between atoms: C_26  and  C_27
REMARK                            x       y       z     vdW  Elec       q    Type
REMARK                         _______ _______ _______ _____ _____    ______ ____
ROOT
ATOM      1  C   UNL     1      -1.110   7.091   1.842  0.00  0.00    +0.032 C 
ATOM      2  C   UNL     1      -0.502   7.928   0.961  0.00  0.00    +0.078 C 
ATOM      3  C   UNL     1      -0.394   9.397   0.989  0.00  0.00    +0.259 C 
ATOM      4  O   UNL     1      -0.886  10.054   1.889  0.00  0.00    -0.269 OA
ATOM      5  N   UNL     1       0.261   9.970  -0.006  0.00  0.00    -0.242 N 
ATOM      6  C   UNL     1       0.811   9.210  -1.015  0.00  0.00    +0.169 C 
ATOM      7  N   UNL     1       1.487   9.614  -2.068  0.00  0.00    -0.225 NA
ATOM      8  S   UNL     1       0.388   7.542  -0.540  0.00  0.00    -0.049 S 
ENDROOT
BRANCH   1  12
ATOM      9  C   UNL     1      -1.470   2.961   0.942  0.00  0.00    +0.124 A 
ATOM     10  C   UNL     1      -1.209   3.875  -0.074  0.00  0.00    +0.046 A 
ATOM     11  C   UNL     1      -1.092   5.216   0.212  0.00  0.00    +0.015 A 
ATOM     12  C   UNL     1      -1.235   5.664   1.531  0.00  0.00    +0.018 A 
ATOM     13  C   UNL     1      -1.499   4.738   2.556  0.00  0.00    +0.131 A 
ATOM     14  C   UNL     1      -1.619   3.394   2.252  0.00  0.00    +0.091 A 
BRANCH   9  16
ATOM     15  C   UNL     1      -1.425   1.263  -0.719  0.00  0.00    +0.277 C 
ATOM     16  O   UNL     1      -1.584   1.640   0.650  0.00  0.00    -0.495 OA
ENDBRANCH   9  16
BRANCH  13  17
ATOM     17  O   UNL     1      -1.639   5.162   3.837  0.00  0.00    -0.494 OA
ATOM     18  C   UNL     1      -1.906   4.165   4.825  0.00  0.00    +0.277 C 
ENDBRANCH  13  17
ENDBRANCH   1  12
BRANCH   7  19
ATOM     19  C   UNL     1       1.959   8.700  -2.970  0.00  0.00    +0.070 A 
ATOM     20  C   UNL     1       2.596   7.539  -2.523  0.00  0.00    +0.028 A 
ATOM     21  C   UNL     1       3.066   6.617  -3.436  0.00  0.00    +0.006 A 
ATOM     22  C   UNL     1       2.918   6.842  -4.792  0.00  0.00    +0.045 A 
ATOM     23  C   UNL     1       2.291   7.996  -5.245  0.00  0.00    +0.119 A 
ATOM     24  C   UNL     1       1.811   8.925  -4.339  0.00  0.00    +0.073 A 
BRANCH  23  25
ATOM     25  O   UNL     1       2.149   8.212  -6.580  0.00  0.00    -0.507 OA
ATOM     26  H   UNL     1       2.886   8.691  -6.981  0.00  0.00    +0.292 HD
ENDBRANCH  23  25
ENDBRANCH   7  19
BRANCH   5  27
ATOM     27  C   UNL     1       0.403  11.428  -0.037  0.00  0.00    +0.142 C 
BRANCH  27  28
ATOM     28  C   UNL     1       1.662  11.825   0.690  0.00  0.00    -0.015 C 
ATOM     29  C   UNL     1       2.563  12.561   0.087  0.00  0.00    +0.005 C 
ENDBRANCH  27  28
ENDBRANCH   5  27
TORSDOF 7
