REMARK  Name = ZINC39315360
REMARK  8 active torsions:
REMARK  status: ('A' for Active; 'I' for Inactive)
REMARK    1  A    between atoms: C_4  and  C_7
REMARK    2  A    between atoms: C_10  and  C_36
REMARK    3  A    between atoms: C_11  and  S_13
REMARK    4  A    between atoms: S_13  and  C_14
REMARK    5  A    between atoms: C_14  and  C_15
REMARK    6  A    between atoms: C_17  and  C_29
REMARK    7  A    between atoms: C_19  and  C_27
REMARK    8  A    between atoms: C_20  and  N_26
REMARK                            x       y       z     vdW  Elec       q    Type
REMARK                         _______ _______ _______ _____ _____    ______ ____
ROOT
ATOM      1  C   UNL     1       8.058   3.028  -0.035  0.00  0.00    +0.079 C 
ATOM      2  C   UNL     1       8.457   3.728  -1.069  0.00  0.00    +0.031 C 
ATOM      3  C   UNL     1       8.055   3.758  -2.518  0.00  0.00    +0.098 C 
ATOM      4  C   UNL     1       9.352   3.854  -3.299  0.00  0.00    +0.097 C 
ATOM      5  C   UNL     1      10.534   4.073  -2.686  0.00  0.00    +0.195 C 
ATOM      6  O   UNL     1      10.741   4.205  -1.363  0.00  0.00    -0.448 OA
ATOM      7  C   UNL     1       9.622   4.573  -0.553  0.00  0.00    +0.343 C 
ATOM      8  N   UNL     1       9.757   4.096   0.827  0.00  0.00    -0.138 NA
ATOM      9  N   UNL     1       8.851   3.279   1.038  0.00  0.00    -0.154 NA
ENDROOT
BRANCH   3  10
ATOM     10  C   UNL     1       7.188   4.960  -2.793  0.00  0.00    -0.035 A 
ATOM     11  C   UNL     1       7.681   6.232  -2.573  0.00  0.00    +0.007 A 
ATOM     12  C   UNL     1       6.887   7.335  -2.826  0.00  0.00    +0.038 A 
ATOM     13  C   UNL     1       5.597   7.165  -3.299  0.00  0.00    +0.123 A 
ATOM     14  C   UNL     1       5.104   5.890  -3.519  0.00  0.00    +0.038 A 
ATOM     15  C   UNL     1       5.902   4.789  -3.271  0.00  0.00    +0.007 A 
ATOM     16  F   UNL     1       4.820   8.242  -3.546  0.00  0.00    -0.205 F 
ENDBRANCH   3  10
BRANCH   5  17
ATOM     17  N   UNL     1      11.638   4.172  -3.495  0.00  0.00    -0.329 N 
ATOM     18  H   UNL     1      11.544   4.084  -4.456  0.00  0.00    +0.145 HD
ATOM     19  H   UNL     1      12.512   4.329  -3.105  0.00  0.00    +0.145 HD
ENDBRANCH   5  17
BRANCH   4  20
ATOM     20  C   UNL     1       9.322   3.708  -4.723  0.00  0.00    +0.101 C 
ATOM     21  N   UNL     1       9.297   3.592  -5.853  0.00  0.00    -0.191 NA
ENDBRANCH   4  20
BRANCH   1  22
ATOM     22  C   UNL     1       6.883   2.084  -0.035  0.00  0.00    +0.133 C 
BRANCH  22  23
ATOM     23  S   UNL     1       7.482   0.372  -0.056  0.00  0.00    -0.098 S 
BRANCH  23  28
ATOM     24  C   UNL     1       3.698  -0.688  -0.037  0.00  0.00    +0.072 A 
ATOM     25  C   UNL     1       3.708  -2.082  -0.051  0.00  0.00    +0.030 A 
ATOM     26  C   UNL     1       4.915  -2.752  -0.066  0.00  0.00    +0.023 A 
ATOM     27  C   UNL     1       6.096  -1.999  -0.068  0.00  0.00    +0.084 A 
ATOM     28  C   UNL     1       6.010  -0.595  -0.054  0.00  0.00    +0.115 A 
ATOM     29  N   UNL     1       4.830   0.004  -0.045  0.00  0.00    -0.239 NA
BRANCH  24  33
ATOM     30  C   UNL     1      -0.017   1.379   0.010  0.00  0.00    +0.000 A 
ATOM     31  C   UNL     1       1.169   2.092   0.002  0.00  0.00    +0.001 A 
ATOM     32  C   UNL     1       2.377   1.427  -0.013  0.00  0.00    +0.010 A 
ATOM     33  C   UNL     1       2.403   0.033  -0.021  0.00  0.00    +0.000 A 
ATOM     34  C   UNL     1       1.205  -0.680  -0.013  0.00  0.00    +0.010 A 
ATOM     35  C   UNL     1       0.002  -0.004   0.002  0.00  0.00    +0.001 A 
ENDBRANCH  24  33
BRANCH  27  36
ATOM     36  C   UNL     1       7.373  -2.649  -0.084  0.00  0.00    +0.102 C 
ATOM     37  N   UNL     1       8.385  -3.164  -0.096  0.00  0.00    -0.191 NA
ENDBRANCH  27  36
ENDBRANCH  23  28
ENDBRANCH  22  23
ENDBRANCH   1  22
TORSDOF 8
