REMARK  Name = ZINC38798903
REMARK  6 active torsions:
REMARK  status: ('A' for Active; 'I' for Inactive)
REMARK    1  A    between atoms: C_2  and  C_3
REMARK    2  A    between atoms: C_3  and  N_4
REMARK    3  A    between atoms: C_5  and  C_10
REMARK    4  A    between atoms: C_10  and  C_11
REMARK    5  A    between atoms: C_13  and  N_17
REMARK    6  A    between atoms: C_18  and  C_20
REMARK                            x       y       z     vdW  Elec       q    Type
REMARK                         _______ _______ _______ _____ _____    ______ ____
ROOT
ATOM      1  N   UNL     1      -2.327   1.209   3.516  0.00  0.00    -0.285 N 
ATOM      2  C   UNL     1      -3.596   1.543   3.825  0.00  0.00    +0.218 C 
ATOM      3  O   UNL     1      -3.900   1.766   4.977  0.00  0.00    -0.275 OA
ATOM      4  H   UNL     1      -2.084   1.030   2.594  0.00  0.00    +0.152 HD
ENDROOT
BRANCH   2   5
ATOM      5  C   UNL     1      -4.636   1.639   2.739  0.00  0.00    +0.078 C 
ATOM      6  C   UNL     1      -4.211   2.698   1.718  0.00  0.00    +0.031 C 
ATOM      7  C   UNL     1      -5.253   2.768   0.598  0.00  0.00    +0.107 C 
ATOM      8  N   UNL     1      -6.575   3.002   1.195  0.00  0.00    -0.314 N 
ATOM      9  C   UNL     1      -7.043   2.095   2.252  0.00  0.00    +0.107 C 
ATOM     10  C   UNL     1      -5.981   2.032   3.354  0.00  0.00    +0.031 C 
ATOM     11  C   UNL     1      -7.368   4.062   0.769  0.00  0.00    +0.144 A 
ATOM     12  C   UNL     1      -6.956   4.843  -0.326  0.00  0.00    +0.049 A 
ATOM     13  C   UNL     1      -7.724   5.881  -0.751  0.00  0.00    +0.055 A 
ATOM     14  C   UNL     1      -8.930   6.160  -0.082  0.00  0.00    +0.200 A 
ATOM     15  N   UNL     1      -9.880   7.072  -0.237  0.00  0.00    -0.107 NA
ATOM     16  N   UNL     1     -10.800   6.908   0.646  0.00  0.00    -0.021 NA
ATOM     17  N   UNL     1     -10.524   5.910   1.416  0.00  0.00    -0.021 NA
ATOM     18  N   UNL     1      -9.302   5.382   0.980  0.00  0.00    -0.108 N 
ATOM     19  N   UNL     1      -8.497   4.320   1.391  0.00  0.00    -0.131 NA
ENDBRANCH   2   5
BRANCH   1  22
ATOM     20  C   UNL     1       1.032   0.881   4.301  0.00  0.00    +0.034 C 
ATOM     21  N   UNL     1      -0.112   0.405   4.096  0.00  0.00    -0.259 NA
ATOM     22  C   UNL     1      -1.316   1.115   4.572  0.00  0.00    +0.251 C 
ATOM     23  S   UNL     1      -0.603   2.773   4.963  0.00  0.00    -0.110 S 
ATOM     24  C   UNL     1       1.152   2.200   5.052  0.00  0.00    +0.123 C 
BRANCH  20  25
ATOM     25  C   UNL     1       2.263   0.157   3.818  0.00  0.00    +0.127 C 
BRANCH  25  27
ATOM     26  N   UNL     1       1.586  -1.244   1.779  0.00  0.00    -0.301 N 
ATOM     27  C   UNL     1       1.857  -1.110   3.112  0.00  0.00    +0.140 A 
ATOM     28  N   UNL     1       1.698  -2.282   3.660  0.00  0.00    -0.133 NA
ATOM     29  N   UNL     1       1.348  -3.141   2.770  0.00  0.00    -0.122 NA
ATOM     30  C   UNL     1       1.259  -2.557   1.597  0.00  0.00    +0.203 A 
ATOM     31  S   UNL     1       0.806  -3.324   0.077  0.00  0.00    -0.009 SA
BRANCH  26  32
ATOM     32  C   UNL     1       1.631  -0.195   0.757  0.00  0.00    +0.152 C 
BRANCH  32  34
ATOM     33  C   UNL     1       0.180   1.768   0.796  0.00  0.00    +0.005 C 
ATOM     34  C   UNL     1       0.282   0.469   0.659  0.00  0.00    -0.013 C 
ENDBRANCH  32  34
ENDBRANCH  26  32
ENDBRANCH  25  27
ENDBRANCH  20  25
ENDBRANCH   1  22
TORSDOF 6
