REMARK  Name = ZINC04580779
REMARK  12 active torsions:
REMARK  status: ('A' for Active; 'I' for Inactive)
REMARK    1  A    between atoms: C_1  and  C_2
REMARK    2  A    between atoms: C_3  and  C_24
REMARK    3  A    between atoms: C_4  and  C_23
REMARK    4  A    between atoms: C_5  and  C_10
REMARK    5  A    between atoms: C_6  and  C_9
REMARK    6  A    between atoms: C_7  and  C_8
REMARK    7  A    between atoms: C_10  and  O_12
REMARK    8  A    between atoms: O_12  and  C_13
REMARK    9  A    between atoms: C_13  and  C_14
REMARK   10  A    between atoms: N_19  and  C_20
REMARK   11  A    between atoms: C_20  and  C_21
REMARK   12  A    between atoms: C_20  and  C_22
REMARK                            x       y       z     vdW  Elec       q    Type
REMARK                         _______ _______ _______ _____ _____    ______ ____
ROOT
ATOM      1  C   UNL     1       0.002  -0.004   0.002  0.00  0.00    +0.340 C 
ATOM      2  O   UNL     1       0.020  -0.617   1.051  0.00  0.00    -0.245 OA
ENDROOT
BRANCH   1   7
ATOM      3  C   UNL     1      -0.076   5.749   0.033  0.00  0.00    +0.044 C 
ATOM      4  C   UNL     1      -0.056   4.242   0.025  0.00  0.00    -0.044 A 
ATOM      5  C   UNL     1       1.154   3.570   0.010  0.00  0.00    -0.044 A 
ATOM      6  C   UNL     1       1.180   2.191   0.003  0.00  0.00    -0.033 A 
ATOM      7  C   UNL     1      -0.018   1.473   0.010  0.00  0.00    +0.065 A 
ATOM      8  C   UNL     1      -1.235   2.158   0.020  0.00  0.00    -0.033 A 
ATOM      9  C   UNL     1      -1.246   3.537   0.033  0.00  0.00    -0.044 A 
ATOM     10  C   UNL     1      -2.558   4.278   0.049  0.00  0.00    +0.044 C 
ATOM     11  C   UNL     1      -2.533   1.392   0.021  0.00  0.00    +0.045 C 
ATOM     12  C   UNL     1       2.498   1.460  -0.013  0.00  0.00    +0.045 C 
ATOM     13  C   UNL     1       2.445   4.346   0.002  0.00  0.00    +0.044 C 
ENDBRANCH   1   7
BRANCH   1  14
ATOM     14  O   UNL     1       0.000  -0.671  -1.168  0.00  0.00    -0.452 OA
BRANCH  14  15
ATOM     15  C   UNL     1       0.021  -2.122  -1.100  0.00  0.00    +0.328 C 
BRANCH  15  16
ATOM     16  C   UNL     1       0.015  -2.690  -2.496  0.00  0.00    +0.258 C 
ATOM     17  O   UNL     1      -0.004  -1.946  -3.453  0.00  0.00    -0.272 OA
ATOM     18  N   UNL     1       0.031  -4.025  -2.680  0.00  0.00    -0.237 N 
ATOM     19  C   UNL     1       0.026  -4.534  -3.928  0.00  0.00    +0.306 C 
ATOM     20  O   UNL     1       0.007  -3.788  -4.888  0.00  0.00    -0.252 OA
ATOM     21  N   UNL     1       0.043  -5.869  -4.112  0.00  0.00    -0.297 N 
ATOM     22  H   UNL     1       0.047  -4.620  -1.914  0.00  0.00    +0.159 HD
ATOM     23  H   UNL     1       0.058  -6.463  -3.346  0.00  0.00    +0.151 HD
BRANCH  21  24
ATOM     24  C   UNL     1       0.038  -6.421  -5.469  0.00  0.00    +0.068 C 
ATOM     25  C   UNL     1       0.666  -7.816  -5.454  0.00  0.00    +0.027 C 
ATOM     26  C   UNL     1      -1.403  -6.517  -5.975  0.00  0.00    +0.027 C 
ENDBRANCH  21  24
ENDBRANCH  15  16
ENDBRANCH  14  15
ENDBRANCH   1  14
TORSDOF 5
