REMARK  Name = ZINC35695913
REMARK  11 active torsions:
REMARK  status: ('A' for Active; 'I' for Inactive)
REMARK    1  A    between atoms: C_1  and  C_2
REMARK    2  A    between atoms: C_3  and  C_27
REMARK    3  A    between atoms: C_4  and  C_22
REMARK    4  A    between atoms: C_7  and  C_12
REMARK    5  A    between atoms: C_13  and  N_15
REMARK    6  A    between atoms: N_18  and  C_21
REMARK    7  A    between atoms: C_27  and  O_29
REMARK    8  A    between atoms: O_29  and  C_30
REMARK    9  A    between atoms: C_30  and  C_31
REMARK   10  A    between atoms: C_31  and  O_32
REMARK   11  A    between atoms: O_32  and  C_33
REMARK                            x       y       z     vdW  Elec       q    Type
REMARK                         _______ _______ _______ _____ _____    ______ ____
ROOT
ATOM      1  C   UNL     1      -0.041   1.575   0.794  0.00  0.00    +0.066 C 
ATOM      2  C   UNL     1      -0.059   0.081   0.602  0.00  0.00    +0.053 C 
ATOM      3  C   UNL     1      -1.264  -0.595   0.586  0.00  0.00    +0.083 C 
ATOM      4  C   UNL     1      -1.230  -2.094   0.389  0.00  0.00    +0.156 C 
ATOM      5  N   UNL     1       0.107  -2.724   0.227  0.00  0.00    -0.267 N 
ATOM      6  C   UNL     1       0.376  -4.065   0.037  0.00  0.00    +0.048 C 
ATOM      7  C   UNL     1       1.670  -4.434  -0.089  0.00  0.00    +0.072 C 
ATOM      8  S   UNL     1       2.514  -2.872   0.064  0.00  0.00    -0.060 S 
ATOM      9  C   UNL     1       1.179  -1.877   0.273  0.00  0.00    +0.166 C 
ATOM     10  N   UNL     1       1.079  -0.575   0.443  0.00  0.00    -0.230 NA
ENDROOT
BRANCH   4  11
ATOM     11  C   UNL     1      -2.047  -2.420  -0.835  0.00  0.00    +0.015 A 
ATOM     12  C   UNL     1      -3.278  -2.981  -0.914  0.00  0.00    +0.013 A 
ATOM     13  C   UNL     1      -3.841  -3.189  -2.159  0.00  0.00    +0.008 A 
ATOM     14  C   UNL     1      -3.144  -2.826  -3.264  0.00  0.00    +0.045 A 
ATOM     15  S   UNL     1      -1.647  -2.161  -2.555  0.00  0.00    -0.099 S 
ENDBRANCH   4  11
BRANCH   6  16
ATOM     16  C   UNL     1      -0.707  -5.057  -0.027  0.00  0.00    +0.091 C 
ATOM     17  C   UNL     1      -0.415  -6.372  -0.056  0.00  0.00    +0.241 C 
ATOM     18  O   UNL     1       0.866  -6.785   0.100  0.00  0.00    -0.271 OA
BRANCH  17  19
ATOM     19  N   UNL     1      -1.425  -7.301  -0.245  0.00  0.00    -0.302 N 
ATOM     20  C   UNL     1      -2.626  -6.964  -1.025  0.00  0.00    +0.089 C 
ATOM     21  C   UNL     1      -2.851  -8.062  -2.069  0.00  0.00    -0.060 C 
ATOM     22  N   UNL     1      -2.909  -9.368  -1.400  0.00  0.00    +0.380 N 
ATOM     23  C   UNL     1      -1.612  -9.671  -0.781  0.00  0.00    -0.060 C 
ATOM     24  C   UNL     1      -1.323  -8.654   0.322  0.00  0.00    +0.089 C 
ATOM     25  C   UNL     1      -3.234 -10.408  -2.386  0.00  0.00    -0.096 C 
ATOM     26  H   UNL     1      -3.624  -9.348  -0.688  0.00  0.00    -0.082 HD
ENDBRANCH  17  19
ENDBRANCH   6  16
BRANCH   3  27
ATOM     27  C   UNL     1      -2.477   0.086   0.747  0.00  0.00    +0.339 C 
ATOM     28  O   UNL     1      -2.481   1.295   0.904  0.00  0.00    -0.245 OA
BRANCH  27  29
ATOM     29  O   UNL     1      -3.643  -0.597   0.728  0.00  0.00    -0.459 OA
BRANCH  29  30
ATOM     30  C   UNL     1      -4.842   0.162   0.898  0.00  0.00    +0.260 C 
BRANCH  30  31
ATOM     31  C   UNL     1      -6.050  -0.776   0.848  0.00  0.00    +0.200 C 
BRANCH  31  32
ATOM     32  O   UNL     1      -6.006  -1.669   1.963  0.00  0.00    -0.380 OA
ATOM     33  C   UNL     1      -7.095  -2.593   2.011  0.00  0.00    +0.194 C 
ENDBRANCH  31  32
ENDBRANCH  30  31
ENDBRANCH  29  30
ENDBRANCH  27  29
ENDBRANCH   3  27
TORSDOF 8
