REMARK  Name = ZINC35703188
REMARK  19 active torsions:
REMARK  status: ('A' for Active; 'I' for Inactive)
REMARK    1  A    between atoms: C_1  and  C_2
REMARK    2  A    between atoms: C_2  and  C_3
REMARK    3  A    between atoms: C_3  and  C_4
REMARK    4  A    between atoms: C_4  and  C_5
REMARK    5  A    between atoms: C_8  and  C_11
REMARK    6  A    between atoms: C_11  and  O_13
REMARK    7  A    between atoms: O_13  and  C_14
REMARK    8  A    between atoms: C_17  and  C_22
REMARK    9  A    between atoms: C_19  and  O_20
REMARK   10  A    between atoms: O_20  and  C_21
REMARK   11  A    between atoms: C_23  and  N_31
REMARK   12  A    between atoms: N_31  and  C_32
REMARK   13  A    between atoms: C_32  and  C_33
REMARK   14  A    between atoms: C_32  and  C_34
REMARK   15  A    between atoms: C_32  and  C_35
REMARK   16  A    between atoms: C_35  and  C_36
REMARK   17  A    between atoms: C_36  and  C_37
REMARK   18  A    between atoms: C_36  and  C_38
REMARK   19  A    between atoms: C_36  and  C_39
REMARK                            x       y       z     vdW  Elec       q    Type
REMARK                         _______ _______ _______ _____ _____    ______ ____
ROOT
ATOM      1  C   UNL     1       6.060  -9.678  13.948  0.00  0.00    +0.173 A 
ATOM      2  C   UNL     1       6.251  -8.493  13.254  0.00  0.00    +0.051 A 
ATOM      3  C   UNL     1       7.420  -8.281  12.553  0.00  0.00    +0.014 A 
ATOM      4  C   UNL     1       8.414  -9.260  12.541  0.00  0.00    +0.005 A 
ATOM      5  C   UNL     1       8.223 -10.452  13.239  0.00  0.00    +0.059 A 
ATOM      6  C   UNL     1       7.051 -10.657  13.945  0.00  0.00    +0.163 A 
ENDROOT
BRANCH   4   7
ATOM      7  C   UNL     1       9.669  -9.034  11.788  0.00  0.00    +0.087 A 
ATOM      8  C   UNL     1       9.768  -8.519  10.512  0.00  0.00    +0.129 A 
ATOM      9  N   UNL     1      11.099  -8.479  10.203  0.00  0.00    -0.289 N 
ATOM     10  C   UNL     1      11.774  -8.065   9.086  0.00  0.00    +0.094 A 
ATOM     11  C   UNL     1      13.119  -8.131   9.034  0.00  0.00    +0.018 A 
ATOM     12  C   UNL     1      13.850  -8.626  10.129  0.00  0.00    +0.005 A 
ATOM     13  C   UNL     1      13.195  -9.040  11.246  0.00  0.00    +0.045 A 
ATOM     14  C   UNL     1      11.787  -8.968  11.290  0.00  0.00    +0.117 A 
ATOM     15  N   UNL     1      10.914  -9.289  12.231  0.00  0.00    -0.338 N 
ATOM     16  H   UNL     1      11.136  -9.654  13.102  0.00  0.00    +0.167 HD
BRANCH   8  17
ATOM     17  N   UNL     1       8.711  -8.117   9.694  0.00  0.00    -0.323 N 
ATOM     18  H   UNL     1       7.795  -8.272   9.973  0.00  0.00    +0.148 HD
BRANCH  17  19
ATOM     19  C   UNL     1       8.985  -7.460   8.414  0.00  0.00    +0.028 C 
ATOM     20  C   UNL     1       9.913  -6.264   8.642  0.00  0.00    +0.031 C 
ATOM     21  C   UNL     1       9.658  -8.453   7.464  0.00  0.00    +0.031 C 
BRANCH  19  22
ATOM     22  C   UNL     1       7.671  -6.975   7.797  0.00  0.00    +0.031 C 
BRANCH  22  23
ATOM     23  C   UNL     1       6.564  -7.989   8.094  0.00  0.00    -0.036 C 
ATOM     24  C   UNL     1       6.096  -7.823   9.541  0.00  0.00    +0.010 C 
ATOM     25  C   UNL     1       5.387  -7.750   7.147  0.00  0.00    +0.010 C 
ATOM     26  C   UNL     1       7.103  -9.406   7.891  0.00  0.00    +0.010 C 
ENDBRANCH  22  23
ENDBRANCH  19  22
ENDBRANCH  17  19
ENDBRANCH   8  17
ENDBRANCH   4   7
BRANCH   6  27
ATOM     27  O   UNL     1       6.864 -11.816  14.631  0.00  0.00    -0.491 OA
ATOM     28  C   UNL     1       7.922 -12.776  14.583  0.00  0.00    +0.277 C 
ENDBRANCH   6  27
BRANCH   1  29
ATOM     29  O   UNL     1       4.906  -9.883  14.639  0.00  0.00    -0.419 OA
BRANCH  29  30
ATOM     30  C   UNL     1       4.888  -9.566  15.948  0.00  0.00    +0.345 C 
ATOM     31  O   UNL     1       5.907  -9.200  16.498  0.00  0.00    -0.245 OA
BRANCH  30  35
ATOM     32  C   UNL     1       1.268  -9.847  18.149  0.00  0.00    -0.047 A 
ATOM     33  C   UNL     1       2.427  -9.430  18.780  0.00  0.00    +0.004 A 
ATOM     34  C   UNL     1       3.606  -9.337  18.071  0.00  0.00    +0.015 A 
ATOM     35  C   UNL     1       3.629  -9.664  16.713  0.00  0.00    +0.059 A 
ATOM     36  C   UNL     1       2.455 -10.084  16.084  0.00  0.00    +0.015 A 
ATOM     37  C   UNL     1       1.284 -10.178  16.806  0.00  0.00    +0.004 A 
BRANCH  32  38
ATOM     38  C   UNL     1      -0.017  -9.946  18.931  0.00  0.00    +0.035 C 
BRANCH  38  39
ATOM     39  C   UNL     1      -0.140 -11.345  19.536  0.00  0.00    +0.004 C 
BRANCH  39  41
ATOM     40  C   UNL     1      -1.566 -12.846  20.934  0.00  0.00    +0.004 C 
ATOM     41  C   UNL     1      -1.444 -11.446  20.329  0.00  0.00    -0.003 C 
ENDBRANCH  39  41
ENDBRANCH  38  39
ENDBRANCH  32  38
ENDBRANCH  30  35
ENDBRANCH  29  30
ENDBRANCH   1  29
TORSDOF 12
