REMARK  Name = ZINC44416649
REMARK  8 active torsions:
REMARK  status: ('A' for Active; 'I' for Inactive)
REMARK    1  A    between atoms: C_1  and  C_2
REMARK    2  A    between atoms: C_2  and  C_3
REMARK    3  A    between atoms: C_3  and  C_4
REMARK    4  A    between atoms: C_4  and  C_5
REMARK    5  A    between atoms: C_8  and  N_11
REMARK    6  A    between atoms: C_13  and  C_18
REMARK    7  A    between atoms: C_20  and  C_23
REMARK    8  A    between atoms: C_25  and  C_29
REMARK                            x       y       z     vdW  Elec       q    Type
REMARK                         _______ _______ _______ _____ _____    ______ ____
ROOT
ATOM      1  N   UNL     1       3.507  -3.920   5.829  0.00  0.00    -0.271 N 
ATOM      2  C   UNL     1       2.882  -4.123   7.142  0.00  0.00    +0.125 C 
ATOM      3  C   UNL     1       3.857  -5.027   7.927  0.00  0.00    +0.087 C 
ATOM      4  C   UNL     1       5.205  -4.711   7.238  0.00  0.00    +0.109 C 
ATOM      5  C   UNL     1       4.811  -4.243   5.854  0.00  0.00    +0.221 C 
ATOM      6  O   UNL     1       5.564  -4.167   4.907  0.00  0.00    -0.275 OA
ENDROOT
BRANCH   1  10
ATOM      7  C   UNL     1       1.492  -2.540   2.454  0.00  0.00    -0.047 A 
ATOM      8  C   UNL     1       2.860  -2.732   2.410  0.00  0.00    +0.005 A 
ATOM      9  C   UNL     1       3.531  -3.190   3.527  0.00  0.00    +0.024 A 
ATOM     10  C   UNL     1       2.830  -3.456   4.696  0.00  0.00    +0.036 A 
ATOM     11  C   UNL     1       1.456  -3.261   4.737  0.00  0.00    +0.024 A 
ATOM     12  C   UNL     1       0.791  -2.799   3.618  0.00  0.00    +0.005 A 
BRANCH   7  13
ATOM     13  C   UNL     1       0.763  -2.041   1.233  0.00  0.00    +0.035 C 
BRANCH  13  14
ATOM     14  C   UNL     1       0.727  -0.511   1.250  0.00  0.00    +0.004 C 
BRANCH  14  16
ATOM     15  C   UNL     1      -0.048   1.525   0.028  0.00  0.00    +0.004 C 
ATOM     16  C   UNL     1      -0.013  -0.004   0.011  0.00  0.00    -0.003 C 
ENDBRANCH  14  16
ENDBRANCH  13  14
ENDBRANCH   7  13
ENDBRANCH   1  10
BRANCH   3  17
ATOM     17  C   UNL     1       3.893  -4.645   9.384  0.00  0.00    +0.177 A 
ATOM     18  N   UNL     1       3.577  -5.447  10.402  0.00  0.00    -0.190 NA
ATOM     19  C   UNL     1       3.715  -4.803  11.542  0.00  0.00    +0.276 A 
ATOM     20  O   UNL     1       4.129  -3.553  11.264  0.00  0.00    -0.331 OA
ATOM     21  N   UNL     1       4.241  -3.479   9.851  0.00  0.00    -0.060 NA
BRANCH  19  22
ATOM     22  C   UNL     1       3.461  -5.353  12.884  0.00  0.00    +0.123 A 
ATOM     23  C   UNL     1       3.597  -4.686  14.070  0.00  0.00    +0.063 A 
ATOM     24  C   UNL     1       3.256  -5.575  15.103  0.00  0.00    +0.100 A 
ATOM     25  N   UNL     1       2.926  -6.732  14.563  0.00  0.00    -0.173 NA
ATOM     26  N   UNL     1       3.040  -6.621  13.171  0.00  0.00    -0.272 N 
ATOM     27  H   UNL     1       2.854  -7.320  12.525  0.00  0.00    +0.189 HD
BRANCH  24  28
ATOM     28  C   UNL     1       3.264  -5.266  16.550  0.00  0.00    +0.039 A 
ATOM     29  C   UNL     1       2.951  -6.077  17.607  0.00  0.00    +0.018 A 
ATOM     30  C   UNL     1       3.034  -5.563  18.883  0.00  0.00    +0.008 A 
ATOM     31  C   UNL     1       3.421  -4.274  19.053  0.00  0.00    +0.046 A 
ATOM     32  S   UNL     1       3.694  -3.740  17.371  0.00  0.00    -0.095 S 
ENDBRANCH  24  28
ENDBRANCH  19  22
ENDBRANCH   3  17
TORSDOF 7
