REMARK  Name = ZINC06197018
REMARK  8 active torsions:
REMARK  status: ('A' for Active; 'I' for Inactive)
REMARK    1  A    between atoms: C_1  and  C_2
REMARK    2  A    between atoms: C_2  and  O_3
REMARK    3  A    between atoms: O_3  and  C_4
REMARK    4  A    between atoms: C_11  and  C_16
REMARK    5  A    between atoms: C_16  and  C_18
REMARK    6  A    between atoms: C_16  and  N_65
REMARK    7  A    between atoms: N_22  and  C_23
REMARK    8  A    between atoms: C_23  and  C_24
REMARK                            x       y       z     vdW  Elec       q    Type
REMARK                         _______ _______ _______ _____ _____    ______ ____
ROOT
ATOM      1  C   UNL     1       2.718   0.981   2.393  0.00  0.00    +0.039 C 
ENDROOT
BRANCH   1   9
ATOM      2  C   UNL     1       3.722  -5.105   3.012  0.00  0.00    +0.121 A 
ATOM      3  C   UNL     1       5.058  -5.077   2.618  0.00  0.00    +0.047 A 
ATOM      4  C   UNL     1       5.661  -3.891   2.264  0.00  0.00    +0.030 A 
ATOM      5  C   UNL     1       4.934  -2.705   2.298  0.00  0.00    +0.049 A 
ATOM      6  C   UNL     1       3.584  -2.728   2.696  0.00  0.00    +0.002 A 
ATOM      7  C   UNL     1       2.983  -3.940   3.054  0.00  0.00    +0.055 A 
ATOM      8  C   UNL     1       2.833  -1.472   2.733  0.00  0.00    +0.017 A 
ATOM      9  C   UNL     1       3.465  -0.328   2.371  0.00  0.00    +0.011 A 
ATOM     10  C   UNL     1       4.820  -0.358   1.979  0.00  0.00    +0.251 A 
ATOM     11  O   UNL     1       5.370   0.682   1.661  0.00  0.00    -0.268 OA
ATOM     12  N   UNL     1       5.520  -1.506   1.946  0.00  0.00    -0.322 N 
ATOM     13  H   UNL     1       6.479  -1.490   1.663  0.00  0.00    +0.169 HD
BRANCH   2  14
ATOM     14  O   UNL     1       3.144  -6.286   3.359  0.00  0.00    -0.492 OA
BRANCH  14  16
ATOM     15  C   UNL     1       3.146  -8.676   3.718  0.00  0.00    +0.048 C 
ATOM     16  C   UNL     1       3.964  -7.454   3.295  0.00  0.00    +0.225 C 
ENDBRANCH  14  16
ENDBRANCH   2  14
ENDBRANCH   1   9
BRANCH   1  26
ATOM     17  C   UNL     1       3.658   1.475   4.572  0.00  0.00    -0.072 C 
ATOM     18  C   UNL     1       4.732   2.331   5.242  0.00  0.00    +0.017 C 
ATOM     19  C   UNL     1       4.413   3.793   5.059  0.00  0.00    -0.048 A 
ATOM     20  C   UNL     1       5.050   4.716   5.874  0.00  0.00    +0.004 A 
ATOM     21  C   UNL     1       4.793   6.065   5.734  0.00  0.00    +0.000 A 
ATOM     22  C   UNL     1       3.894   6.498   4.776  0.00  0.00    +0.000 A 
ATOM     23  C   UNL     1       3.258   5.579   3.966  0.00  0.00    +0.002 A 
ATOM     24  C   UNL     1       3.515   4.223   4.106  0.00  0.00    -0.061 A 
ATOM     25  C   UNL     1       2.792   3.259   3.202  0.00  0.00    -0.041 C 
ATOM     26  N   UNL     1       3.490   1.963   3.188  0.00  0.00    +0.392 N 
ATOM     27  H   UNL     1       4.416   2.084   2.760  0.00  0.00    -0.080 HD
ENDBRANCH   1  26
BRANCH   1  28
ATOM     28  C   UNL     1       2.567   1.496   0.985  0.00  0.00    +0.143 A 
ATOM     29  N   UNL     1       3.530   1.893   0.189  0.00  0.00    -0.115 NA
ATOM     30  N   UNL     1       2.998   2.265  -0.924  0.00  0.00    -0.023 NA
ATOM     31  N   UNL     1       1.721   2.112  -0.860  0.00  0.00    -0.044 NA
ATOM     32  N   UNL     1       1.417   1.637   0.300  0.00  0.00    -0.226 N 
BRANCH  32  33
ATOM     33  C   UNL     1       0.071   1.316   0.783  0.00  0.00    +0.182 C 
BRANCH  33  34
ATOM     34  C   UNL     1      -0.323  -0.055   0.299  0.00  0.00    -0.026 A 
ATOM     35  C   UNL     1      -0.851  -0.214  -0.969  0.00  0.00    +0.008 A 
ATOM     36  C   UNL     1      -1.208  -1.472  -1.416  0.00  0.00    +0.038 A 
ATOM     37  C   UNL     1      -1.047  -2.572  -0.590  0.00  0.00    +0.123 A 
ATOM     38  C   UNL     1      -0.524  -2.410   0.681  0.00  0.00    +0.038 A 
ATOM     39  C   UNL     1      -0.162  -1.152   1.125  0.00  0.00    +0.008 A 
ATOM     40  F   UNL     1      -1.401  -3.801  -1.025  0.00  0.00    -0.205 F 
ENDBRANCH  33  34
ENDBRANCH  32  33
ENDBRANCH   1  28
TORSDOF 7
