REMARK  Name = ZINC05577175
REMARK  8 active torsions:
REMARK  status: ('A' for Active; 'I' for Inactive)
REMARK    1  A    between atoms: C_1  and  C_2
REMARK    2  A    between atoms: C_3  and  C_23
REMARK    3  A    between atoms: C_8  and  C_10
REMARK    4  A    between atoms: C_17  and  C_19
REMARK    5  A    between atoms: C_26  and  C_29
REMARK    6  A    between atoms: C_29  and  C_30
REMARK    7  A    between atoms: C_30  and  C_31
REMARK    8  A    between atoms: C_30  and  C_32
REMARK                            x       y       z     vdW  Elec       q    Type
REMARK                         _______ _______ _______ _____ _____    ______ ____
ROOT
ATOM      1  C   UNL     1       3.166   6.161   6.173  0.00  0.00    +0.054 C 
ATOM      2  C   UNL     1       2.497   5.716   4.899  0.00  0.00    +0.016 A 
ATOM      3  C   UNL     1       1.520   6.330   4.166  0.00  0.00    +0.083 A 
ATOM      4  N   UNL     1       1.076   5.752   3.060  0.00  0.00    -0.224 NA
ATOM      5  C   UNL     1       1.552   4.588   2.657  0.00  0.00    +0.165 A 
ATOM      6  S   UNL     1       2.760   4.238   3.928  0.00  0.00    -0.057 S 
ATOM      7  N   UNL     1       1.209   3.837   1.539  0.00  0.00    -0.264 N 
ATOM      8  C   UNL     1       1.826   2.663   1.301  0.00  0.00    +0.223 C 
ATOM      9  O   UNL     1       2.680   2.261   2.063  0.00  0.00    -0.275 OA
ATOM     10  H   UNL     1       0.526   4.159   0.930  0.00  0.00    +0.157 HD
ENDROOT
BRANCH   8  11
ATOM     11  C   UNL     1       1.454   1.849   0.088  0.00  0.00    +0.097 C 
ATOM     12  C   UNL     1       2.219   0.487   0.051  0.00  0.00    +0.025 C 
ATOM     13  C   UNL     1       1.307  -0.354   1.050  0.00  0.00    +0.016 C 
ATOM     14  C   UNL     1       0.020  -0.130   0.175  0.00  0.00    +0.027 C 
ATOM     15  C   UNL     1      -0.035   1.431   0.149  0.00  0.00    +0.121 C 
ATOM     16  C   UNL     1       0.552  -0.507  -1.213  0.00  0.00    -0.027 C 
ATOM     17  C   UNL     1       1.819  -0.152  -1.285  0.00  0.00    -0.027 C 
BRANCH  15  18
ATOM     18  C   UNL     1      -0.772   1.915  -1.073  0.00  0.00    +0.360 C 
ATOM     19  O   UNL     1      -0.203   2.603  -1.888  0.00  0.00    -0.246 OA
ATOM     20  O   UNL     1      -2.059   1.582  -1.257  0.00  0.00    -0.246 OA
ENDBRANCH  15  18
ENDBRANCH   8  11
BRANCH   3  21
ATOM     21  C   UNL     1       0.966   7.635   4.601  0.00  0.00    +0.001 A 
ATOM     22  C   UNL     1      -0.407   7.868   4.540  0.00  0.00    +0.010 A 
ATOM     23  C   UNL     1      -0.917   9.083   4.951  0.00  0.00    +0.004 A 
ATOM     24  C   UNL     1      -0.068  10.072   5.414  0.00  0.00    -0.047 A 
ATOM     25  C   UNL     1       1.296   9.848   5.472  0.00  0.00    +0.004 A 
ATOM     26  C   UNL     1       1.817   8.636   5.068  0.00  0.00    +0.010 A 
BRANCH  24  27
ATOM     27  C   UNL     1      -0.631  11.398   5.856  0.00  0.00    +0.038 C 
BRANCH  27  28
ATOM     28  C   UNL     1      -0.681  12.354   4.662  0.00  0.00    -0.013 C 
ATOM     29  C   UNL     1      -1.669  11.821   3.623  0.00  0.00    +0.007 C 
ATOM     30  C   UNL     1      -1.134  13.737   5.134  0.00  0.00    +0.007 C 
ENDBRANCH  27  28
ENDBRANCH  24  27
ENDBRANCH   3  21
TORSDOF 5
