REMARK  Name = ZINC39531588
REMARK  10 active torsions:
REMARK  status: ('A' for Active; 'I' for Inactive)
REMARK    1  A    between atoms: C_1  and  C_2
REMARK    2  A    between atoms: C_5  and  C_8
REMARK    3  A    between atoms: C_8  and  C_10
REMARK    4  A    between atoms: C_8  and  N_22
REMARK    5  A    between atoms: C_10  and  N_11
REMARK    6  A    between atoms: N_11  and  S_12
REMARK    7  A    between atoms: S_12  and  O_15
REMARK    8  A    between atoms: O_15  and  C_16
REMARK    9  A    between atoms: C_26  and  C_29
REMARK   10  A    between atoms: C_34  and  O_35
REMARK                            x       y       z     vdW  Elec       q    Type
REMARK                         _______ _______ _______ _____ _____    ______ ____
ROOT
ATOM      1  C   UNL     1       0.487  -4.972  -0.786  0.00  0.00    -0.060 C 
ENDROOT
BRANCH   1   2
ATOM      2  N   UNL     1       1.102  -5.767   0.285  0.00  0.00    +0.381 N 
ATOM      3  C   UNL     1       2.513  -5.385   0.430  0.00  0.00    -0.098 C 
ATOM      4  C   UNL     1       3.154  -6.213   1.545  0.00  0.00    -0.101 C 
ATOM      5  N   UNL     1       3.065  -7.641   1.208  0.00  0.00    +0.381 N 
ATOM      6  C   UNL     1       1.654  -8.023   1.063  0.00  0.00    -0.054 C 
ATOM      7  C   UNL     1       1.014  -7.194  -0.052  0.00  0.00    -0.090 C 
ATOM      8  H   UNL     1       3.551  -7.812   0.340  0.00  0.00    -0.085 HD
ATOM      9  H   UNL     1       3.488  -8.187   1.943  0.00  0.00    -0.085 HD
ATOM     10  H   UNL     1       0.617  -5.596   1.153  0.00  0.00    -0.081 HD
BRANCH   6  11
ATOM     11  C   UNL     1       1.563  -9.487   0.717  0.00  0.00    -0.022 A 
ATOM     12  C   UNL     1       2.615 -10.112   0.076  0.00  0.00    +0.005 A 
ATOM     13  C   UNL     1       2.532 -11.455  -0.242  0.00  0.00    +0.000 A 
ATOM     14  C   UNL     1       1.397 -12.175   0.081  0.00  0.00    +0.004 A 
ATOM     15  C   UNL     1       0.343 -11.555   0.722  0.00  0.00    +0.045 A 
ATOM     16  C   UNL     1       0.426 -10.208   1.047  0.00  0.00    +0.118 A 
BRANCH  16  17
ATOM     17  O   UNL     1      -0.608  -9.597   1.683  0.00  0.00    -0.507 OA
ATOM     18  H   UNL     1      -1.304  -9.282   1.089  0.00  0.00    +0.292 HD
ENDBRANCH  16  17
ENDBRANCH   6  11
ENDBRANCH   1   2
BRANCH   1  23
ATOM     19  C   UNL     1       0.929   0.647   0.489  0.00  0.00    +0.044 C 
ATOM     20  C   UNL     1       0.814  -0.818   0.156  0.00  0.00    -0.050 A 
ATOM     21  C   UNL     1       1.005  -1.249  -1.143  0.00  0.00    +0.003 A 
ATOM     22  C   UNL     1       0.900  -2.593  -1.448  0.00  0.00    +0.002 A 
ATOM     23  C   UNL     1       0.603  -3.506  -0.453  0.00  0.00    -0.063 A 
ATOM     24  C   UNL     1       0.412  -3.075   0.846  0.00  0.00    +0.002 A 
ATOM     25  C   UNL     1       0.522  -1.732   1.152  0.00  0.00    +0.003 A 
ENDBRANCH   1  23
BRANCH   1  26
ATOM     26  C   UNL     1      -0.990  -5.349  -0.918  0.00  0.00    -0.121 C 
BRANCH  26  27
ATOM     27  N   UNL     1      -1.585  -4.611  -2.034  0.00  0.00    +0.491 NA
BRANCH  27  28
ATOM     28  S   UNL     1      -3.210  -4.729  -2.332  0.00  0.00    +0.066 S 
ATOM     29  O   UNL     1      -3.491  -6.110  -2.509  0.00  0.00    -0.159 OA
ATOM     30  O   UNL     1      -3.862  -3.938  -1.347  0.00  0.00    -0.159 OA
BRANCH  28  31
ATOM     31  O   UNL     1      -3.471  -4.056  -3.672  0.00  0.00    -0.362 OA
BRANCH  31  32
ATOM     32  C   UNL     1      -3.056  -4.781  -4.744  0.00  0.00    +0.154 A 
ATOM     33  C   UNL     1      -1.738  -4.702  -5.168  0.00  0.00    +0.048 A 
ATOM     34  C   UNL     1      -1.318  -5.440  -6.258  0.00  0.00    +0.004 A 
ATOM     35  C   UNL     1      -2.212  -6.257  -6.926  0.00  0.00    +0.000 A 
ATOM     36  C   UNL     1      -3.526  -6.337  -6.506  0.00  0.00    +0.004 A 
ATOM     37  C   UNL     1      -3.949  -5.606  -5.413  0.00  0.00    +0.048 A 
ENDBRANCH  31  32
ENDBRANCH  28  31
ENDBRANCH  27  28
ENDBRANCH  26  27
ENDBRANCH   1  26
TORSDOF 9
