REMARK  Name = ZINC49486154
REMARK  6 active torsions:
REMARK  status: ('A' for Active; 'I' for Inactive)
REMARK    1  A    between atoms: C_3  and  C_6
REMARK    2  A    between atoms: C_6  and  C_8
REMARK    3  A    between atoms: C_6  and  N_18
REMARK    4  A    between atoms: C_8  and  N_9
REMARK    5  A    between atoms: C_10  and  C_12
REMARK    6  A    between atoms: N_21  and  C_24
REMARK                            x       y       z     vdW  Elec       q    Type
REMARK                         _______ _______ _______ _____ _____    ______ ____
ROOT
ATOM      1  C   UNL     1       3.634   0.602  -0.036  0.00  0.00    +0.017 C 
ENDROOT
BRANCH   1   2
ATOM      2  N   UNL     1       4.185  -0.412   0.873  0.00  0.00    +0.389 N 
ATOM      3  C   UNL     1       5.652  -0.357   0.832  0.00  0.00    -0.059 C 
ATOM      4  C   UNL     1       6.228  -1.488   1.691  0.00  0.00    +0.086 C 
ATOM      5  N   UNL     1       5.654  -1.387   3.041  0.00  0.00    -0.333 N 
ATOM      6  C   UNL     1       4.192  -1.272   3.167  0.00  0.00    +0.086 C 
ATOM      7  C   UNL     1       3.712  -0.151   2.238  0.00  0.00    -0.059 C 
ATOM      8  H   UNL     1       3.877  -1.327   0.581  0.00  0.00    -0.081 HD
BRANCH   5   9
ATOM      9  C   UNL     1       6.473  -1.400   4.174  0.00  0.00    +0.030 A 
ATOM     10  C   UNL     1       5.907  -1.438   5.442  0.00  0.00    +0.026 A 
ATOM     11  C   UNL     1       6.719  -1.451   6.559  0.00  0.00    +0.040 A 
ATOM     12  C   UNL     1       8.096  -1.426   6.416  0.00  0.00    +0.124 A 
ATOM     13  C   UNL     1       8.663  -1.389   5.153  0.00  0.00    +0.040 A 
ATOM     14  C   UNL     1       7.855  -1.381   4.033  0.00  0.00    +0.026 A 
ATOM     15  F   UNL     1       8.888  -1.439   7.510  0.00  0.00    -0.205 F 
ENDBRANCH   5   9
ENDBRANCH   1   2
BRANCH   1  18
ATOM     16  C   UNL     1       5.040   3.994   0.280  0.00  0.00    +0.041 A 
ATOM     17  C   UNL     1       4.668   2.875  -0.500  0.00  0.00    +0.043 A 
ATOM     18  C   UNL     1       4.162   1.961   0.347  0.00  0.00    +0.093 A 
ATOM     19  O   UNL     1       4.208   2.464   1.591  0.00  0.00    -0.469 OA
ATOM     20  C   UNL     1       4.739   3.697   1.557  0.00  0.00    +0.195 A 
ENDBRANCH   1  18
BRANCH   1  21
ATOM     21  C   UNL     1       2.107   0.602   0.065  0.00  0.00    +0.097 C 
BRANCH  21  22
ATOM     22  N   UNL     1       1.600  -0.747  -0.199  0.00  0.00    -0.312 N 
ATOM     23  C   UNL     1       0.286  -1.012  -0.063  0.00  0.00    +0.251 C 
ATOM     24  O   UNL     1      -0.480  -0.131   0.280  0.00  0.00    -0.270 OA
ATOM     25  H   UNL     1       2.211  -1.450  -0.473  0.00  0.00    +0.149 HD
BRANCH  23  26
ATOM     26  C   UNL     1      -0.221  -2.361  -0.327  0.00  0.00    +0.075 A 
ATOM     27  C   UNL     1      -1.521  -2.836  -0.252  0.00  0.00    +0.022 A 
ATOM     28  C   UNL     1      -1.691  -4.164  -0.561  0.00  0.00    +0.028 A 
ATOM     29  C   UNL     1      -0.606  -4.903  -0.910  0.00  0.00    +0.079 A 
ATOM     30  S   UNL     1       0.673  -3.817  -0.836  0.00  0.00    -0.072 S 
ATOM     31 CL   UNL     1      -0.555  -6.583  -1.341  0.00  0.00    -0.076 Cl
ENDBRANCH  23  26
ENDBRANCH  21  22
ENDBRANCH   1  21
TORSDOF 6
