REMARK  Name = ZINC49127384
REMARK  9 active torsions:
REMARK  status: ('A' for Active; 'I' for Inactive)
REMARK    1  A    between atoms: C_1  and  C_2
REMARK    2  A    between atoms: C_2  and  C_3
REMARK    3  A    between atoms: C_3  and  C_5
REMARK    4  A    between atoms: C_3  and  N_8
REMARK    5  A    between atoms: C_5  and  C_6
REMARK    6  A    between atoms: C_5  and  C_7
REMARK    7  A    between atoms: N_8  and  S_9
REMARK    8  A    between atoms: S_9  and  C_12
REMARK    9  A    between atoms: C_15  and  N_19
REMARK                            x       y       z     vdW  Elec       q    Type
REMARK                         _______ _______ _______ _____ _____    ______ ____
ROOT
ATOM      1  S   UNL     1       0.506   0.279  -3.902  0.00  0.00    +0.061 S 
ATOM      2  O   UNL     1      -0.545   0.591  -4.806  0.00  0.00    -0.153 OA
ATOM      3  O   UNL     1       1.590   1.165  -3.659  0.00  0.00    -0.153 OA
ENDROOT
BRANCH   1   4
ATOM      4  C   UNL     1       1.210  -1.240  -4.454  0.00  0.00    +0.133 A 
ATOM      5  C   UNL     1       2.512  -1.560  -4.113  0.00  0.00    +0.047 A 
ATOM      6  C   UNL     1       3.067  -2.750  -4.544  0.00  0.00    +0.040 A 
ATOM      7  C   UNL     1       2.317  -3.624  -5.320  0.00  0.00    +0.027 A 
ATOM      8  C   UNL     1       1.010  -3.300  -5.660  0.00  0.00    +0.040 A 
ATOM      9  C   UNL     1       0.458  -2.111  -5.222  0.00  0.00    +0.047 A 
ATOM     10 BR   UNL     1      -1.323  -1.671  -5.678  0.00  0.00    -0.048 Br
ATOM     11 BR   UNL     1       3.533  -0.370  -3.056  0.00  0.00    -0.048 Br
BRANCH   7  12
ATOM     12  N   UNL     1       2.876  -4.827  -5.758  0.00  0.00    -0.358 N 
ATOM     13  H   UNL     1       3.788  -5.053  -5.520  0.00  0.00    +0.142 HD
ATOM     14  H   UNL     1       2.351  -5.437  -6.300  0.00  0.00    +0.142 HD
ENDBRANCH   7  12
ENDBRANCH   1   4
BRANCH   1  15
ATOM     15  N   UNL     1      -0.203  -0.015  -2.435  0.00  0.00    -0.187 NA
ATOM     16  H   UNL     1      -1.166   0.056  -2.339  0.00  0.00    +0.148 HD
BRANCH  15  17
ATOM     17  C   UNL     1       0.623  -0.382  -1.282  0.00  0.00    +0.079 C 
BRANCH  17  18
ATOM     18  C   UNL     1       0.662  -1.905  -1.147  0.00  0.00    +0.001 C 
ATOM     19  C   UNL     1       1.525  -2.288   0.057  0.00  0.00    +0.009 C 
ATOM     20  C   UNL     1      -0.759  -2.436  -0.945  0.00  0.00    +0.009 C 
ENDBRANCH  17  18
BRANCH  17  22
ATOM     21  C   UNL     1       0.102   1.754  -0.096  0.00  0.00    +0.005 C 
ATOM     22  C   UNL     1       0.026   0.228  -0.012  0.00  0.00    +0.017 C 
ENDBRANCH  17  22
ENDBRANCH  15  17
ENDBRANCH   1  15
TORSDOF 6
