REMARK  Name = ZINC34737410
REMARK  7 active torsions:
REMARK  status: ('A' for Active; 'I' for Inactive)
REMARK    1  A    between atoms: C_1  and  C_2
REMARK    2  A    between atoms: C_2  and  N_3
REMARK    3  A    between atoms: N_6  and  C_7
REMARK    4  A    between atoms: C_9  and  C_29
REMARK    5  A    between atoms: C_12  and  N_13
REMARK    6  A    between atoms: N_17  and  C_20
REMARK    7  A    between atoms: C_20  and  C_21
REMARK                            x       y       z     vdW  Elec       q    Type
REMARK                         _______ _______ _______ _____ _____    ______ ____
ROOT
ATOM      1  N   UNL     1       2.924  -3.226  -4.702  0.00  0.00    -0.254 N 
ATOM      2  C   UNL     1       4.274  -2.694  -4.504  0.00  0.00    +0.117 C 
ATOM      3  C   UNL     1       4.904  -2.401  -5.870  0.00  0.00    +0.038 C 
ATOM      4  C   UNL     1       3.976  -1.458  -6.644  0.00  0.00    +0.111 C 
ATOM      5  N   UNL     1       2.643  -2.057  -6.725  0.00  0.00    -0.281 N 
ATOM      6  C   UNL     1       2.193  -2.890  -5.776  0.00  0.00    +0.309 C 
ATOM      7  O   UNL     1       1.075  -3.356  -5.889  0.00  0.00    -0.252 OA
ENDROOT
BRANCH   1  13
ATOM      8  C   UNL     1       1.658  -3.613  -2.674  0.00  0.00    +0.057 A 
ATOM      9  C   UNL     1       1.125  -4.492  -1.743  0.00  0.00    +0.028 A 
ATOM     10  C   UNL     1       1.323  -5.852  -1.883  0.00  0.00    -0.049 A 
ATOM     11  C   UNL     1       2.052  -6.342  -2.951  0.00  0.00    +0.005 A 
ATOM     12  C   UNL     1       2.587  -5.474  -3.885  0.00  0.00    +0.026 A 
ATOM     13  C   UNL     1       2.388  -4.107  -3.754  0.00  0.00    +0.059 A 
ATOM     14  C   UNL     1       0.744  -6.805  -0.870  0.00  0.00    +0.044 C 
BRANCH   8  18
ATOM     15  N   UNL     1       0.261  -0.452  -1.614  0.00  0.00    -0.299 N 
ATOM     16  C   UNL     1       0.394  -1.773  -1.847  0.00  0.00    +0.304 C 
ATOM     17  O   UNL     1      -0.447  -2.550  -1.437  0.00  0.00    -0.253 OA
ATOM     18  N   UNL     1       1.458  -2.233  -2.534  0.00  0.00    -0.268 N 
ATOM     19  H   UNL     1       0.932   0.167  -1.941  0.00  0.00    +0.150 HD
ATOM     20  H   UNL     1       2.085  -1.609  -2.931  0.00  0.00    +0.156 HD
BRANCH  15  22
ATOM     21  C   UNL     1      -0.804   1.570  -0.744  0.00  0.00    +0.024 C 
ATOM     22  C   UNL     1      -0.895   0.048  -0.867  0.00  0.00    +0.102 C 
ENDBRANCH  15  22
ENDBRANCH   8  18
ENDBRANCH   1  13
BRANCH   5  23
ATOM     23  C   UNL     1       1.785  -1.744  -7.871  0.00  0.00    +0.147 C 
BRANCH  23  24
ATOM     24  C   UNL     1       2.032  -2.745  -8.971  0.00  0.00    +0.008 A 
ATOM     25  C   UNL     1       2.852  -2.415 -10.034  0.00  0.00    +0.046 A 
ATOM     26  C   UNL     1       3.079  -3.334 -11.043  0.00  0.00    +0.124 A 
ATOM     27  C   UNL     1       2.484  -4.583 -10.989  0.00  0.00    +0.041 A 
ATOM     28  C   UNL     1       1.664  -4.913  -9.927  0.00  0.00    +0.041 A 
ATOM     29  C   UNL     1       1.441  -3.995  -8.914  0.00  0.00    +0.128 A 
ATOM     30  F   UNL     1       0.644  -4.319  -7.873  0.00  0.00    -0.205 F 
ATOM     31  F   UNL     1       3.880  -3.012 -12.082  0.00  0.00    -0.205 F 
ENDBRANCH  23  24
ENDBRANCH   5  23
TORSDOF 5
