REMARK  Name = ZINC01765953
REMARK  4 active torsions:
REMARK  status: ('A' for Active; 'I' for Inactive)
REMARK    1  A    between atoms: C_4  and  C_7
REMARK    2  A    between atoms: C_7  and  N_8
REMARK    3  A    between atoms: N_15  and  N_16
REMARK    4  A    between atoms: C_17  and  C_19
REMARK                            x       y       z     vdW  Elec       q    Type
REMARK                         _______ _______ _______ _____ _____    ______ ____
ROOT
ATOM      1  N   UNL     1      -2.927   0.722   1.401  0.00  0.00    -0.275 N 
ATOM      2  C   UNL     1      -3.716   1.610   2.044  0.00  0.00    +0.260 A 
ATOM      3  O   UNL     1      -4.095   2.626   1.484  0.00  0.00    -0.267 OA
ATOM      4  C   UNL     1      -4.089   1.340   3.366  0.00  0.00    +0.050 A 
ATOM      5  C   UNL     1      -3.636   0.172   3.964  0.00  0.00    +0.084 A 
ATOM      6  N   UNL     1      -2.862  -0.673   3.276  0.00  0.00    -0.214 NA
ATOM      7  C   UNL     1      -2.518  -0.414   2.030  0.00  0.00    +0.216 A 
ATOM      8  N   UNL     1      -1.728  -1.305   1.355  0.00  0.00    -0.234 N 
ATOM      9  C   UNL     1      -4.026  -0.107   5.365  0.00  0.00    +0.004 A 
ATOM     10  C   UNL     1      -3.301  -1.001   6.147  0.00  0.00    +0.010 A 
ATOM     11  C   UNL     1      -3.695  -1.247   7.447  0.00  0.00    +0.001 A 
ATOM     12  C   UNL     1      -4.805  -0.607   7.969  0.00  0.00    +0.000 A 
ATOM     13  C   UNL     1      -5.528   0.284   7.196  0.00  0.00    +0.004 A 
ATOM     14  C   UNL     1      -5.144   0.540   5.896  0.00  0.00    -0.037 A 
ATOM     15  C   UNL     1      -5.919   1.513   5.047  0.00  0.00    +0.047 C 
ATOM     16  C   UNL     1      -4.968   2.284   4.135  0.00  0.00    +0.007 C 
ATOM     17  C   UNL     1      -5.779   3.156   3.158  0.00  0.00    +0.012 C 
ATOM     18  C   UNL     1      -5.827   4.545   3.842  0.00  0.00    +0.001 C 
ATOM     19  C   UNL     1      -4.418   4.666   4.474  0.00  0.00    +0.001 C 
ATOM     20  C   UNL     1      -4.104   3.240   4.973  0.00  0.00    +0.012 C 
ATOM     21  H   UNL     1      -1.466  -1.124   0.439  0.00  0.00    +0.173 HD
ENDROOT
BRANCH   8  22
ATOM     22  N   UNL     1      -1.299  -2.480   1.987  0.00  0.00    -0.230 N 
ATOM     23  C   UNL     1      -0.521  -3.357   1.322  0.00  0.00    +0.260 C 
ATOM     24  O   UNL     1      -0.193  -3.130   0.174  0.00  0.00    -0.269 OA
ATOM     25  H   UNL     1      -1.561  -2.661   2.903  0.00  0.00    +0.173 HD
BRANCH  23  26
ATOM     26  C   UNL     1      -0.068  -4.596   1.989  0.00  0.00    +0.038 A 
ATOM     27  C   UNL     1      -0.439  -4.858   3.309  0.00  0.00    +0.013 A 
ATOM     28  C   UNL     1      -0.018  -6.019   3.924  0.00  0.00    +0.001 A 
ATOM     29  C   UNL     1       0.780  -6.918   3.238  0.00  0.00    +0.000 A 
ATOM     30  C   UNL     1       1.157  -6.661   1.932  0.00  0.00    +0.001 A 
ATOM     31  C   UNL     1       0.737  -5.507   1.303  0.00  0.00    +0.013 A 
ENDBRANCH  23  26
ENDBRANCH   8  22
BRANCH   1  32
ATOM     32  C   UNL     1      -2.514   0.980   0.019  0.00  0.00    +0.163 C 
BRANCH  32  36
ATOM     33  C   UNL     1       1.156   3.165   0.008  0.00  0.00    +0.000 A 
ATOM     34  C   UNL     1       1.175   1.783   0.000  0.00  0.00    +0.000 A 
ATOM     35  C   UNL     1      -0.013   1.076   0.008  0.00  0.00    +0.005 A 
ATOM     36  C   UNL     1      -1.219   1.751   0.017  0.00  0.00    -0.028 A 
ATOM     37  C   UNL     1      -1.238   3.133   0.030  0.00  0.00    +0.005 A 
ATOM     38  C   UNL     1      -0.050   3.840   0.022  0.00  0.00    +0.000 A 
ENDBRANCH  32  36
ENDBRANCH   1  32
TORSDOF 4
