REMARK  Name = ZINC43216380
REMARK  22 active torsions:
REMARK  status: ('A' for Active; 'I' for Inactive)
REMARK    1  A    between atoms: C_1  and  C_2
REMARK    2  A    between atoms: C_2  and  C_3
REMARK    3  A    between atoms: C_3  and  C_4
REMARK    4  A    between atoms: C_3  and  C_5
REMARK    5  A    between atoms: C_3  and  C_6
REMARK    6  A    between atoms: C_9  and  O_17
REMARK    7  A    between atoms: C_10  and  C_12
REMARK    8  A    between atoms: C_12  and  C_13
REMARK    9  A    between atoms: C_12  and  C_14
REMARK   10  A    between atoms: C_12  and  C_15
REMARK   11  A    between atoms: C_15  and  C_16
REMARK   12  A    between atoms: O_17  and  C_18
REMARK   13  A    between atoms: C_18  and  C_19
REMARK   14  A    between atoms: C_19  and  C_20
REMARK   15  A    between atoms: C_20  and  C_21
REMARK   16  A    between atoms: C_21  and  N_22
REMARK   17  A    between atoms: C_23  and  C_25
REMARK   18  A    between atoms: C_28  and  C_30
REMARK   19  A    between atoms: C_30  and  C_32
REMARK   20  A    between atoms: C_30  and  N_35
REMARK   21  A    between atoms: C_32  and  C_33
REMARK   22  A    between atoms: C_32  and  C_34
REMARK                            x       y       z     vdW  Elec       q    Type
REMARK                         _______ _______ _______ _____ _____    ______ ____
ROOT
ATOM      1  C   UNL     1      -0.255  -8.316  -0.038  0.00  0.00    +0.042 C 
ENDROOT
BRANCH   1   2
ATOM      2  C   UNL     1      -0.075  -6.797  -0.030  0.00  0.00    +0.229 C 
BRANCH   2   3
ATOM      3  O   UNL     1      -1.357  -6.165  -0.019  0.00  0.00    -0.492 OA
BRANCH   3   7
ATOM      4  C   UNL     1      -1.413  -2.041   0.005  0.00  0.00    -0.041 A 
ATOM      5  C   UNL     1      -0.205  -2.714  -0.005  0.00  0.00    +0.008 A 
ATOM      6  C   UNL     1      -0.184  -4.095  -0.013  0.00  0.00    +0.046 A 
ATOM      7  C   UNL     1      -1.375  -4.807  -0.011  0.00  0.00    +0.124 A 
ATOM      8  C   UNL     1      -2.585  -4.128  -0.001  0.00  0.00    +0.000 A 
ATOM      9  C   UNL     1      -2.601  -2.747   0.012  0.00  0.00    +0.012 A 
BRANCH   4  10
ATOM     10  C   UNL     1      -1.433  -0.534   0.013  0.00  0.00    -0.010 C 
ATOM     11  C   UNL     1      -2.149  -0.040   1.272  0.00  0.00    +0.016 C 
ATOM     12  C   UNL     1      -2.173  -0.027  -1.227  0.00  0.00    +0.016 C 
BRANCH  10  14
ATOM     13  C   UNL     1      -0.019   1.526   0.010  0.00  0.00    +0.005 C 
ATOM     14  C   UNL     1       0.002  -0.004   0.002  0.00  0.00    +0.007 C 
ENDBRANCH  10  14
ENDBRANCH   4  10
BRANCH   8  15
ATOM     15  C   UNL     1      -3.881  -4.898   0.001  0.00  0.00    -0.007 C 
ATOM     16  C   UNL     1      -5.056  -3.917   0.012  0.00  0.00    +0.016 C 
ATOM     17  C   UNL     1      -3.958  -5.771  -1.253  0.00  0.00    +0.016 C 
BRANCH  15  18
ATOM     18  C   UNL     1      -3.945  -5.785   1.245  0.00  0.00    +0.008 C 
ATOM     19  C   UNL     1      -5.261  -6.566   1.247  0.00  0.00    +0.005 C 
ENDBRANCH  15  18
ENDBRANCH   8  15
ENDBRANCH   3   7
ENDBRANCH   2   3
ENDBRANCH   1   2
BRANCH   1  20
ATOM     20  C   UNL     1       1.118  -8.992  -0.050  0.00  0.00    +0.022 C 
BRANCH  20  21
ATOM     21  C   UNL     1       0.938 -10.512  -0.058  0.00  0.00    +0.104 C 
BRANCH  21  22
ATOM     22  N   UNL     1       2.252 -11.159  -0.069  0.00  0.00    -0.310 N 
ATOM     23  C   UNL     1       2.341 -12.504  -0.077  0.00  0.00    +0.266 C 
ATOM     24  O   UNL     1       1.330 -13.180  -0.076  0.00  0.00    -0.268 OA
ATOM     25  H   UNL     1       3.058 -10.620  -0.070  0.00  0.00    +0.149 HD
BRANCH  23  26
ATOM     26  C   UNL     1       3.663 -13.155  -0.088  0.00  0.00    +0.163 A 
ATOM     27  C   UNL     1       3.905 -14.494  -0.103  0.00  0.00    +0.230 A 
ATOM     28  O   UNL     1       5.238 -14.651  -0.110  0.00  0.00    -0.449 OA
ATOM     29  C   UNL     1       5.804 -13.436  -0.098  0.00  0.00    +0.182 A 
ATOM     30  N   UNL     1       4.872 -12.530  -0.090  0.00  0.00    -0.210 NA
BRANCH  29  31
ATOM     31  C   UNL     1       7.286 -13.163  -0.100  0.00  0.00    +0.015 C 
BRANCH  31  32
ATOM     32  N   UNL     1       7.942 -14.027  -1.091  0.00  0.00    +0.386 N 
ATOM     33  H   UNL     1       7.778 -14.994  -0.855  0.00  0.00    -0.089 HD
ATOM     34  H   UNL     1       7.564 -13.836  -2.006  0.00  0.00    -0.089 HD
ATOM     35  H   UNL     1       8.934 -13.844  -1.091  0.00  0.00    -0.089 HD
ENDBRANCH  31  32
BRANCH  31  36
ATOM     36  C   UNL     1       7.859 -13.454   1.289  0.00  0.00    -0.023 C 
ATOM     37  C   UNL     1       9.364 -13.177   1.288  0.00  0.00    +0.006 C 
ATOM     38  C   UNL     1       7.176 -12.554   2.321  0.00  0.00    +0.006 C 
ENDBRANCH  31  36
ENDBRANCH  29  31
ENDBRANCH  23  26
ENDBRANCH  21  22
ENDBRANCH  20  21
ENDBRANCH   1  20
TORSDOF 14
