REMARK  Name = ZINC02160284
REMARK  8 active torsions:
REMARK  status: ('A' for Active; 'I' for Inactive)
REMARK    1  A    between atoms: C_1  and  C_2
REMARK    2  A    between atoms: C_2  and  C_3
REMARK    3  A    between atoms: C_9  and  C_26
REMARK    4  A    between atoms: C_9  and  C_27
REMARK    5  A    between atoms: C_10  and  C_16
REMARK    6  A    between atoms: C_17  and  C_18
REMARK    7  A    between atoms: C_23  and  O_24
REMARK    8  A    between atoms: O_24  and  C_25
REMARK                            x       y       z     vdW  Elec       q    Type
REMARK                         _______ _______ _______ _____ _____    ______ ____
ROOT
ATOM      1  C   UNL     1      -0.691  -2.285   0.217  0.00  0.00    -0.047 A 
ATOM      2  C   UNL     1       0.573  -2.703  -0.158  0.00  0.00    +0.005 A 
ATOM      3  C   UNL     1       1.552  -1.778  -0.457  0.00  0.00    +0.024 A 
ATOM      4  C   UNL     1       1.273  -0.413  -0.382  0.00  0.00    +0.036 A 
ATOM      5  C   UNL     1       0.002  -0.004   0.002  0.00  0.00    -0.016 A 
ATOM      6  C   UNL     1      -0.974  -0.933   0.296  0.00  0.00    +0.009 A 
ATOM      7  C   UNL     1      -0.018   1.511   0.010  0.00  0.00    +0.034 C 
ATOM      8  C   UNL     1       1.483   1.877  -0.002  0.00  0.00    +0.131 C 
ATOM      9  N   UNL     1       2.096   0.687  -0.653  0.00  0.00    -0.296 N 
ATOM     10  C   UNL     1       2.031   1.023  -2.094  0.00  0.00    +0.203 C 
ATOM     11  C   UNL     1       2.021   2.535  -2.142  0.00  0.00    +0.232 C 
ATOM     12  O   UNL     1       2.258   3.214  -3.119  0.00  0.00    -0.274 OA
ATOM     13  N   UNL     1       1.702   3.000  -0.918  0.00  0.00    -0.289 N 
ATOM     14  C   UNL     1      -0.693   2.037   1.279  0.00  0.00    +0.020 C 
ATOM     15  C   UNL     1      -0.717   2.050  -1.240  0.00  0.00    +0.020 C 
ATOM     16  H   UNL     1       1.630   3.938  -0.679  0.00  0.00    +0.151 HD
ENDROOT
BRANCH   1  18
ATOM     17  C   UNL     1      -1.705  -3.638   2.030  0.00  0.00    +0.009 C 
ATOM     18  C   UNL     1      -1.757  -3.300   0.539  0.00  0.00    +0.032 C 
ENDBRANCH   1  18
BRANCH   8  19
ATOM     19  C   UNL     1       2.028   2.129   1.380  0.00  0.00    +0.020 C 
ATOM     20  C   UNL     1       3.021   1.384   1.847  0.00  0.00    +0.011 C 
BRANCH  20  21
ATOM     21  C   UNL     1       3.555   1.632   3.202  0.00  0.00    +0.016 A 
ATOM     22  C   UNL     1       3.022   2.652   3.990  0.00  0.00    +0.011 A 
ATOM     23  C   UNL     1       3.522   2.876   5.257  0.00  0.00    +0.001 A 
ATOM     24  C   UNL     1       4.559   2.098   5.745  0.00  0.00    +0.004 A 
ATOM     25  C   UNL     1       5.098   1.088   4.971  0.00  0.00    +0.046 A 
ATOM     26  C   UNL     1       4.603   0.848   3.699  0.00  0.00    +0.127 A 
BRANCH  26  27
ATOM     27  O   UNL     1       5.133  -0.144   2.938  0.00  0.00    -0.495 OA
ATOM     28  C   UNL     1       6.200  -0.903   3.511  0.00  0.00    +0.277 C 
ENDBRANCH  26  27
ENDBRANCH  20  21
ENDBRANCH   8  19
TORSDOF 4
