REMARK  Name = ZINC13064268
REMARK  10 active torsions:
REMARK  status: ('A' for Active; 'I' for Inactive)
REMARK    1  A    between atoms: C_1  and  C_2
REMARK    2  A    between atoms: C_2  and  C_3
REMARK    3  A    between atoms: C_3  and  C_5
REMARK    4  A    between atoms: C_3  and  N_73
REMARK    5  A    between atoms: N_9  and  C_10
REMARK    6  A    between atoms: C_16  and  C_17
REMARK    7  A    between atoms: C_16  and  N_73
REMARK    8  A    between atoms: C_22  and  O_29
REMARK    9  A    between atoms: O_29  and  C_30
REMARK   10  A    between atoms: C_31  and  N_73
REMARK                            x       y       z     vdW  Elec       q    Type
REMARK                         _______ _______ _______ _____ _____    ______ ____
ROOT
ATOM      1  N   UNL     1       2.027   1.057   8.935  0.00  0.00    +0.391 N 
ATOM      2  H   UNL     1       2.676   1.373   8.206  0.00  0.00    -0.080 HD
ENDROOT
BRANCH   1   3
ATOM      3  C   UNL     1       1.150   2.184   9.317  0.00  0.00    -0.067 C 
ATOM      4  C   UNL     1       0.419   1.875  10.625  0.00  0.00    -0.015 C 
ATOM      5  C   UNL     1      -0.476   3.058  11.002  0.00  0.00    -0.002 C 
ATOM      6  C   UNL     1      -1.499   3.297   9.890  0.00  0.00    -0.000 C 
ATOM      7  C   UNL     1      -0.768   3.607   8.582  0.00  0.00    -0.002 C 
ATOM      8  C   UNL     1       0.126   2.424   8.206  0.00  0.00    -0.015 C 
ENDBRANCH   1   3
BRANCH   1   9
ATOM      9  C   UNL     1       2.804   0.603  10.107  0.00  0.00    +0.003 C 
BRANCH   9  10
ATOM     10  C   UNL     1       3.075   1.776  11.015  0.00  0.00    +0.138 A 
ATOM     11  N   UNL     1       3.396   2.992  10.647  0.00  0.00    -0.115 NA
ATOM     12  N   UNL     1       3.544   3.704  11.711  0.00  0.00    -0.023 NA
ATOM     13  N   UNL     1       3.327   2.972  12.748  0.00  0.00    -0.044 NA
ATOM     14  N   UNL     1       3.030   1.778  12.360  0.00  0.00    -0.228 N 
BRANCH  14  15
ATOM     15  C   UNL     1       2.707   0.638  13.222  0.00  0.00    +0.111 C 
ATOM     16  C   UNL     1       1.473   0.969  14.063  0.00  0.00    +0.027 C 
ATOM     17  C   UNL     1       1.136  -0.222  14.963  0.00  0.00    +0.002 C 
ATOM     18  C   UNL     1       2.319  -0.514  15.887  0.00  0.00    +0.000 C 
ATOM     19  C   UNL     1       3.554  -0.844  15.046  0.00  0.00    +0.002 C 
ATOM     20  C   UNL     1       3.891   0.346  14.146  0.00  0.00    +0.027 C 
ENDBRANCH  14  15
ENDBRANCH   9  10
BRANCH   9  22
ATOM     21  C   UNL     1       3.856  -1.095   8.606  0.00  0.00    +0.002 C 
ATOM     22  C   UNL     1       4.131   0.021   9.616  0.00  0.00    -0.011 C 
ENDBRANCH   9  22
ENDBRANCH   1   9
BRANCH   1  23
ATOM     23  C   UNL     1       1.214  -0.058   8.405  0.00  0.00    -0.036 C 
BRANCH  23  24
ATOM     24  C   UNL     1       0.269  -0.571   9.460  0.00  0.00    +0.001 A 
ATOM     25  C   UNL     1      -1.014  -0.128   9.491  0.00  0.00    +0.017 A 
ATOM     26  C   UNL     1      -1.907  -0.646  10.527  0.00  0.00    -0.001 A 
ATOM     27  C   UNL     1      -3.241  -0.226  10.608  0.00  0.00    +0.013 A 
ATOM     28  C   UNL     1      -4.052  -0.730  11.581  0.00  0.00    +0.046 A 
ATOM     29  C   UNL     1      -3.562  -1.652  12.505  0.00  0.00    +0.122 A 
ATOM     30  C   UNL     1      -2.247  -2.080  12.441  0.00  0.00    +0.072 A 
ATOM     31  C   UNL     1      -1.408  -1.582  11.454  0.00  0.00    +0.053 A 
ATOM     32  N   UNL     1      -0.093  -1.991  11.368  0.00  0.00    -0.322 N 
ATOM     33  H   UNL     1       0.249  -2.635  12.006  0.00  0.00    +0.169 HD
ATOM     34  C   UNL     1       0.719  -1.509  10.411  0.00  0.00    +0.251 A 
ATOM     35  O   UNL     1       1.876  -1.892  10.365  0.00  0.00    -0.268 OA
BRANCH  29  36
ATOM     36  O   UNL     1      -4.383  -2.139  13.470  0.00  0.00    -0.495 OA
ATOM     37  C   UNL     1      -5.728  -1.658  13.481  0.00  0.00    +0.277 C 
ENDBRANCH  29  36
ENDBRANCH  23  24
ENDBRANCH   1  23
TORSDOF 8
