REMARK  Name = ZINC02738063
REMARK  6 active torsions:
REMARK  status: ('A' for Active; 'I' for Inactive)
REMARK    1  A    between atoms: C_1  and  N_50
REMARK    2  A    between atoms: C_12  and  C_15
REMARK    3  A    between atoms: C_18  and  C_20
REMARK    4  A    between atoms: C_20  and  O_21
REMARK    5  A    between atoms: O_21  and  C_22
REMARK    6  A    between atoms: C_25  and  C_28
REMARK                            x       y       z     vdW  Elec       q    Type
REMARK                         _______ _______ _______ _____ _____    ______ ____
ROOT
ATOM      1  C   UNL     1      -2.342  12.525   2.658  0.00  0.00    -0.096 C 
ATOM      2  C   UNL     1      -4.586  11.880   2.013  0.00  0.00    -0.074 C 
ATOM      3  C   UNL     1      -5.386  10.768   1.328  0.00  0.00    +0.018 C 
ATOM      4  C   UNL     1      -5.295   9.515   2.192  0.00  0.00    -0.027 A 
ATOM      5  C   UNL     1      -4.327   9.410   3.132  0.00  0.00    -0.021 A 
ATOM      6  S   UNL     1      -4.590   7.827   3.883  0.00  0.00    -0.080 S 
ATOM      7  C   UNL     1      -5.946   7.319   2.970  0.00  0.00    +0.080 A 
ATOM      8  C   UNL     1      -6.197   8.382   2.088  0.00  0.00    +0.068 A 
ATOM      9  C   UNL     1      -7.344   8.243   1.161  0.00  0.00    +0.248 C 
ATOM     10  O   UNL     1      -7.734   9.181   0.490  0.00  0.00    -0.270 OA
ATOM     11  N   UNL     1      -7.939   7.033   1.091  0.00  0.00    -0.287 N 
ATOM     12  C   UNL     1      -7.418   5.838   1.745  0.00  0.00    +0.227 C 
ATOM     13  N   UNL     1      -6.701   6.175   2.989  0.00  0.00    -0.314 N 
ATOM     14  C   UNL     1      -3.276  10.428   3.443  0.00  0.00    -0.036 C 
ATOM     15  H   UNL     1      -8.758   6.954   0.577  0.00  0.00    +0.151 HD
ATOM     16  H   UNL     1      -6.761   5.617   3.779  0.00  0.00    +0.149 HD
ATOM     17  N   UNL     1      -3.225  11.389   2.315  0.00  0.00    +0.381 N 
ATOM     18  H   UNL     1      -2.850  10.913   1.487  0.00  0.00    -0.082 HD
ENDROOT
BRANCH  12  19
ATOM     19  C   UNL     1      -6.473   5.133   0.806  0.00  0.00    +0.144 A 
ATOM     20  C   UNL     1      -6.527   5.170  -0.537  0.00  0.00    +0.049 A 
ATOM     21  C   UNL     1      -5.455   4.379  -1.011  0.00  0.00    +0.048 A 
ATOM     22  C   UNL     1      -4.816   3.900   0.071  0.00  0.00    +0.143 A 
ATOM     23  O   UNL     1      -5.435   4.362   1.169  0.00  0.00    -0.458 OA
BRANCH  22  24
ATOM     24  C   UNL     1      -3.606   3.001   0.054  0.00  0.00    +0.303 C 
BRANCH  24  25
ATOM     25  O   UNL     1      -2.420   3.798   0.047  0.00  0.00    -0.484 OA
BRANCH  25  26
ATOM     26  C   UNL     1      -1.234   3.139   0.031  0.00  0.00    +0.121 A 
ATOM     27  C   UNL     1      -1.214   1.749   0.017  0.00  0.00    +0.047 A 
ATOM     28  C   UNL     1      -0.013   1.076   0.008  0.00  0.00    +0.022 A 
ATOM     29  C   UNL     1       1.188   1.792   0.000  0.00  0.00    +0.052 A 
ATOM     30  C   UNL     1       1.163   3.189   0.008  0.00  0.00    +0.022 A 
ATOM     31  C   UNL     1      -0.043   3.855   0.023  0.00  0.00    +0.047 A 
BRANCH  29  32
ATOM     32  C   UNL     1       2.439   1.096  -0.015  0.00  0.00    +0.099 C 
ATOM     33  N   UNL     1       3.432   0.544  -0.027  0.00  0.00    -0.191 NA
ENDBRANCH  29  32
ENDBRANCH  25  26
ENDBRANCH  24  25
ENDBRANCH  22  24
ENDBRANCH  12  19
TORSDOF 5
