REMARK  Name = ZINC20737665
REMARK  9 active torsions:
REMARK  status: ('A' for Active; 'I' for Inactive)
REMARK    1  A    between atoms: C_1  and  C_2
REMARK    2  A    between atoms: C_2  and  N_3
REMARK    3  A    between atoms: C_7  and  C_9
REMARK    4  A    between atoms: C_9  and  N_10
REMARK    5  A    between atoms: C_11  and  C_13
REMARK    6  A    between atoms: N_19  and  C_31
REMARK    7  A    between atoms: C_23  and  C_24
REMARK    8  A    between atoms: C_31  and  C_32
REMARK    9  A    between atoms: C_36  and  C_38
REMARK                            x       y       z     vdW  Elec       q    Type
REMARK                         _______ _______ _______ _____ _____    ______ ____
ROOT
ATOM      1  C   UNL     1       2.432   1.746   0.442  0.00  0.00    +0.039 A 
ATOM      2  C   UNL     1       1.141   2.174   0.768  0.00  0.00    +0.014 A 
ATOM      3  C   UNL     1       0.188   1.248   1.129  0.00  0.00    +0.017 A 
ATOM      4  C   UNL     1       0.506  -0.104   1.167  0.00  0.00    +0.034 A 
ATOM      5  C   UNL     1       1.792  -0.549   0.842  0.00  0.00    +0.051 A 
ATOM      6  C   UNL     1       2.751   0.388   0.480  0.00  0.00    +0.037 A 
ATOM      7  N   UNL     1       2.154  -1.890   0.863  0.00  0.00    -0.262 N 
ATOM      8  C   UNL     1       1.330  -2.940   0.807  0.00  0.00    +0.258 C 
ATOM      9  O   UNL     1       1.788  -4.065   0.746  0.00  0.00    -0.269 OA
ATOM     10  C   UNL     1      -0.138  -2.745   0.819  0.00  0.00    +0.076 C 
ATOM     11  C   UNL     1      -0.982  -3.632   0.239  0.00  0.00    +0.028 C 
ATOM     12  S   UNL     1      -0.726  -1.284   1.634  0.00  0.00    -0.082 S 
ENDROOT
BRANCH  11  13
ATOM     13  C   UNL     1      -2.436  -3.475   0.400  0.00  0.00    -0.024 A 
ATOM     14  C   UNL     1      -2.962  -2.982   1.599  0.00  0.00    +0.008 A 
ATOM     15  C   UNL     1      -4.325  -2.832   1.739  0.00  0.00    +0.001 A 
ATOM     16  C   UNL     1      -5.173  -3.180   0.702  0.00  0.00    +0.000 A 
ATOM     17  C   UNL     1      -4.661  -3.675  -0.485  0.00  0.00    +0.001 A 
ATOM     18  C   UNL     1      -3.300  -3.825  -0.643  0.00  0.00    +0.008 A 
ENDBRANCH  11  13
BRANCH   1  20
ATOM     19  N   UNL     1       3.151   4.044   0.018  0.00  0.00    -0.313 N 
ATOM     20  C   UNL     1       3.458   2.732   0.055  0.00  0.00    +0.244 C 
ATOM     21  O   UNL     1       4.580   2.362  -0.230  0.00  0.00    -0.270 OA
ATOM     22  H   UNL     1       2.135   4.379   0.275  0.00  0.00    +0.149 HD
BRANCH  19  23
ATOM     23  C   UNL     1       4.170   5.024  -0.366  0.00  0.00    +0.089 C 
BRANCH  23  28
ATOM     24  N   UNL     1       2.502   6.463  -1.470  0.00  0.00    +0.382 N 
ATOM     25  C   UNL     1       2.579   7.830  -2.054  0.00  0.00    -0.078 C 
ATOM     26  C   UNL     1       4.101   8.116  -2.096  0.00  0.00    -0.020 C 
ATOM     27  C   UNL     1       4.612   7.462  -0.792  0.00  0.00    -0.016 C 
ATOM     28  C   UNL     1       3.542   6.419  -0.420  0.00  0.00    -0.051 C 
ATOM     29  H   UNL     1       2.660   5.683  -2.230  0.00  0.00    -0.081 HD
BRANCH  24  31
ATOM     30  C   UNL     1       0.102   6.512  -1.955  0.00  0.00    -0.017 C 
ATOM     31  C   UNL     1       1.172   6.201  -0.906  0.00  0.00    -0.082 C 
ENDBRANCH  24  31
ENDBRANCH  23  28
ENDBRANCH  19  23
ENDBRANCH   1  20
BRANCH   7  32
ATOM     32  C   UNL     1       3.586  -2.184   0.957  0.00  0.00    +0.149 C 
BRANCH  32  33
ATOM     33  C   UNL     1       4.018  -2.125   2.399  0.00  0.00    -0.029 A 
ATOM     34  C   UNL     1       3.906  -3.246   3.200  0.00  0.00    +0.005 A 
ATOM     35  C   UNL     1       4.302  -3.193   4.524  0.00  0.00    +0.001 A 
ATOM     36  C   UNL     1       4.811  -2.018   5.046  0.00  0.00    +0.003 A 
ATOM     37  C   UNL     1       4.923  -0.897   4.245  0.00  0.00    -0.050 A 
ATOM     38  C   UNL     1       4.531  -0.952   2.920  0.00  0.00    +0.008 A 
ATOM     39  C   UNL     1       5.478   0.383   4.814  0.00  0.00    +0.044 C 
ENDBRANCH  32  33
ENDBRANCH   7  32
TORSDOF 7
