REMARK  Name = ZINC02378623
REMARK  8 active torsions:
REMARK  status: ('A' for Active; 'I' for Inactive)
REMARK    1  A    between atoms: C_1  and  C_2
REMARK    2  A    between atoms: C_2  and  C_3
REMARK    3  A    between atoms: C_2  and  C_4
REMARK    4  A    between atoms: C_7  and  C_10
REMARK    5  A    between atoms: C_12  and  C_32
REMARK    6  A    between atoms: C_13  and  S_22
REMARK    7  A    between atoms: S_22  and  C_23
REMARK    8  A    between atoms: C_23  and  C_24
REMARK                            x       y       z     vdW  Elec       q    Type
REMARK                         _______ _______ _______ _____ _____    ______ ____
ROOT
ATOM      1  C   UNL     1      -5.419  -2.005   0.043  0.00  0.00    +0.097 C 
ATOM      2  C   UNL     1      -5.389  -3.505   0.061  0.00  0.00    +0.069 C 
ATOM      3  C   UNL     1      -5.635  -4.225  -1.066  0.00  0.00    +0.080 C 
ATOM      4  N   UNL     1      -5.925  -3.581  -2.247  0.00  0.00    -0.311 N 
ATOM      5  C   UNL     1      -6.363  -2.284  -2.242  0.00  0.00    +0.016 C 
ATOM      6  C   UNL     1      -6.146  -1.490  -1.173  0.00  0.00    +0.024 C 
ATOM      7  C   UNL     1      -6.590  -0.156  -1.162  0.00  0.00    +0.162 C 
ATOM      8  O   UNL     1      -6.393   0.530  -0.179  0.00  0.00    -0.292 OA
ATOM      9  C   UNL     1      -7.304   0.438  -2.345  0.00  0.00    +0.080 C 
ATOM     10  C   UNL     1      -6.836  -0.274  -3.619  0.00  0.00    +0.014 C 
ATOM     11  C   UNL     1      -7.095  -1.771  -3.457  0.00  0.00    +0.051 C 
ATOM     12  H   UNL     1      -5.818  -4.050  -3.089  0.00  0.00    +0.152 HD
ENDROOT
BRANCH   1  16
ATOM     13  C   UNL     1      -1.412  -0.526   0.013  0.00  0.00    -0.045 A 
ATOM     14  C   UNL     1      -2.259  -0.204   1.056  0.00  0.00    +0.004 A 
ATOM     15  C   UNL     1      -3.556  -0.683   1.066  0.00  0.00    +0.005 A 
ATOM     16  C   UNL     1      -4.006  -1.482   0.032  0.00  0.00    -0.035 A 
ATOM     17  C   UNL     1      -3.159  -1.803  -1.012  0.00  0.00    +0.005 A 
ATOM     18  C   UNL     1      -1.863  -1.321  -1.024  0.00  0.00    +0.004 A 
BRANCH  13  20
ATOM     19  C   UNL     1      -0.019   1.526   0.010  0.00  0.00    +0.012 C 
ATOM     20  C   UNL     1       0.002  -0.004   0.002  0.00  0.00    +0.013 C 
ATOM     21  C   UNL     1       0.742  -0.511   1.242  0.00  0.00    +0.012 C 
ENDBRANCH  13  20
ENDBRANCH   1  16
BRANCH   2  22
ATOM     22  C   UNL     1      -5.096  -4.189   1.284  0.00  0.00    +0.098 C 
ATOM     23  N   UNL     1      -4.864  -4.732   2.255  0.00  0.00    -0.191 NA
ENDBRANCH   2  22
BRANCH   3  24
ATOM     24  S   UNL     1      -5.581  -5.985  -1.015  0.00  0.00    -0.100 S 
BRANCH  24  25
ATOM     25  C   UNL     1      -5.965  -6.486  -2.715  0.00  0.00    +0.171 C 
BRANCH  25  26
ATOM     26  C   UNL     1      -5.952  -7.990  -2.811  0.00  0.00    +0.229 C 
ATOM     27  O   UNL     1      -5.707  -8.658  -1.829  0.00  0.00    -0.275 OA
ATOM     28  N   UNL     1      -6.212  -8.593  -3.988  0.00  0.00    -0.264 N 
ATOM     29  C   UNL     1      -6.200  -9.980  -4.077  0.00  0.00    +0.164 A 
ATOM     30  N   UNL     1      -5.963 -10.857  -3.126  0.00  0.00    -0.233 NA
ATOM     31  C   UNL     1      -5.989 -12.154  -3.373  0.00  0.00    +0.120 A 
ATOM     32  C   UNL     1      -6.269 -12.534  -4.643  0.00  0.00    +0.068 A 
ATOM     33  S   UNL     1      -6.491 -10.944  -5.425  0.00  0.00    -0.061 S 
ATOM     34  H   UNL     1      -6.408  -8.058  -4.774  0.00  0.00    +0.157 HD
ENDBRANCH  25  26
ENDBRANCH  24  25
ENDBRANCH   3  24
TORSDOF 6
