REMARK  Name = ZINC02384925
REMARK  8 active torsions:
REMARK  status: ('A' for Active; 'I' for Inactive)
REMARK    1  A    between atoms: C_1  and  C_2
REMARK    2  A    between atoms: N_4  and  C_5
REMARK    3  A    between atoms: C_8  and  N_11
REMARK    4  A    between atoms: C_12  and  C_14
REMARK    5  A    between atoms: C_14  and  S_15
REMARK    6  A    between atoms: S_15  and  C_16
REMARK    7  A    between atoms: N_29  and  C_30
REMARK    8  A    between atoms: C_30  and  C_31
REMARK                            x       y       z     vdW  Elec       q    Type
REMARK                         _______ _______ _______ _____ _____    ______ ____
ROOT
ATOM      1  C   UNL     1      -7.191   8.159   1.050  0.00  0.00    +0.173 A 
ATOM      2  N   UNL     1      -8.171   7.279   1.071  0.00  0.00    -0.216 NA
ATOM      3  C   UNL     1      -9.436   7.672   1.163  0.00  0.00    +0.117 A 
ATOM      4  C   UNL     1      -9.794   9.029   1.231  0.00  0.00    +0.076 A 
ATOM      5  C   UNL     1     -11.229   9.307   1.322  0.00  0.00    -0.023 A 
ATOM      6  C   UNL     1     -12.059   8.245   1.333  0.00  0.00    -0.004 A 
ATOM      7  S   UNL     1     -10.997   6.830   1.223  0.00  0.00    -0.073 S 
ATOM      8  C   UNL     1     -13.555   8.263   1.419  0.00  0.00    +0.043 C 
ATOM      9  C   UNL     1     -13.997   9.663   1.869  0.00  0.00    +0.005 C 
ATOM     10  C   UNL     1     -13.260  10.706   1.023  0.00  0.00    +0.005 C 
ATOM     11  C   UNL     1     -11.779  10.729   1.403  0.00  0.00    +0.037 C 
ATOM     12  C   UNL     1      -8.710   9.962   1.200  0.00  0.00    +0.264 A 
ATOM     13  O   UNL     1      -8.925  11.161   1.254  0.00  0.00    -0.267 OA
ATOM     14  N   UNL     1      -7.450   9.498   1.112  0.00  0.00    -0.280 N 
ENDROOT
BRANCH   1  15
ATOM     15  S   UNL     1      -5.524   7.601   0.934  0.00  0.00    -0.078 S 
BRANCH  15  16
ATOM     16  C   UNL     1      -5.793   5.812   0.888  0.00  0.00    +0.173 C 
BRANCH  16  18
ATOM     17  N   UNL     1      -4.420   3.760   0.737  0.00  0.00    -0.285 N 
ATOM     18  C   UNL     1      -4.466   5.106   0.786  0.00  0.00    +0.227 C 
ATOM     19  O   UNL     1      -3.438   5.750   0.749  0.00  0.00    -0.275 OA
ATOM     20  H   UNL     1      -5.236   3.244   0.834  0.00  0.00    +0.155 HD
BRANCH  17  24
ATOM     21  C   UNL     1      -0.775   1.817   0.166  0.00  0.00    +0.033 A 
ATOM     22  C   UNL     1      -0.830   2.986   0.914  0.00  0.00    +0.025 A 
ATOM     23  C   UNL     1      -2.035   3.632   1.099  0.00  0.00    +0.025 A 
ATOM     24  C   UNL     1      -3.196   3.107   0.545  0.00  0.00    +0.034 A 
ATOM     25  C   UNL     1      -3.143   1.936  -0.198  0.00  0.00    +0.025 A 
ATOM     26  C   UNL     1      -1.936   1.292  -0.387  0.00  0.00    +0.025 A 
BRANCH  21  30
ATOM     27  C   UNL     1       2.055  -0.083  -1.434  0.00  0.00    +0.109 C 
ATOM     28  C   UNL     1       0.702   0.535  -1.190  0.00  0.00    +0.214 C 
ATOM     29  O   UNL     1      -0.159   0.466  -2.042  0.00  0.00    -0.276 OA
ATOM     30  N   UNL     1       0.449   1.164  -0.025  0.00  0.00    -0.286 N 
ATOM     31  H   UNL     1       1.113   1.161   0.682  0.00  0.00    +0.155 HD
ENDBRANCH  21  30
ENDBRANCH  17  24
ENDBRANCH  16  18
ENDBRANCH  15  16
ENDBRANCH   1  15
BRANCH  14  32
ATOM     32  C   UNL     1      -6.335  10.448   1.080  0.00  0.00    +0.201 C 
BRANCH  32  33
ATOM     33  C   UNL     1      -6.035  10.823  -0.348  0.00  0.00    +0.125 A 
ATOM     34  C   UNL     1      -6.587  11.845  -1.026  0.00  0.00    +0.046 A 
ATOM     35  C   UNL     1      -6.020  11.832  -2.321  0.00  0.00    +0.041 A 
ATOM     36  C   UNL     1      -5.162  10.797  -2.360  0.00  0.00    +0.195 A 
ATOM     37  O   UNL     1      -5.175  10.190  -1.162  0.00  0.00    -0.466 OA
ENDBRANCH  32  33
ENDBRANCH  14  32
TORSDOF 7
