REMARK  Name = ZINC39675056
REMARK  12 active torsions:
REMARK  status: ('A' for Active; 'I' for Inactive)
REMARK    1  A    between atoms: C_1  and  C_2
REMARK    2  A    between atoms: C_4  and  C_35
REMARK    3  A    between atoms: N_5  and  C_7
REMARK    4  A    between atoms: C_7  and  C_8
REMARK    5  A    between atoms: C_8  and  N_9
REMARK    6  A    between atoms: C_10  and  C_12
REMARK    7  A    between atoms: C_23  and  C_25
REMARK    8  A    between atoms: C_27  and  C_34
REMARK    9  A    between atoms: N_29  and  C_30
REMARK   10  A    between atoms: C_30  and  C_31
REMARK   11  A    between atoms: C_30  and  C_32
REMARK   12  A    between atoms: C_30  and  C_33
REMARK                            x       y       z     vdW  Elec       q    Type
REMARK                         _______ _______ _______ _____ _____    ______ ____
ROOT
ATOM      1  C   UNL     1       2.769  -7.022   3.858  0.00  0.00    +0.100 C 
ATOM      2  C   UNL     1       1.899  -6.585   5.058  0.00  0.00    +0.121 C 
ATOM      3  N   UNL     1       2.592  -7.138   6.245  0.00  0.00    -0.295 N 
ATOM      4  C   UNL     1       4.033  -6.944   5.954  0.00  0.00    +0.115 C 
ATOM      5  C   UNL     1       4.169  -7.257   4.450  0.00  0.00    -0.004 C 
ATOM      6  C   UNL     1       4.591  -8.709   4.249  0.00  0.00    -0.010 C 
ATOM      7  C   UNL     1       6.008  -8.904   4.795  0.00  0.00    -0.082 C 
ATOM      8  N   UNL     1       6.932  -8.003   4.095  0.00  0.00    +0.379 N 
ATOM      9  C   UNL     1       6.574  -6.606   4.369  0.00  0.00    -0.082 C 
ATOM     10  C   UNL     1       5.181  -6.314   3.806  0.00  0.00    -0.010 C 
ATOM     11  C   UNL     1       2.038  -7.693   7.341  0.00  0.00    +0.265 C 
ATOM     12  O   UNL     1       2.748  -8.113   8.235  0.00  0.00    -0.268 OA
ATOM     13  H   UNL     1       7.874  -8.176   4.413  0.00  0.00    -0.086 HD
ATOM     14  H   UNL     1       6.879  -8.174   3.102  0.00  0.00    -0.086 HD
ENDROOT
BRANCH  11  15
ATOM     15  C   UNL     1       0.575  -7.789   7.457  0.00  0.00    +0.124 A 
ATOM     16  C   UNL     1      -0.365  -7.179   6.644  0.00  0.00    +0.057 A 
ATOM     17  C   UNL     1      -1.605  -7.572   7.153  0.00  0.00    +0.061 A 
ATOM     18  N   UNL     1      -1.388  -8.350   8.183  0.00  0.00    -0.175 NA
ATOM     19  N   UNL     1      -0.129  -8.503   8.385  0.00  0.00    -0.254 N 
ATOM     20  C   UNL     1      -2.953  -7.170   6.613  0.00  0.00    +0.067 C 
BRANCH  19  21
ATOM     21  C   UNL     1       0.462  -9.316   9.451  0.00  0.00    +0.056 C 
ATOM     22  C   UNL     1       1.242  -8.413  10.409  0.00  0.00    +0.036 C 
ATOM     23  C   UNL     1      -0.648 -10.036  10.219  0.00  0.00    +0.036 C 
ATOM     24  C   UNL     1       1.411 -10.348   8.838  0.00  0.00    +0.036 C 
ENDBRANCH  19  21
ENDBRANCH  11  15
BRANCH   1  26
ATOM     25  N   UNL     1       2.952  -6.249   1.515  0.00  0.00    -0.313 N 
ATOM     26  C   UNL     1       2.815  -5.932   2.818  0.00  0.00    +0.218 C 
ATOM     27  O   UNL     1       2.729  -4.770   3.154  0.00  0.00    -0.275 OA
ATOM     28  H   UNL     1       3.093  -7.172   1.253  0.00  0.00    +0.149 HD
BRANCH  25  29
ATOM     29  C   UNL     1       2.886  -5.200   0.495  0.00  0.00    +0.127 C 
BRANCH  29  30
ATOM     30  C   UNL     1       3.070  -5.823  -0.890  0.00  0.00    +0.162 C 
BRANCH  30  35
ATOM     31  C   UNL     1       1.252  -2.633  -4.313  0.00  0.00    +0.067 C 
ATOM     32  C   UNL     1       2.188  -3.387  -3.403  0.00  0.00    +0.060 A 
ATOM     33  C   UNL     1       3.571  -3.197  -3.309  0.00  0.00    +0.047 A 
ATOM     34  C   UNL     1       4.048  -4.061  -2.384  0.00  0.00    +0.036 A 
ATOM     35  N   UNL     1       3.004  -4.773  -1.910  0.00  0.00    -0.267 N 
ATOM     36  N   UNL     1       1.847  -4.328  -2.561  0.00  0.00    -0.176 NA
ATOM     37  C   UNL     1       5.487  -4.204  -1.960  0.00  0.00    +0.065 C 
ENDBRANCH  30  35
ENDBRANCH  29  30
ENDBRANCH  25  29
ENDBRANCH   1  26
TORSDOF 6
