REMARK  Name = ZINC39699249
REMARK  9 active torsions:
REMARK  status: ('A' for Active; 'I' for Inactive)
REMARK    1  A    between atoms: C_1  and  C_2
REMARK    2  A    between atoms: C_7  and  C_14
REMARK    3  A    between atoms: C_14  and  C_16
REMARK    4  A    between atoms: C_14  and  N_28
REMARK    5  A    between atoms: N_21  and  C_22
REMARK    6  A    between atoms: N_28  and  C_29
REMARK    7  A    between atoms: N_28  and  C_36
REMARK    8  A    between atoms: C_29  and  C_30
REMARK    9  A    between atoms: C_36  and  C_37
REMARK                            x       y       z     vdW  Elec       q    Type
REMARK                         _______ _______ _______ _____ _____    ______ ____
ROOT
ATOM      1  C   UNL     1       1.945  -5.743   1.983  0.00  0.00    -0.008 C 
ENDROOT
BRANCH   1   8
ATOM      2  C   UNL     1       3.249   1.503   0.571  0.00  0.00    +0.044 C 
ATOM      3  C   UNL     1       2.737   0.086   0.586  0.00  0.00    -0.049 A 
ATOM      4  C   UNL     1       2.509  -0.556  -0.631  0.00  0.00    +0.004 A 
ATOM      5  C   UNL     1       2.048  -1.833  -0.682  0.00  0.00    +0.010 A 
ATOM      6  C   UNL     1       1.790  -2.540   0.573  0.00  0.00    -0.007 A 
ATOM      7  C   UNL     1       1.327  -3.823   0.571  0.00  0.00    -0.006 C 
ATOM      8  C   UNL     1       1.088  -4.477   1.917  0.00  0.00    +0.088 C 
ATOM      9  C   UNL     1       1.381  -3.655   3.152  0.00  0.00    +0.223 C 
ATOM     10  O   UNL     1       1.207  -4.131   4.258  0.00  0.00    -0.275 OA
ATOM     11  N   UNL     1       1.828  -2.417   3.025  0.00  0.00    -0.285 N 
ATOM     12  C   UNL     1       2.040  -1.837   1.844  0.00  0.00    +0.041 A 
ATOM     13  C   UNL     1       2.522  -0.517   1.785  0.00  0.00    +0.027 A 
ATOM     14  H   UNL     1       2.010  -1.907   3.829  0.00  0.00    +0.155 HD
ENDBRANCH   1   8
BRANCH   1  15
ATOM     15  C   UNL     1       1.494  -6.720   0.895  0.00  0.00    +0.205 C 
ATOM     16  N   UNL     1       2.317  -7.937   0.926  0.00  0.00    -0.152 NA
ATOM     17  N   UNL     1       2.905  -8.049  -0.152  0.00  0.00    -0.070 NA
ATOM     18  N   UNL     1       2.612  -7.014  -1.039  0.00  0.00    -0.179 N 
ATOM     19  N   UNL     1       1.731  -6.145  -0.446  0.00  0.00    -0.185 NA
ATOM     20  H   UNL     1       2.974  -6.923  -1.935  0.00  0.00    +0.191 HD
BRANCH  19  21
ATOM     21  C   UNL     1       0.479  -6.058  -1.210  0.00  0.00    +0.080 C 
ATOM     22  C   UNL     1      -0.116  -7.457  -1.375  0.00  0.00    +0.021 C 
ATOM     23  C   UNL     1      -1.419  -7.367  -2.171  0.00  0.00    +0.002 C 
ATOM     24  C   UNL     1      -1.135  -6.767  -3.549  0.00  0.00    +0.000 C 
ATOM     25  C   UNL     1      -0.540  -5.368  -3.384  0.00  0.00    +0.002 C 
ATOM     26  C   UNL     1       0.764  -5.458  -2.588  0.00  0.00    +0.021 C 
ENDBRANCH  19  21
ENDBRANCH   1  15
BRANCH   1  27
ATOM     27  N   UNL     1       1.789  -6.372   3.301  0.00  0.00    +0.392 N 
ATOM     28  H   UNL     1       1.819  -5.663   4.018  0.00  0.00    -0.080 HD
BRANCH  27  29
ATOM     29  C   UNL     1       2.879  -7.333   3.517  0.00  0.00    -0.040 C 
BRANCH  29  30
ATOM     30  C   UNL     1       4.190  -6.596   3.597  0.00  0.00    -0.046 A 
ATOM     31  C   UNL     1       4.929  -6.350   2.450  0.00  0.00    +0.005 A 
ATOM     32  C   UNL     1       6.130  -5.668   2.571  0.00  0.00    +0.020 A 
ATOM     33  C   UNL     1       6.548  -5.258   3.824  0.00  0.00    +0.111 A 
ATOM     34  N   UNL     1       5.819  -5.510   4.893  0.00  0.00    -0.263 NA
ATOM     35  C   UNL     1       4.669  -6.151   4.814  0.00  0.00    +0.112 A 
ENDBRANCH  29  30
ENDBRANCH  27  29
BRANCH  27  36
ATOM     36  C   UNL     1       0.499  -7.073   3.360  0.00  0.00    -0.002 C 
BRANCH  36  37
ATOM     37  C   UNL     1      -0.621  -6.066   3.339  0.00  0.00    +0.089 A 
ATOM     38  C   UNL     1      -1.460  -5.842   2.311  0.00  0.00    +0.042 A 
ATOM     39  C   UNL     1      -2.347  -4.821   2.721  0.00  0.00    +0.041 A 
ATOM     40  C   UNL     1      -1.999  -4.482   3.975  0.00  0.00    +0.195 A 
ATOM     41  O   UNL     1      -0.956  -5.243   4.347  0.00  0.00    -0.470 OA
ENDBRANCH  36  37
ENDBRANCH  27  36
ENDBRANCH   1  27
TORSDOF 8
