REMARK  Name = ZINC56138608
REMARK  6 active torsions:
REMARK  status: ('A' for Active; 'I' for Inactive)
REMARK    1  A    between atoms: C_1  and  C_2
REMARK    2  A    between atoms: C_5  and  C_27
REMARK    3  A    between atoms: N_8  and  S_10
REMARK    4  A    between atoms: S_10  and  N_13
REMARK    5  A    between atoms: C_21  and  N_22
REMARK    6  A    between atoms: C_23  and  C_25
REMARK                            x       y       z     vdW  Elec       q    Type
REMARK                         _______ _______ _______ _____ _____    ______ ____
ROOT
ATOM      1  N   UNL     1       2.558  -3.021  -0.144  0.00  0.00    -0.162 NA
ATOM      2  C   UNL     1       2.044  -4.092  -1.014  0.00  0.00    +0.115 C 
ATOM      3  C   UNL     1       1.348  -3.435  -2.206  0.00  0.00    +0.054 C 
ATOM      4  C   UNL     1       2.208  -2.348  -2.796  0.00  0.00    -0.020 A 
ATOM      5  C   UNL     1       3.231  -1.744  -2.102  0.00  0.00    -0.027 A 
ATOM      6  C   UNL     1       3.974  -0.737  -2.702  0.00  0.00    +0.005 A 
ATOM      7  C   UNL     1       3.704  -0.339  -3.996  0.00  0.00    +0.002 A 
ATOM      8  C   UNL     1       2.686  -0.946  -4.703  0.00  0.00    +0.023 A 
ATOM      9  C   UNL     1       1.937  -1.948  -4.106  0.00  0.00    +0.037 A 
ATOM     10  C   UNL     1       3.594  -2.142  -0.697  0.00  0.00    +0.146 C 
ENDROOT
BRANCH   9  11
ATOM     11  N   UNL     1       0.903  -2.564  -4.820  0.00  0.00    -0.285 N 
ATOM     12  C   UNL     1       0.933  -2.581  -6.168  0.00  0.00    +0.214 C 
ATOM     13  O   UNL     1       1.903  -2.154  -6.758  0.00  0.00    -0.276 OA
ATOM     14  C   UNL     1      -0.237  -3.132  -6.940  0.00  0.00    +0.109 C 
ATOM     15  H   UNL     1       0.165  -2.978  -4.346  0.00  0.00    +0.155 HD
ENDBRANCH   9  11
BRANCH   1  16
ATOM     16  S   UNL     1       1.985  -2.814   1.396  0.00  0.00    +0.100 S 
ATOM     17  O   UNL     1       2.950  -2.032   2.086  0.00  0.00    -0.141 OA
ATOM     18  O   UNL     1       1.575  -4.096   1.853  0.00  0.00    -0.141 OA
BRANCH  16  24
ATOM     19  C   UNL     1      -3.014  -2.464   2.201  0.00  0.00    +0.009 C 
ATOM     20  C   UNL     1      -1.591  -1.919   2.331  0.00  0.00    +0.002 C 
ATOM     21  C   UNL     1      -1.612  -0.395   2.186  0.00  0.00    +0.009 C 
ATOM     22  C   UNL     1      -0.193   0.154   2.348  0.00  0.00    +0.002 C 
ATOM     23  C   UNL     1       0.703  -0.423   1.248  0.00  0.00    +0.113 C 
ATOM     24  N   UNL     1       0.615  -1.889   1.288  0.00  0.00    -0.166 NA
ATOM     25  C   UNL     1      -0.710  -2.520   1.231  0.00  0.00    +0.113 C 
ATOM     26  C   UNL     1       0.356  -0.247   3.719  0.00  0.00    +0.009 C 
ENDBRANCH  16  24
ENDBRANCH   1  16
TORSDOF 3
