REMARK  Name = ZINC20685973
REMARK  14 active torsions:
REMARK  status: ('A' for Active; 'I' for Inactive)
REMARK    1  A    between atoms: C_1  and  C_2
REMARK    2  A    between atoms: C_2  and  O_3
REMARK    3  A    between atoms: O_3  and  C_4
REMARK    4  A    between atoms: C_4  and  C_6
REMARK    5  A    between atoms: C_6  and  O_7
REMARK    6  A    between atoms: O_7  and  C_8
REMARK    7  A    between atoms: N_15  and  N_16
REMARK    8  A    between atoms: N_16  and  C_17
REMARK    9  A    between atoms: C_17  and  N_19
REMARK   10  A    between atoms: N_19  and  C_20
REMARK   11  A    between atoms: C_24  and  O_26
REMARK   12  A    between atoms: O_26  and  C_27
REMARK   13  A    between atoms: C_29  and  C_31
REMARK   14  A    between atoms: C_29  and  C_32
REMARK                            x       y       z     vdW  Elec       q    Type
REMARK                         _______ _______ _______ _____ _____    ______ ____
ROOT
ATOM      1  C   UNL     1       1.339   7.906  -0.875  0.00  0.00    +0.122 A 
ATOM      2  C   UNL     1       2.594   8.464  -1.083  0.00  0.00    +0.049 A 
ATOM      3  C   UNL     1       3.736   7.703  -0.924  0.00  0.00    +0.050 A 
ATOM      4  C   UNL     1       3.640   6.371  -0.552  0.00  0.00    +0.131 A 
ATOM      5  C   UNL     1       2.375   5.807  -0.344  0.00  0.00    +0.043 A 
ATOM      6  C   UNL     1       1.225   6.577  -0.504  0.00  0.00    +0.059 A 
ATOM      7  C   UNL     1       2.280   4.383   0.048  0.00  0.00    +0.074 C 
ATOM      8  N   UNL     1       1.150   3.744   0.036  0.00  0.00    -0.185 NA
ATOM      9  C   UNL     1       3.574   3.710   0.471  0.00  0.00    +0.110 C 
ATOM     10  C   UNL     1       4.673   4.210  -0.485  0.00  0.00    +0.140 C 
ATOM     11  O   UNL     1       4.765   5.631  -0.392  0.00  0.00    -0.480 OA
ATOM     12  C   UNL     1       4.325   3.814  -1.921  0.00  0.00    +0.061 C 
ENDROOT
BRANCH  10  13
ATOM     13  C   UNL     1       5.992   3.593  -0.099  0.00  0.00    +0.014 A 
ATOM     14  C   UNL     1       7.179   4.273  -0.328  0.00  0.00    +0.010 A 
ATOM     15  C   UNL     1       8.369   3.670   0.048  0.00  0.00    +0.020 A 
ATOM     16  C   UNL     1       8.334   2.414   0.625  0.00  0.00    +0.111 A 
ATOM     17  N   UNL     1       7.187   1.795   0.824  0.00  0.00    -0.263 NA
ATOM     18  C   UNL     1       6.036   2.341   0.484  0.00  0.00    +0.118 A 
ENDBRANCH  10  13
BRANCH   8  19
ATOM     19  N   UNL     1       1.103   2.396   0.415  0.00  0.00    -0.218 N 
ATOM     20  H   UNL     1       2.024   1.879   0.722  0.00  0.00    +0.176 HD
BRANCH  19  21
ATOM     21  C   UNL     1      -0.070   1.733   0.402  0.00  0.00    +0.154 C 
ATOM     22  S   UNL     1      -0.128   0.086   0.865  0.00  0.00    -0.017 S 
BRANCH  21  23
ATOM     23  N   UNL     1      -1.197   2.366   0.021  0.00  0.00    -0.296 N 
ATOM     24  H   UNL     1      -1.174   3.441  -0.209  0.00  0.00    +0.154 HD
BRANCH  23  25
ATOM     25  C   UNL     1      -2.397   1.655  -0.083  0.00  0.00    +0.036 A 
ATOM     26  C   UNL     1      -3.216   1.830  -1.192  0.00  0.00    +0.023 A 
ATOM     27  C   UNL     1      -4.399   1.124  -1.297  0.00  0.00    +0.005 A 
ATOM     28  C   UNL     1      -4.776   0.250  -0.294  0.00  0.00    +0.046 A 
ATOM     29  C   UNL     1      -3.965   0.075   0.818  0.00  0.00    +0.122 A 
ATOM     30  C   UNL     1      -2.774   0.777   0.924  0.00  0.00    +0.069 A 
BRANCH  29  31
ATOM     31  O   UNL     1      -4.337  -0.785   1.802  0.00  0.00    -0.495 OA
ATOM     32  C   UNL     1      -5.576  -1.475   1.627  0.00  0.00    +0.277 C 
ENDBRANCH  29  31
ENDBRANCH  23  25
ENDBRANCH  21  23
ENDBRANCH  19  21
ENDBRANCH   8  19
BRANCH   1  33
ATOM     33  O   UNL     1       0.222   8.666  -1.033  0.00  0.00    -0.481 OA
BRANCH  33  34
ATOM     34  C   UNL     1       0.414  10.029  -1.416  0.00  0.00    +0.349 C 
BRANCH  34  35
ATOM     35  C   UNL     1      -0.925  10.708  -1.543  0.00  0.00    +0.345 C 
ATOM     36  O   UNL     1      -1.940  10.088  -1.327  0.00  0.00    -0.247 OA
BRANCH  35  37
ATOM     37  O   UNL     1      -0.991  12.002  -1.895  0.00  0.00    -0.463 OA
BRANCH  37  39
ATOM     38  C   UNL     1      -2.189  14.060  -2.406  0.00  0.00    +0.048 C 
ATOM     39  C   UNL     1      -2.314  12.591  -1.998  0.00  0.00    +0.229 C 
ENDBRANCH  37  39
ENDBRANCH  35  37
ENDBRANCH  34  35
ENDBRANCH  33  34
ENDBRANCH   1  33
TORSDOF 11
