REMARK  Name = ZINC12139784
REMARK  7 active torsions:
REMARK  status: ('A' for Active; 'I' for Inactive)
REMARK    1  A    between atoms: C_1  and  C_2
REMARK    2  A    between atoms: N_7  and  S_9
REMARK    3  A    between atoms: S_9  and  C_12
REMARK    4  A    between atoms: C_18  and  C_24
REMARK    5  A    between atoms: N_26  and  C_27
REMARK    6  A    between atoms: C_27  and  C_28
REMARK    7  A    between atoms: C_28  and  C_29
REMARK                            x       y       z     vdW  Elec       q    Type
REMARK                         _______ _______ _______ _____ _____    ______ ____
ROOT
ATOM      1  C   UNL     1      -0.873   1.871   1.484  0.00  0.00    +0.106 A 
ATOM      2  C   UNL     1      -0.657   3.122   2.047  0.00  0.00    +0.030 A 
ATOM      3  C   UNL     1      -1.379   3.530   3.147  0.00  0.00    +0.028 A 
ATOM      4  C   UNL     1      -2.326   2.678   3.710  0.00  0.00    +0.050 A 
ATOM      5  C   UNL     1      -2.537   1.410   3.139  0.00  0.00    +0.012 A 
ATOM      6  C   UNL     1      -1.797   1.019   2.019  0.00  0.00    +0.039 A 
ATOM      7  C   UNL     1      -3.536   0.507   3.731  0.00  0.00    +0.051 A 
ATOM      8  C   UNL     1      -4.233   0.934   4.825  0.00  0.00    +0.083 A 
ATOM      9  C   UNL     1      -3.969   2.263   5.372  0.00  0.00    +0.250 A 
ATOM     10  O   UNL     1      -4.590   2.644   6.348  0.00  0.00    -0.268 OA
ATOM     11  N   UNL     1      -3.050   3.071   4.814  0.00  0.00    -0.322 N 
ATOM     12  H   UNL     1      -2.894   3.949   5.197  0.00  0.00    +0.169 HD
ENDROOT
BRANCH   7  13
ATOM     13  C   UNL     1      -3.780  -0.836   3.153  0.00  0.00    +0.245 C 
ATOM     14  O   UNL     1      -3.236  -1.160   2.116  0.00  0.00    -0.270 OA
ATOM     15  N   UNL     1      -4.606  -1.699   3.778  0.00  0.00    -0.311 N 
ATOM     16  H   UNL     1      -5.098  -1.416   4.565  0.00  0.00    +0.149 HD
BRANCH  15  17
ATOM     17  C   UNL     1      -4.762  -3.063   3.269  0.00  0.00    +0.109 C 
BRANCH  17  18
ATOM     18  C   UNL     1      -5.748  -3.829   4.154  0.00  0.00    +0.049 C 
BRANCH  18  19
ATOM     19  C   UNL     1      -5.909  -5.232   3.630  0.00  0.00    -0.072 C 
ATOM     20  C   UNL     1      -5.177  -6.163   4.153  0.00  0.00    -0.028 C 
ATOM     21  C   UNL     1      -5.217  -7.602   3.731  0.00  0.00    +0.027 C 
ATOM     22  C   UNL     1      -6.495  -7.883   2.937  0.00  0.00    +0.004 C 
ATOM     23  C   UNL     1      -6.638  -6.808   1.852  0.00  0.00    +0.005 C 
ATOM     24  C   UNL     1      -6.911  -5.466   2.538  0.00  0.00    +0.030 C 
ENDBRANCH  18  19
ENDBRANCH  17  18
ENDBRANCH  15  17
ENDBRANCH   7  13
BRANCH   1  25
ATOM     25  S   UNL     1       0.058   1.376   0.072  0.00  0.00    +0.061 S 
ATOM     26  O   UNL     1       0.065  -0.045   0.068  0.00  0.00    -0.153 OA
ATOM     27  O   UNL     1       1.253   2.144   0.084  0.00  0.00    -0.153 OA
BRANCH  25  33
ATOM     28  C   UNL     1      -4.123   0.823  -2.753  0.00  0.00    +0.009 C 
ATOM     29  C   UNL     1      -3.119   1.693  -1.995  0.00  0.00    +0.002 C 
ATOM     30  C   UNL     1      -2.905   3.005  -2.753  0.00  0.00    +0.006 C 
ATOM     31  C   UNL     1      -1.926   3.890  -1.979  0.00  0.00    +0.017 C 
ATOM     32  C   UNL     1      -0.577   3.173  -1.864  0.00  0.00    +0.109 C 
ATOM     33  N   UNL     1      -0.795   1.849  -1.267  0.00  0.00    -0.176 NA
ATOM     34  C   UNL     1      -1.779   0.949  -1.884  0.00  0.00    +0.112 C 
ENDBRANCH  25  33
ENDBRANCH   1  25
TORSDOF 6
