REMARK  Name = ZINC38784408
REMARK  7 active torsions:
REMARK  status: ('A' for Active; 'I' for Inactive)
REMARK    1  A    between atoms: C_4  and  C_7
REMARK    2  A    between atoms: C_7  and  C_8
REMARK    3  A    between atoms: C_8  and  N_9
REMARK    4  A    between atoms: C_10  and  N_18
REMARK    5  A    between atoms: C_19  and  C_21
REMARK    6  A    between atoms: C_21  and  S_22
REMARK    7  A    between atoms: S_22  and  C_23
REMARK                            x       y       z     vdW  Elec       q    Type
REMARK                         _______ _______ _______ _____ _____    ______ ____
ROOT
ATOM      1  N   UNL     1       5.613  -3.642   2.737  0.00  0.00    -0.296 N 
ATOM      2  C   UNL     1       4.554  -4.163   3.388  0.00  0.00    +0.225 C 
ATOM      3  O   UNL     1       3.473  -4.219   2.841  0.00  0.00    -0.275 OA
ATOM      4  H   UNL     1       6.478  -3.598   3.174  0.00  0.00    +0.151 HD
ENDROOT
BRANCH   1   6
ATOM      5  N   UNL     1       5.450  -1.678   1.382  0.00  0.00    -0.266 N 
ATOM      6  C   UNL     1       5.458  -3.142   1.369  0.00  0.00    +0.173 C 
ATOM      7  C   UNL     1       6.622  -3.640   0.509  0.00  0.00    +0.138 C 
ATOM      8  C   UNL     1       7.872  -2.881   0.881  0.00  0.00    +0.224 C 
ATOM      9  O   UNL     1       8.950  -3.434   0.847  0.00  0.00    -0.275 OA
ATOM     10  N   UNL     1       7.789  -1.590   1.249  0.00  0.00    -0.240 N 
ATOM     11  C   UNL     1       6.598  -0.982   1.373  0.00  0.00    +0.310 C 
ATOM     12  O   UNL     1       6.559   0.228   1.485  0.00  0.00    -0.252 OA
ATOM     13  H   UNL     1       8.602  -1.090   1.424  0.00  0.00    +0.159 HD
BRANCH   5  14
ATOM     14  C   UNL     1       4.171  -0.963   1.399  0.00  0.00    +0.116 C 
BRANCH  14  15
ATOM     15  C   UNL     1       3.711  -0.707  -0.038  0.00  0.00    +0.054 C 
BRANCH  15  19
ATOM     16  C   UNL     1      -0.017   1.378   0.010  0.00  0.00    +0.000 A 
ATOM     17  C   UNL     1       1.171   2.086   0.002  0.00  0.00    +0.000 A 
ATOM     18  C   UNL     1       2.377   1.411  -0.013  0.00  0.00    +0.004 A 
ATOM     19  C   UNL     1       2.396   0.029  -0.020  0.00  0.00    -0.046 A 
ATOM     20  C   UNL     1       1.208  -0.679  -0.012  0.00  0.00    +0.004 A 
ATOM     21  C   UNL     1       0.002  -0.004   0.002  0.00  0.00    +0.000 A 
ENDBRANCH  15  19
ENDBRANCH  14  15
ENDBRANCH   5  14
ENDBRANCH   1   6
BRANCH   2  22
ATOM     22  C   UNL     1       4.714  -4.678   4.795  0.00  0.00    +0.173 C 
BRANCH  22  23
ATOM     23  S   UNL     1       3.122  -5.311   5.392  0.00  0.00    -0.075 S 
BRANCH  23  24
ATOM     24  C   UNL     1       3.470  -5.867   7.027  0.00  0.00    +0.208 C 
ATOM     25  N   UNL     1       4.694  -5.733   7.478  0.00  0.00    -0.227 NA
ATOM     26  C   UNL     1       4.956  -6.123   8.861  0.00  0.00    +0.252 C 
ATOM     27  C   UNL     1       3.947  -7.212   9.197  0.00  0.00    +0.117 C 
ATOM     28  C   UNL     1       4.671  -8.221   9.757  0.00  0.00    +0.025 A 
ATOM     29  C   UNL     1       4.289  -9.443  10.364  0.00  0.00    +0.012 A 
ATOM     30  C   UNL     1       5.282 -10.253  10.819  0.00  0.00    +0.001 A 
ATOM     31  C   UNL     1       6.645  -9.955  10.725  0.00  0.00    +0.002 A 
ATOM     32  C   UNL     1       7.125  -8.810  10.170  0.00  0.00    +0.026 A 
ATOM     33  C   UNL     1       6.120  -7.866   9.654  0.00  0.00    +0.046 A 
ATOM     34  N   UNL     1       6.271  -6.704   9.097  0.00  0.00    -0.358 N 
ATOM     35  N   UNL     1       2.670  -7.114   8.816  0.00  0.00    -0.147 NA
ATOM     36  N   UNL     1       2.456  -6.405   7.749  0.00  0.00    -0.122 NA
ATOM     37  H   UNL     1       7.119  -6.290   8.873  0.00  0.00    +0.162 HD
ENDBRANCH  23  24
ENDBRANCH  22  23
ENDBRANCH   2  22
TORSDOF 7
