REMARK  Name = ZINC00737814
REMARK  9 active torsions:
REMARK  status: ('A' for Active; 'I' for Inactive)
REMARK    1  A    between atoms: C_1  and  O_2
REMARK    2  A    between atoms: O_2  and  C_3
REMARK    3  A    between atoms: C_6  and  C_9
REMARK    4  A    between atoms: C_12  and  S_15
REMARK    5  A    between atoms: S_15  and  C_16
REMARK    6  A    between atoms: C_16  and  C_17
REMARK    7  A    between atoms: C_21  and  C_23
REMARK    8  A    between atoms: N_25  and  C_26
REMARK    9  A    between atoms: C_26  and  C_27
REMARK                            x       y       z     vdW  Elec       q    Type
REMARK                         _______ _______ _______ _____ _____    ______ ____
ROOT
ATOM      1  C   UNL     1       5.049  -2.803  -8.848  0.00  0.00    +0.111 C 
ENDROOT
BRANCH   1   2
ATOM      2  C   UNL     1       5.765  -3.236 -10.101  0.00  0.00    -0.036 A 
ATOM      3  C   UNL     1       7.133  -3.438 -10.080  0.00  0.00    +0.004 A 
ATOM      4  C   UNL     1       7.798  -3.837 -11.227  0.00  0.00    +0.001 A 
ATOM      5  C   UNL     1       7.098  -4.034 -12.400  0.00  0.00    +0.013 A 
ATOM      6  C   UNL     1       5.718  -3.831 -12.428  0.00  0.00    +0.037 A 
ATOM      7  C   UNL     1       5.053  -3.435 -11.266  0.00  0.00    +0.017 A 
BRANCH   6   8
ATOM      8  C   UNL     1       4.962  -4.040 -13.681  0.00  0.00    +0.244 C 
ATOM      9  O   UNL     1       3.760  -3.863 -13.703  0.00  0.00    -0.270 OA
ATOM     10  N   UNL     1       5.606  -4.427 -14.800  0.00  0.00    -0.304 N 
ATOM     11  H   UNL     1       6.566  -4.569 -14.783  0.00  0.00    +0.149 HD
BRANCH  10  12
ATOM     12  C   UNL     1       4.857  -4.634 -16.042  0.00  0.00    +0.179 C 
BRANCH  12  13
ATOM     13  C   UNL     1       5.804  -5.060 -17.134  0.00  0.00    +0.122 A 
ATOM     14  C   UNL     1       6.135  -6.328 -17.438  0.00  0.00    +0.046 A 
ATOM     15  C   UNL     1       7.044  -6.266 -18.519  0.00  0.00    +0.041 A 
ATOM     16  C   UNL     1       7.214  -4.964 -18.812  0.00  0.00    +0.195 A 
ATOM     17  O   UNL     1       6.456  -4.239 -17.973  0.00  0.00    -0.466 OA
ENDBRANCH  12  13
ENDBRANCH  10  12
ENDBRANCH   6   8
ENDBRANCH   1   2
BRANCH   1  18
ATOM     18  S   UNL     1       4.521  -4.267  -7.917  0.00  0.00    -0.099 S 
BRANCH  18  22
ATOM     19  C   UNL     1       2.495  -2.494  -4.365  0.00  0.00    +0.093 A 
ATOM     20  C   UNL     1       2.541  -3.891  -4.444  0.00  0.00    +0.033 A 
ATOM     21  C   UNL     1       3.166  -4.458  -5.540  0.00  0.00    +0.039 A 
ATOM     22  C   UNL     1       3.712  -3.602  -6.499  0.00  0.00    +0.120 A 
ATOM     23  N   UNL     1       3.621  -2.289  -6.342  0.00  0.00    -0.142 NA
ATOM     24  N   UNL     1       3.037  -1.761  -5.329  0.00  0.00    -0.148 NA
BRANCH  19  28
ATOM     25  C   UNL     1       0.606  -0.607  -1.055  0.00  0.00    +0.120 A 
ATOM     26  C   UNL     1       1.173   0.164  -2.062  0.00  0.00    +0.046 A 
ATOM     27  C   UNL     1       1.786  -0.445  -3.136  0.00  0.00    +0.013 A 
ATOM     28  C   UNL     1       1.837  -1.836  -3.211  0.00  0.00    +0.002 A 
ATOM     29  C   UNL     1       1.267  -2.607  -2.199  0.00  0.00    +0.013 A 
ATOM     30  C   UNL     1       0.659  -1.993  -1.125  0.00  0.00    +0.046 A 
BRANCH  25  32
ATOM     31  C   UNL     1      -0.017   1.425   0.010  0.00  0.00    +0.277 C 
ATOM     32  O   UNL     1       0.002  -0.004   0.002  0.00  0.00    -0.495 OA
ENDBRANCH  25  32
ENDBRANCH  19  28
ENDBRANCH  18  22
ENDBRANCH   1  18
TORSDOF 8
