REMARK  Name = ZINC11662406
REMARK  7 active torsions:
REMARK  status: ('A' for Active; 'I' for Inactive)
REMARK    1  A    between atoms: C_1  and  C_2
REMARK    2  A    between atoms: C_2  and  C_3
REMARK    3  A    between atoms: C_2  and  C_4
REMARK    4  A    between atoms: C_2  and  N_14
REMARK    5  A    between atoms: C_15  and  C_17
REMARK    6  A    between atoms: C_17  and  C_18
REMARK    7  A    between atoms: C_25  and  N_58
REMARK                            x       y       z     vdW  Elec       q    Type
REMARK                         _______ _______ _______ _____ _____    ______ ____
ROOT
ATOM      1  N   UNL     1      -0.774   4.086   1.062  0.00  0.00    -0.310 N 
ATOM      2  C   UNL     1      -1.327   4.575   2.188  0.00  0.00    +0.212 C 
ATOM      3  O   UNL     1      -1.591   3.830   3.108  0.00  0.00    -0.276 OA
ATOM      4  H   UNL     1      -0.562   4.682   0.326  0.00  0.00    +0.149 HD
ENDROOT
BRANCH   1   6
ATOM      5  C   UNL     1      -1.793   1.863   1.093  0.00  0.00    +0.032 C 
ATOM      6  C   UNL     1      -0.491   2.653   0.947  0.00  0.00    +0.035 C 
ATOM      7  C   UNL     1       0.484   2.236   2.050  0.00  0.00    +0.032 C 
BRANCH   6   8
ATOM      8  C   UNL     1       0.131   2.363  -0.420  0.00  0.00    -0.008 C 
ATOM      9  C   UNL     1       1.433   3.153  -0.566  0.00  0.00    +0.012 C 
ATOM     10  C   UNL     1       2.055   2.863  -1.934  0.00  0.00    -0.010 C 
ATOM     11  C   UNL     1       2.350   1.367  -2.053  0.00  0.00    +0.007 C 
ATOM     12  C   UNL     1       1.048   0.577  -1.908  0.00  0.00    -0.010 C 
ATOM     13  C   UNL     1       0.426   0.867  -0.540  0.00  0.00    +0.012 C 
ATOM     14  C   UNL     1       0.072   0.994  -3.010  0.00  0.00    +0.007 C 
ATOM     15  C   UNL     1      -0.223   2.491  -2.891  0.00  0.00    -0.010 C 
ATOM     16  C   UNL     1       1.079   3.280  -3.036  0.00  0.00    +0.007 C 
ATOM     17  C   UNL     1      -0.845   2.780  -1.523  0.00  0.00    +0.012 C 
ENDBRANCH   6   8
ENDBRANCH   1   6
BRANCH   2  18
ATOM     18  C   UNL     1      -1.618   6.049   2.306  0.00  0.00    +0.089 C 
BRANCH  18  19
ATOM     19  C   UNL     1      -2.309   6.328   3.642  0.00  0.00    +0.028 C 
ATOM     20  C   UNL     1      -3.623   5.599   3.685  0.00  0.00    +0.200 C 
ATOM     21  O   UNL     1      -4.324   5.607   2.696  0.00  0.00    -0.278 OA
ATOM     22  N   UNL     1      -4.051   4.943   4.769  0.00  0.00    -0.318 N 
ATOM     23  C   UNL     1      -3.268   4.843   5.997  0.00  0.00    +0.085 C 
ATOM     24  C   UNL     1      -2.182   5.921   6.016  0.00  0.00    -0.059 C 
ATOM     25  C   UNL     1      -0.218   6.675   4.812  0.00  0.00    -0.095 C 
ATOM     26  H   UNL     1      -4.921   4.514   4.737  0.00  0.00    +0.149 HD
ATOM     27  N   UNL     1      -1.446   5.850   4.738  0.00  0.00    +0.387 N 
ATOM     28  H   UNL     1      -1.182   4.875   4.557  0.00  0.00    -0.081 HD
ENDBRANCH  18  19
ENDBRANCH   2  18
TORSDOF 4
