REMARK  Name = ZINC13032793
REMARK  10 active torsions:
REMARK  status: ('A' for Active; 'I' for Inactive)
REMARK    1  A    between atoms: C_1  and  C_2
REMARK    2  A    between atoms: C_6  and  C_15
REMARK    3  A    between atoms: C_13  and  C_14
REMARK    4  A    between atoms: C_15  and  N_66
REMARK    5  A    between atoms: C_16  and  C_17
REMARK    6  A    between atoms: C_16  and  N_66
REMARK    7  A    between atoms: C_26  and  C_27
REMARK    8  A    between atoms: C_26  and  N_66
REMARK    9  A    between atoms: N_31  and  C_32
REMARK   10  A    between atoms: C_32  and  C_33
REMARK                            x       y       z     vdW  Elec       q    Type
REMARK                         _______ _______ _______ _____ _____    ______ ____
ROOT
ATOM      1  N   UNL     1      -0.902   1.591  -0.987  0.00  0.00    +0.390 N 
ATOM      2  H   UNL     1      -1.923   1.516  -0.907  0.00  0.00    -0.080 HD
ENDROOT
BRANCH   1   3
ATOM      3  C   UNL     1      -0.433   0.664  -2.038  0.00  0.00    -0.036 C 
BRANCH   3   9
ATOM      4  C   UNL     1      -6.082  -3.912  -3.706  0.00  0.00    +0.044 C 
ATOM      5  C   UNL     1      -4.810  -3.614  -2.955  0.00  0.00    -0.047 A 
ATOM      6  C   UNL     1      -4.186  -2.411  -3.130  0.00  0.00    +0.013 A 
ATOM      7  C   UNL     1      -3.005  -2.134  -2.433  0.00  0.00    -0.001 A 
ATOM      8  C   UNL     1      -2.314  -0.853  -2.592  0.00  0.00    +0.017 A 
ATOM      9  C   UNL     1      -1.171  -0.642  -1.894  0.00  0.00    +0.001 A 
ATOM     10  C   UNL     1      -0.674  -1.639  -1.028  0.00  0.00    +0.251 A 
ATOM     11  O   UNL     1       0.353  -1.427  -0.406  0.00  0.00    -0.268 OA
ATOM     12  N   UNL     1      -1.304  -2.817  -0.871  0.00  0.00    -0.322 N 
ATOM     13  H   UNL     1      -0.934  -3.480  -0.267  0.00  0.00    +0.169 HD
ATOM     14  C   UNL     1      -2.467  -3.095  -1.556  0.00  0.00    +0.049 A 
ATOM     15  C   UNL     1      -3.120  -4.312  -1.394  0.00  0.00    +0.030 A 
ATOM     16  C   UNL     1      -4.282  -4.563  -2.091  0.00  0.00    -0.046 A 
ATOM     17  C   UNL     1      -4.988  -5.883  -1.913  0.00  0.00    +0.044 C 
ENDBRANCH   3   9
ENDBRANCH   1   3
BRANCH   1  18
ATOM     18  C   UNL     1      -0.549   2.981  -1.346  0.00  0.00    -0.042 C 
BRANCH  18  19
ATOM     19  C   UNL     1      -1.464   3.443  -2.451  0.00  0.00    -0.060 A 
ATOM     20  C   UNL     1      -1.046   3.372  -3.767  0.00  0.00    +0.005 A 
ATOM     21  C   UNL     1      -1.884   3.789  -4.785  0.00  0.00    +0.050 A 
ATOM     22  C   UNL     1      -3.140   4.290  -4.487  0.00  0.00    +0.166 A 
ATOM     23  C   UNL     1      -3.559   4.367  -3.161  0.00  0.00    +0.166 A 
ATOM     24  C   UNL     1      -2.716   3.941  -2.147  0.00  0.00    +0.051 A 
ATOM     25  O   UNL     1      -4.820   4.889  -3.131  0.00  0.00    -0.453 OA
ATOM     26  C   UNL     1      -5.009   5.511  -4.416  0.00  0.00    +0.466 C 
ATOM     27  O   UNL     1      -4.139   4.765  -5.287  0.00  0.00    -0.453 OA
ENDBRANCH  18  19
ENDBRANCH   1  18
BRANCH   1  28
ATOM     28  C   UNL     1      -0.291   1.234   0.310  0.00  0.00    +0.001 C 
BRANCH  28  29
ATOM     29  C   UNL     1      -0.948   2.047   1.397  0.00  0.00    +0.135 A 
ATOM     30  N   UNL     1      -0.557   3.215   1.845  0.00  0.00    -0.115 NA
ATOM     31  N   UNL     1      -1.378   3.581   2.769  0.00  0.00    -0.023 NA
ATOM     32  N   UNL     1      -2.277   2.673   2.926  0.00  0.00    -0.044 NA
ATOM     33  N   UNL     1      -2.047   1.711   2.098  0.00  0.00    -0.227 N 
BRANCH  33  34
ATOM     34  C   UNL     1      -2.833   0.484   1.950  0.00  0.00    +0.182 C 
BRANCH  34  35
ATOM     35  C   UNL     1      -2.287  -0.577   2.870  0.00  0.00    -0.026 A 
ATOM     36  C   UNL     1      -1.300  -1.437   2.424  0.00  0.00    +0.008 A 
ATOM     37  C   UNL     1      -0.795  -2.407   3.268  0.00  0.00    +0.038 A 
ATOM     38  C   UNL     1      -1.284  -2.526   4.558  0.00  0.00    +0.123 A 
ATOM     39  C   UNL     1      -2.276  -1.667   5.001  0.00  0.00    +0.038 A 
ATOM     40  C   UNL     1      -2.776  -0.694   4.157  0.00  0.00    +0.008 A 
ATOM     41  F   UNL     1      -0.795  -3.477   5.382  0.00  0.00    -0.205 F 
ENDBRANCH  34  35
ENDBRANCH  33  34
ENDBRANCH  28  29
ENDBRANCH   1  28
TORSDOF 8
