REMARK  Name = ZINC39523723
REMARK  2 active torsions:
REMARK  status: ('A' for Active; 'I' for Inactive)
REMARK    1  A    between atoms: C_3  and  O_16
REMARK    2  A    between atoms: C_11  and  O_15
REMARK                            x       y       z     vdW  Elec       q    Type
REMARK                         _______ _______ _______ _____ _____    ______ ____
ROOT
ATOM      1  C   UNL     1      -0.019   1.526   0.010  0.00  0.00    +0.004 C 
ATOM      2  C   UNL     1       1.417   2.055  -0.000  0.00  0.00    +0.031 C 
ATOM      3  C   UNL     1       2.132   1.562  -1.260  0.00  0.00    +0.116 C 
ATOM      4  C   UNL     1       2.153   0.032  -1.269  0.00  0.00    +0.056 C 
ATOM      5  C   UNL     1       0.718  -0.498  -1.257  0.00  0.00    +0.057 C 
ATOM      6  C   UNL     1       0.002  -0.004   0.002  0.00  0.00    +0.025 C 
ATOM      7  C   UNL     1       0.740  -2.028  -1.261  0.00  0.00    +0.025 C 
ATOM      8  C   UNL     1       1.438  -2.521  -2.533  0.00  0.00    +0.006 C 
ATOM      9  C   UNL     1       0.705  -1.964  -3.756  0.00  0.00    +0.050 C 
ATOM     10  C   UNL     1       0.684  -0.435  -3.679  0.00  0.00    +0.215 C 
ATOM     11  N   UNL     1       0.006  -0.014  -2.447  0.00  0.00    -0.111 NA
ATOM     12  F   UNL     1      -1.233  -0.406  -2.440  0.00  0.00    -0.130 F 
ENDROOT
BRANCH  10  13
ATOM     13  O   UNL     1       2.025   0.059  -3.678  0.00  0.00    -0.375 OA
ATOM     14  H   UNL     1       2.534  -0.180  -4.464  0.00  0.00    +0.212 HD
ENDBRANCH  10  13
BRANCH   3  15
ATOM     15  O   UNL     1       3.473   2.057  -1.271  0.00  0.00    -0.392 OA
ATOM     16  H   UNL     1       3.536   3.022  -1.266  0.00  0.00    +0.210 HD
ENDBRANCH   3  15
TORSDOF 2
