REMARK  Name = ZINC33551463
REMARK  6 active torsions:
REMARK  status: ('A' for Active; 'I' for Inactive)
REMARK    1  A    between atoms: C_1  and  C_2
REMARK    2  A    between atoms: C_2  and  O_3
REMARK    3  A    between atoms: O_3  and  C_4
REMARK    4  A    between atoms: C_14  and  C_28
REMARK    5  A    between atoms: C_16  and  C_21
REMARK    6  A    between atoms: C_21  and  C_23
REMARK                            x       y       z     vdW  Elec       q    Type
REMARK                         _______ _______ _______ _____ _____    ______ ____
ROOT
ATOM      1  C   UNL     1      -3.811  12.068  -0.179  0.00  0.00    +0.122 A 
ATOM      2  C   UNL     1      -4.448  10.833  -0.087  0.00  0.00    +0.048 A 
ATOM      3  C   UNL     1      -3.744   9.670  -0.046  0.00  0.00    +0.032 A 
ATOM      4  C   UNL     1      -2.331   9.673  -0.094  0.00  0.00    +0.081 A 
ATOM      5  C   UNL     1      -1.711  10.941  -0.187  0.00  0.00    +0.044 A 
ATOM      6  C   UNL     1      -2.425  12.112  -0.229  0.00  0.00    +0.063 A 
ATOM      7  S   UNL     1       0.014  10.517  -0.223  0.00  0.00    -0.052 S 
ATOM      8  C   UNL     1      -0.188   8.744  -0.116  0.00  0.00    +0.169 A 
ATOM      9  N   UNL     1      -1.493   8.613  -0.070  0.00  0.00    -0.224 NA
ATOM     10  N   UNL     1       0.784   7.760  -0.094  0.00  0.00    -0.231 N 
ATOM     11  C   UNL     1       0.548   6.314  -0.005  0.00  0.00    +0.158 C 
ATOM     12  C   UNL     1       1.912   5.664  -0.016  0.00  0.00    +0.078 C 
ATOM     13  C   UNL     1       2.820   6.664  -0.099  0.00  0.00    +0.250 C 
ATOM     14  C   UNL     1       2.114   7.958  -0.152  0.00  0.00    +0.293 C 
ATOM     15  O   UNL     1       2.654   9.044  -0.232  0.00  0.00    -0.266 OA
ATOM     16  O   UNL     1       4.164   6.502  -0.130  0.00  0.00    -0.282 OA
ENDROOT
BRANCH  11  17
ATOM     17  C   UNL     1      -0.173   5.984   1.276  0.00  0.00    +0.015 A 
ATOM     18  C   UNL     1      -1.117   5.038   1.505  0.00  0.00    +0.013 A 
ATOM     19  C   UNL     1      -1.643   4.910   2.777  0.00  0.00    +0.008 A 
ATOM     20  C   UNL     1      -1.208   5.741   3.755  0.00  0.00    +0.045 A 
ATOM     21  S   UNL     1      -0.011   6.741   2.885  0.00  0.00    -0.099 S 
ENDBRANCH  11  17
BRANCH  12  22
ATOM     22  C   UNL     1       2.198   4.226   0.056  0.00  0.00    +0.202 C 
ATOM     23  O   UNL     1       2.762   3.765   1.032  0.00  0.00    -0.286 OA
BRANCH  22  24
ATOM     24  C   UNL     1       1.804   3.345  -1.047  0.00  0.00    +0.059 A 
ATOM     25  C   UNL     1       2.056   1.990  -1.218  0.00  0.00    +0.019 A 
ATOM     26  C   UNL     1       1.566   1.403  -2.356  0.00  0.00    +0.008 A 
ATOM     27  C   UNL     1       0.874   2.161  -3.249  0.00  0.00    +0.046 A 
ATOM     28  S   UNL     1       0.874   3.733  -2.519  0.00  0.00    -0.093 S 
ENDBRANCH  22  24
ENDBRANCH  12  22
BRANCH   1  29
ATOM     29  O   UNL     1      -4.538  13.216  -0.219  0.00  0.00    -0.492 OA
BRANCH  29  31
ATOM     30  C   UNL     1      -6.603  14.473  -0.220  0.00  0.00    +0.048 C 
ATOM     31  C   UNL     1      -5.960  13.085  -0.163  0.00  0.00    +0.225 C 
ENDBRANCH  29  31
ENDBRANCH   1  29
TORSDOF 5
