REMARK  Name = ZINC19209100
REMARK  7 active torsions:
REMARK  status: ('A' for Active; 'I' for Inactive)
REMARK    1  A    between atoms: C_1  and  C_2
REMARK    2  A    between atoms: C_5  and  C_8
REMARK    3  A    between atoms: N_16  and  C_19
REMARK    4  A    between atoms: C_26  and  C_28
REMARK    5  A    between atoms: C_26  and  C_29
REMARK    6  A    between atoms: C_29  and  O_31
REMARK    7  A    between atoms: O_31  and  C_32
REMARK                            x       y       z     vdW  Elec       q    Type
REMARK                         _______ _______ _______ _____ _____    ______ ____
ROOT
ATOM      1  C   UNL     1      -0.072  -3.927  -0.026  0.00  0.00    +0.097 C 
ATOM      2  C   UNL     1      -1.398  -4.643   0.306  0.00  0.00    +0.111 C 
ATOM      3  C   UNL     1      -0.973  -5.968   0.996  0.00  0.00    +0.120 C 
ATOM      4  C   UNL     1      -1.430  -7.031   0.022  0.00  0.00    +0.232 C 
ATOM      5  O   UNL     1      -1.293  -8.226   0.175  0.00  0.00    -0.274 OA
ATOM      6  N   UNL     1      -2.010  -6.447  -1.033  0.00  0.00    -0.210 N 
ATOM      7  C   UNL     1      -2.054  -5.095  -0.979  0.00  0.00    +0.232 C 
ATOM      8  O   UNL     1      -2.535  -4.362  -1.816  0.00  0.00    -0.274 OA
ATOM      9  C   UNL     1       0.568  -5.919   1.031  0.00  0.00    +0.127 C 
ATOM     10  N   UNL     1       0.911  -4.482   0.939  0.00  0.00    -0.294 NA
ATOM     11  C   UNL     1       1.091  -6.527   2.334  0.00  0.00    +0.040 C 
ATOM     12  H   UNL     1       1.856  -4.350   0.610  0.00  0.00    +0.124 HD
ENDROOT
BRANCH   1  17
ATOM     13  C   UNL     1      -0.626   1.776   0.720  0.00  0.00    +0.044 C 
ATOM     14  C   UNL     1      -0.482   0.289   0.525  0.00  0.00    -0.050 A 
ATOM     15  C   UNL     1      -0.526  -0.249  -0.747  0.00  0.00    +0.003 A 
ATOM     16  C   UNL     1      -0.393  -1.614  -0.925  0.00  0.00    +0.005 A 
ATOM     17  C   UNL     1      -0.216  -2.440   0.169  0.00  0.00    -0.030 A 
ATOM     18  C   UNL     1      -0.171  -1.901   1.441  0.00  0.00    +0.005 A 
ATOM     19  C   UNL     1      -0.299  -0.536   1.619  0.00  0.00    +0.003 A 
ENDBRANCH   1  17
BRANCH   6  20
ATOM     20  C   UNL     1      -2.537  -7.176  -2.109  0.00  0.00    +0.044 A 
ATOM     21  C   UNL     1      -1.940  -7.098  -3.360  0.00  0.00    +0.027 A 
ATOM     22  C   UNL     1      -2.460  -7.817  -4.418  0.00  0.00    +0.040 A 
ATOM     23  C   UNL     1      -3.576  -8.615  -4.232  0.00  0.00    +0.124 A 
ATOM     24  C   UNL     1      -4.172  -8.695  -2.985  0.00  0.00    +0.040 A 
ATOM     25  C   UNL     1      -3.652  -7.982  -1.923  0.00  0.00    +0.027 A 
ATOM     26  F   UNL     1      -4.083  -9.318  -5.269  0.00  0.00    -0.205 F 
ENDBRANCH   6  20
BRANCH   9  27
ATOM     27  C   UNL     1       1.144  -6.647  -0.157  0.00  0.00    +0.328 C 
ATOM     28  O   UNL     1       1.474  -7.804  -0.054  0.00  0.00    -0.249 OA
BRANCH  27  29
ATOM     29  O   UNL     1       1.289  -6.009  -1.329  0.00  0.00    -0.467 OA
ATOM     30  C   UNL     1       1.841  -6.760  -2.412  0.00  0.00    +0.280 C 
ENDBRANCH  27  29
ENDBRANCH   9  27
TORSDOF 4
