REMARK  Name = ZINC28849716
REMARK  6 active torsions:
REMARK  status: ('A' for Active; 'I' for Inactive)
REMARK    1  A    between atoms: C_1  and  C_2
REMARK    2  A    between atoms: C_2  and  C_4
REMARK    3  A    between atoms: C_2  and  S_16
REMARK    4  A    between atoms: N_9  and  C_10
REMARK    5  A    between atoms: S_16  and  C_17
REMARK    6  A    between atoms: N_22  and  C_23
REMARK                            x       y       z     vdW  Elec       q    Type
REMARK                         _______ _______ _______ _____ _____    ______ ____
ROOT
ATOM      1  C   UNL     1      -0.019   1.526   0.010  0.00  0.00    +0.029 C 
ATOM      2  C   UNL     1       0.002  -0.004   0.002  0.00  0.00    +0.136 C 
ENDROOT
BRANCH   2   3
ATOM      3  C   UNL     1       0.707  -0.490  -1.238  0.00  0.00    +0.233 C 
ATOM      4  O   UNL     1       1.864  -0.849  -1.176  0.00  0.00    -0.274 OA
ATOM      5  N   UNL     1       0.053  -0.526  -2.415  0.00  0.00    -0.239 N 
ATOM      6  C   UNL     1       0.683  -0.961  -3.524  0.00  0.00    +0.306 C 
ATOM      7  O   UNL     1       1.843  -1.320  -3.462  0.00  0.00    -0.252 OA
ATOM      8  N   UNL     1       0.029  -0.997  -4.702  0.00  0.00    -0.296 N 
ATOM      9  H   UNL     1      -0.873  -0.239  -2.465  0.00  0.00    +0.159 HD
ATOM     10  H   UNL     1      -0.896  -0.710  -4.751  0.00  0.00    +0.151 HD
BRANCH   8  11
ATOM     11  C   UNL     1       0.715  -1.469  -5.907  0.00  0.00    +0.074 C 
ATOM     12  C   UNL     1       1.489  -0.311  -6.540  0.00  0.00    +0.022 C 
ATOM     13  C   UNL     1       2.205  -0.805  -7.799  0.00  0.00    +0.002 C 
ATOM     14  C   UNL     1       1.174  -1.335  -8.797  0.00  0.00    +0.000 C 
ATOM     15  C   UNL     1       0.400  -2.493  -8.164  0.00  0.00    +0.002 C 
ATOM     16  C   UNL     1      -0.316  -2.000  -6.905  0.00  0.00    +0.022 C 
ENDBRANCH   8  11
ENDBRANCH   2   3
BRANCH   2  17
ATOM     17  S   UNL     1       0.879  -0.605   1.472  0.00  0.00    -0.084 S 
BRANCH  17  18
ATOM     18  C   UNL     1      -0.136  -0.087   2.816  0.00  0.00    +0.161 A 
ATOM     19  N   UNL     1      -1.275   0.577   2.795  0.00  0.00    -0.133 NA
ATOM     20  N   UNL     1      -1.911   0.882   3.976  0.00  0.00    -0.125 NA
ATOM     21  C   UNL     1      -1.378   0.510   5.123  0.00  0.00    +0.183 A 
ATOM     22  S   UNL     1       0.100  -0.327   4.570  0.00  0.00    -0.025 S 
ATOM     23  N   UNL     1      -1.844   0.711   6.418  0.00  0.00    -0.319 N 
ATOM     24  H   UNL     1      -1.337   0.376   7.173  0.00  0.00    +0.148 HD
BRANCH  23  25
ATOM     25  C   UNL     1      -3.101   1.430   6.640  0.00  0.00    +0.072 C 
ATOM     26  C   UNL     1      -2.831   2.936   6.660  0.00  0.00    +0.022 C 
ATOM     27  C   UNL     1      -4.144   3.686   6.892  0.00  0.00    +0.002 C 
ATOM     28  C   UNL     1      -4.746   3.258   8.232  0.00  0.00    +0.000 C 
ATOM     29  C   UNL     1      -5.016   1.752   8.212  0.00  0.00    +0.002 C 
ATOM     30  C   UNL     1      -3.703   1.002   7.980  0.00  0.00    +0.022 C 
ENDBRANCH  23  25
ENDBRANCH  17  18
ENDBRANCH   2  17
TORSDOF 5
