REMARK  Name = ZINC35810554
REMARK  7 active torsions:
REMARK  status: ('A' for Active; 'I' for Inactive)
REMARK    1  A    between atoms: C_4  and  N_17
REMARK    2  A    between atoms: C_5  and  C_7
REMARK    3  A    between atoms: N_9  and  C_10
REMARK    4  A    between atoms: C_10  and  C_11
REMARK    5  A    between atoms: C_20  and  N_23
REMARK    6  A    between atoms: C_24  and  C_26
REMARK    7  A    between atoms: C_29  and  N_32
REMARK                            x       y       z     vdW  Elec       q    Type
REMARK                         _______ _______ _______ _____ _____    ______ ____
ROOT
ATOM      1  N   UNL     1       3.642  -0.620  -0.038  0.00  0.00    -0.329 N 
ATOM      2  C   UNL     1       4.289  -0.965  -1.311  0.00  0.00    +0.107 C 
ATOM      3  C   UNL     1       5.718  -0.414  -1.303  0.00  0.00    +0.041 C 
ATOM      4  C   UNL     1       6.453  -0.931  -0.064  0.00  0.00    +0.076 C 
ATOM      5  C   UNL     1       5.739  -0.439   1.197  0.00  0.00    +0.041 C 
ATOM      6  C   UNL     1       4.312  -0.985   1.217  0.00  0.00    +0.107 C 
ENDROOT
BRANCH   1  10
ATOM      7  C   UNL     1      -0.017   1.373   0.010  0.00  0.00    +0.001 A 
ATOM      8  C   UNL     1       1.170   2.090   0.002  0.00  0.00    +0.002 A 
ATOM      9  C   UNL     1       2.383   1.433  -0.013  0.00  0.00    +0.024 A 
ATOM     10  C   UNL     1       2.422   0.044  -0.022  0.00  0.00    +0.042 A 
ATOM     11  C   UNL     1       1.222  -0.685  -0.014  0.00  0.00    +0.058 A 
ATOM     12  C   UNL     1       0.002  -0.004   0.002  0.00  0.00    +0.015 A 
BRANCH  11  13
ATOM     13  C   UNL     1       1.250  -2.159  -0.023  0.00  0.00    +0.246 C 
ATOM     14  O   UNL     1       2.314  -2.747  -0.037  0.00  0.00    -0.270 OA
ATOM     15  N   UNL     1       0.095  -2.854  -0.015  0.00  0.00    -0.309 N 
ATOM     16  H   UNL     1      -0.754  -2.385  -0.003  0.00  0.00    +0.149 HD
BRANCH  15  17
ATOM     17  C   UNL     1       0.122  -4.319  -0.024  0.00  0.00    +0.136 C 
BRANCH  17  18
ATOM     18  C   UNL     1      -1.311  -4.855  -0.013  0.00  0.00    +0.135 C 
ATOM     19  C   UNL     1      -1.304  -6.405   0.013  0.00  0.00    +0.035 C 
ATOM     20  C   UNL     1      -2.688  -6.694   0.657  0.00  0.00    +0.031 C 
ATOM     21  C   UNL     1      -2.846  -5.514   1.640  0.00  0.00    +0.160 C 
ATOM     22  O   UNL     1      -1.981  -4.461   1.195  0.00  0.00    -0.375 OA
ENDBRANCH  17  18
ENDBRANCH  15  17
ENDBRANCH  11  13
ENDBRANCH   1  10
BRANCH   4  23
ATOM     23  N   UNL     1       7.830  -0.432  -0.071  0.00  0.00    -0.308 N 
ATOM     24  C   UNL     1       8.795  -1.108   0.585  0.00  0.00    +0.244 C 
ATOM     25  O   UNL     1       8.521  -2.131   1.181  0.00  0.00    -0.270 OA
ATOM     26  H   UNL     1       8.049   0.384  -0.547  0.00  0.00    +0.149 HD
BRANCH  24  27
ATOM     27  C   UNL     1      10.185  -0.605   0.579  0.00  0.00    +0.037 A 
ATOM     28  C   UNL     1      10.501   0.573  -0.101  0.00  0.00    +0.015 A 
ATOM     29  C   UNL     1      11.800   1.037  -0.102  0.00  0.00    +0.033 A 
ATOM     30  C   UNL     1      12.789   0.337   0.567  0.00  0.00    +0.126 A 
ATOM     31  C   UNL     1      12.482  -0.831   1.242  0.00  0.00    +0.033 A 
ATOM     32  C   UNL     1      11.186  -1.303   1.256  0.00  0.00    +0.015 A 
BRANCH  30  33
ATOM     33  N   UNL     1      14.181   0.841   0.561  0.00  0.00    +0.056 N 
ATOM     34  O   UNL     1      14.451   1.861  -0.029  0.00  0.00    -0.126 OA
ATOM     35  O   UNL     1      15.047   0.232   1.144  0.00  0.00    -0.126 OA
ENDBRANCH  30  33
ENDBRANCH  24  27
ENDBRANCH   4  23
TORSDOF 7
