REMARK  Name = ZINC28446524
REMARK  9 active torsions:
REMARK  status: ('A' for Active; 'I' for Inactive)
REMARK    1  A    between atoms: C_1  and  C_2
REMARK    2  A    between atoms: C_7  and  N_8
REMARK    3  A    between atoms: C_17  and  S_18
REMARK    4  A    between atoms: S_18  and  C_19
REMARK    5  A    between atoms: C_19  and  C_20
REMARK    6  A    between atoms: N_22  and  C_23
REMARK    7  A    between atoms: C_23  and  C_24
REMARK    8  A    between atoms: C_24  and  C_25
REMARK    9  A    between atoms: C_24  and  C_26
REMARK                            x       y       z     vdW  Elec       q    Type
REMARK                         _______ _______ _______ _____ _____    ______ ____
ROOT
ATOM      1  N   UNL     1      -2.429   1.040   0.019  0.00  0.00    -0.255 N 
ATOM      2  C   UNL     1      -2.991   0.696   1.193  0.00  0.00    +0.268 A 
ATOM      3  O   UNL     1      -2.460   1.003   2.246  0.00  0.00    -0.267 OA
ATOM      4  C   UNL     1      -4.222  -0.033   1.187  0.00  0.00    +0.076 A 
ATOM      5  C   UNL     1      -5.002  -0.505   2.333  0.00  0.00    -0.023 A 
ATOM      6  C   UNL     1      -6.139  -1.177   2.065  0.00  0.00    -0.004 A 
ATOM      7  S   UNL     1      -6.241  -1.222   0.296  0.00  0.00    -0.073 S 
ATOM      8  C   UNL     1      -4.750  -0.335  -0.080  0.00  0.00    +0.117 A 
ATOM      9  N   UNL     1      -4.145   0.033  -1.203  0.00  0.00    -0.215 NA
ATOM     10  C   UNL     1      -3.014   0.709  -1.171  0.00  0.00    +0.178 A 
ATOM     11  C   UNL     1      -7.104  -1.759   3.052  0.00  0.00    +0.043 C 
ATOM     12  C   UNL     1      -6.423  -1.803   4.427  0.00  0.00    +0.005 C 
ATOM     13  C   UNL     1      -5.769  -0.444   4.696  0.00  0.00    +0.005 C 
ATOM     14  C   UNL     1      -4.564  -0.257   3.774  0.00  0.00    +0.037 C 
ENDROOT
BRANCH   1  21
ATOM     15  C   UNL     1      -2.551   3.883   0.047  0.00  0.00    +0.046 C 
ATOM     16  C   UNL     1      -1.239   3.143   0.030  0.00  0.00    -0.026 A 
ATOM     17  C   UNL     1      -0.049   3.845   0.022  0.00  0.00    +0.005 A 
ATOM     18  C   UNL     1       1.155   3.166   0.007  0.00  0.00    +0.000 A 
ATOM     19  C   UNL     1       1.173   1.783   0.000  0.00  0.00    +0.002 A 
ATOM     20  C   UNL     1      -0.013   1.076   0.008  0.00  0.00    +0.026 A 
ATOM     21  C   UNL     1      -1.224   1.754   0.017  0.00  0.00    +0.055 A 
ENDBRANCH   1  21
BRANCH  10  22
ATOM     22  S   UNL     1      -2.244   1.187  -2.682  0.00  0.00    -0.078 S 
BRANCH  22  23
ATOM     23  C   UNL     1      -3.426   0.501  -3.868  0.00  0.00    +0.173 C 
BRANCH  23  24
ATOM     24  C   UNL     1      -2.960   0.797  -5.270  0.00  0.00    +0.223 C 
ATOM     25  O   UNL     1      -1.929   1.411  -5.450  0.00  0.00    -0.275 OA
ATOM     26  N   UNL     1      -3.688   0.380  -6.325  0.00  0.00    -0.314 N 
ATOM     27  H   UNL     1      -4.622  -0.176  -6.162  0.00  0.00    +0.149 HD
BRANCH  26  28
ATOM     28  C   UNL     1      -3.234   0.668  -7.688  0.00  0.00    +0.107 C 
BRANCH  28  29
ATOM     29  C   UNL     1      -4.234   0.089  -8.691  0.00  0.00    -0.000 C 
ATOM     30  C   UNL     1      -5.575   0.812  -8.550  0.00  0.00    +0.009 C 
ATOM     31  C   UNL     1      -3.699   0.279 -10.112  0.00  0.00    +0.009 C 
ENDBRANCH  28  29
ENDBRANCH  26  28
ENDBRANCH  23  24
ENDBRANCH  22  23
ENDBRANCH  10  22
TORSDOF 6
