REMARK  Name = ZINC50322732
REMARK  7 active torsions:
REMARK  status: ('A' for Active; 'I' for Inactive)
REMARK    1  A    between atoms: C_1  and  C_2
REMARK    2  A    between atoms: C_2  and  C_3
REMARK    3  A    between atoms: C_3  and  C_4
REMARK    4  A    between atoms: C_5  and  N_20
REMARK    5  A    between atoms: C_6  and  C_10
REMARK    6  A    between atoms: C_15  and  C_18
REMARK    7  A    between atoms: C_18  and  C_19
REMARK                            x       y       z     vdW  Elec       q    Type
REMARK                         _______ _______ _______ _____ _____    ______ ____
ROOT
ATOM      1  C   UNL     1       4.841  -4.520  -1.604  0.00  0.00    +0.057 A 
ATOM      2  C   UNL     1       3.868  -4.120  -0.742  0.00  0.00    +0.078 A 
ATOM      3  C   UNL     1       3.107  -5.285  -0.466  0.00  0.00    +0.168 A 
ATOM      4  N   UNL     1       3.648  -6.274  -1.152  0.00  0.00    -0.167 NA
ATOM      5  N   UNL     1       4.656  -5.848  -1.825  0.00  0.00    -0.279 N 
ATOM      6  H   UNL     1       5.207  -6.396  -2.405  0.00  0.00    +0.189 HD
ENDROOT
BRANCH   3   7
ATOM      7  C   UNL     1       1.932  -5.374   0.421  0.00  0.00    +0.269 C 
ATOM      8  O   UNL     1       1.460  -4.365   0.908  0.00  0.00    -0.268 OA
ATOM      9  N   UNL     1       1.381  -6.574   0.692  0.00  0.00    -0.296 N 
ATOM     10  C   UNL     1       0.121  -6.667   1.441  0.00  0.00    +0.108 C 
ATOM     11  C   UNL     1       0.325  -7.606   2.634  0.00  0.00    +0.022 C 
ATOM     12  C   UNL     1       0.861  -8.950   2.135  0.00  0.00    -0.008 C 
ATOM     13  C   UNL     1       2.213  -8.739   1.449  0.00  0.00    +0.022 C 
ATOM     14  C   UNL     1       2.027  -7.813   0.238  0.00  0.00    +0.108 C 
BRANCH  12  15
ATOM     15  C   UNL     1       1.033  -9.902   3.320  0.00  0.00    +0.000 C 
ATOM     16  C   UNL     1       1.449 -11.283   2.809  0.00  0.00    +0.004 C 
ENDBRANCH  12  15
ENDBRANCH   3   7
BRANCH   2  17
ATOM     17  N   UNL     1       3.661  -2.829  -0.235  0.00  0.00    -0.355 N 
ATOM     18  H   UNL     1       4.250  -2.105  -0.496  0.00  0.00    +0.142 HD
ATOM     19  H   UNL     1       2.928  -2.661   0.378  0.00  0.00    +0.142 HD
ENDBRANCH   2  17
BRANCH   1  20
ATOM     20  C   UNL     1       5.917  -3.653  -2.205  0.00  0.00    +0.056 C 
BRANCH  20  22
ATOM     21  C   UNL     1       8.192  -2.684  -1.849  0.00  0.00    +0.004 C 
ATOM     22  C   UNL     1       7.100  -3.564  -1.238  0.00  0.00    +0.003 C 
ENDBRANCH  20  22
ENDBRANCH   1  20
TORSDOF 5
