REMARK  Name = ZINC35778368
REMARK  14 active torsions:
REMARK  status: ('A' for Active; 'I' for Inactive)
REMARK    1  A    between atoms: C_1  and  C_2
REMARK    2  A    between atoms: C_2  and  C_3
REMARK    3  A    between atoms: C_2  and  C_4
REMARK    4  A    between atoms: C_4  and  C_6
REMARK    5  A    between atoms: C_4  and  O_36
REMARK    6  A    between atoms: C_6  and  N_7
REMARK    7  A    between atoms: N_7  and  C_8
REMARK    8  A    between atoms: N_7  and  C_29
REMARK    9  A    between atoms: C_8  and  C_9
REMARK   10  A    between atoms: C_10  and  C_23
REMARK   11  A    between atoms: N_12  and  C_22
REMARK   12  A    between atoms: C_13  and  O_14
REMARK   13  A    between atoms: O_14  and  C_15
REMARK   14  A    between atoms: C_29  and  C_30
REMARK                            x       y       z     vdW  Elec       q    Type
REMARK                         _______ _______ _______ _____ _____    ______ ____
ROOT
ATOM      1  C   UNL     1      -2.155  -3.197   1.377  0.00  0.00    +0.025 A 
ATOM      2  C   UNL     1      -0.902  -3.639   1.843  0.00  0.00    +0.098 A 
ATOM      3  N   UNL     1      -0.940  -3.663   3.158  0.00  0.00    -0.168 NA
ATOM      4  N   UNL     1      -2.211  -3.240   3.569  0.00  0.00    -0.235 N 
ATOM      5  C   UNL     1      -2.938  -2.954   2.458  0.00  0.00    +0.221 A 
ATOM      6  C   UNL     1      -2.672  -3.122   4.954  0.00  0.00    +0.176 C 
ENDROOT
BRANCH   2   7
ATOM      7  C   UNL     1       0.260  -4.012   0.998  0.00  0.00    +0.002 A 
ATOM      8  C   UNL     1       1.542  -3.597   1.351  0.00  0.00    +0.010 A 
ATOM      9  C   UNL     1       2.619  -3.947   0.562  0.00  0.00    +0.001 A 
ATOM     10  C   UNL     1       2.427  -4.709  -0.577  0.00  0.00    +0.000 A 
ATOM     11  C   UNL     1       1.156  -5.123  -0.931  0.00  0.00    +0.001 A 
ATOM     12  C   UNL     1       0.073  -4.784  -0.146  0.00  0.00    +0.010 A 
ENDBRANCH   2   7
BRANCH   1  13
ATOM     13  C   UNL     1      -2.553  -3.020  -0.066  0.00  0.00    -0.035 C 
BRANCH  13  14
ATOM     14  N   UNL     1      -2.382  -1.613  -0.452  0.00  0.00    +0.386 N 
ATOM     15  H   UNL     1      -2.899  -1.025   0.183  0.00  0.00    -0.081 HD
BRANCH  14  16
ATOM     16  C   UNL     1      -0.957  -1.260  -0.396  0.00  0.00    -0.046 C 
BRANCH  16  17
ATOM     17  C   UNL     1      -0.793   0.240  -0.650  0.00  0.00    +0.101 C 
BRANCH  17  19
ATOM     18  C   UNL     1       0.856   2.104  -0.870  0.00  0.00    +0.010 C 
ATOM     19  C   UNL     1       0.693   0.604  -0.616  0.00  0.00    +0.010 C 
ATOM     20  C   UNL     1       1.272   0.253   0.756  0.00  0.00    +0.010 C 
ENDBRANCH  17  19
BRANCH  17  21
ATOM     21  O   UNL     1      -1.486   0.973   0.362  0.00  0.00    -0.393 OA
ATOM     22  H   UNL     1      -1.171   0.800   1.259  0.00  0.00    +0.210 HD
ENDBRANCH  17  21
ENDBRANCH  16  17
ENDBRANCH  14  16
BRANCH  14  23
ATOM     23  C   UNL     1      -2.881  -1.416  -1.819  0.00  0.00    -0.046 C 
BRANCH  23  24
ATOM     24  C   UNL     1      -4.394  -1.641  -1.846  0.00  0.00    +0.102 C 
ATOM     25  C   UNL     1      -4.924  -1.467  -3.286  0.00  0.00    +0.032 C 
ATOM     26  C   UNL     1      -6.271  -0.730  -3.055  0.00  0.00    +0.030 C 
ATOM     27  C   UNL     1      -5.920   0.146  -1.826  0.00  0.00    +0.160 C 
ATOM     28  O   UNL     1      -5.046  -0.667  -1.023  0.00  0.00    -0.378 OA
ENDBRANCH  23  24
ENDBRANCH  14  23
ENDBRANCH  13  14
ENDBRANCH   1  13
BRANCH   5  29
ATOM     29  O   UNL     1      -4.220  -2.507   2.434  0.00  0.00    -0.438 OA
BRANCH  29  30
ATOM     30  C   UNL     1      -5.218  -3.429   2.487  0.00  0.00    +0.131 A 
ATOM     31  C   UNL     1      -4.915  -4.770   2.673  0.00  0.00    +0.049 A 
ATOM     32  C   UNL     1      -5.931  -5.705   2.726  0.00  0.00    +0.042 A 
ATOM     33  C   UNL     1      -7.249  -5.304   2.594  0.00  0.00    +0.124 A 
ATOM     34  C   UNL     1      -7.553  -3.966   2.409  0.00  0.00    +0.042 A 
ATOM     35  C   UNL     1      -6.540  -3.028   2.361  0.00  0.00    +0.049 A 
ATOM     36  F   UNL     1      -8.241  -6.220   2.646  0.00  0.00    -0.205 F 
ENDBRANCH  29  30
ENDBRANCH   5  29
TORSDOF 11
