REMARK  Name = ZINC39884052
REMARK  9 active torsions:
REMARK  status: ('A' for Active; 'I' for Inactive)
REMARK    1  A    between atoms: C_1  and  C_2
REMARK    2  A    between atoms: C_2  and  C_3
REMARK    3  A    between atoms: C_3  and  C_4
REMARK    4  A    between atoms: C_4  and  O_5
REMARK    5  A    between atoms: O_5  and  C_6
REMARK    6  A    between atoms: C_6  and  C_8
REMARK    7  A    between atoms: C_8  and  N_9
REMARK    8  A    between atoms: C_27  and  C_37
REMARK    9  A    between atoms: C_42  and  O_43
REMARK                            x       y       z     vdW  Elec       q    Type
REMARK                         _______ _______ _______ _____ _____    ______ ____
ROOT
ATOM      1  N   UNL     1       2.258  -5.880   3.657  0.00  0.00    -0.231 N 
ATOM      2  C   UNL     1       1.259  -6.662   4.196  0.00  0.00    +0.226 C 
ATOM      3  O   UNL     1       0.146  -6.324   4.539  0.00  0.00    -0.275 OA
ATOM      4  C   UNL     1       1.870  -8.024   4.256  0.00  0.00    +0.091 C 
ATOM      5  C   UNL     1       1.062  -9.337   4.087  0.00  0.00    +0.007 C 
ATOM      6  C   UNL     1       1.155  -9.634   2.532  0.00  0.00    +0.010 C 
ATOM      7  C   UNL     1       2.723  -9.296   2.382  0.00  0.00    +0.015 C 
ATOM      8  C   UNL     1       2.561  -7.902   2.835  0.00  0.00    +0.092 C 
ATOM      9  C   UNL     1       3.240  -6.633   3.032  0.00  0.00    +0.226 C 
ATOM     10  O   UNL     1       4.370  -6.317   2.731  0.00  0.00    -0.275 OA
ATOM     11  C   UNL     1       3.211 -10.339   3.382  0.00  0.00    +0.061 C 
ATOM     12  C   UNL     1       2.186 -10.260   4.565  0.00  0.00    +0.019 C 
ATOM     13  C   UNL     1       2.136 -11.429   5.446  0.00  0.00    +0.066 C 
ATOM     14  C   UNL     1       3.527 -11.646   5.996  0.00  0.00    +0.032 A 
ATOM     15  C   UNL     1       4.702 -11.105   5.604  0.00  0.00    +0.087 A 
ATOM     16  N   UNL     1       5.789 -11.488   6.352  0.00  0.00    -0.311 N 
ATOM     17  H   UNL     1       6.667 -11.126   6.152  0.00  0.00    +0.170 HD
ATOM     18  C   UNL     1       5.639 -12.365   7.363  0.00  0.00    +0.289 A 
ATOM     19  O   UNL     1       6.492 -12.810   8.111  0.00  0.00    -0.260 OA
ATOM     20  S   UNL     1       3.990 -12.700   7.344  0.00  0.00    -0.030 S 
ATOM     21  S   UNL     1       4.830 -10.028   4.134  0.00  0.00    -0.103 S 
ENDROOT
BRANCH  13  22
ATOM     22  C   UNL     1       1.172 -11.177   6.577  0.00  0.00    +0.002 A 
ATOM     23  C   UNL     1       1.380 -10.119   7.440  0.00  0.00    +0.008 A 
ATOM     24  C   UNL     1       0.496  -9.887   8.477  0.00  0.00    +0.001 A 
ATOM     25  C   UNL     1      -0.598 -10.714   8.653  0.00  0.00    +0.004 A 
ATOM     26  C   UNL     1      -0.811 -11.773   7.793  0.00  0.00    +0.046 A 
ATOM     27  C   UNL     1       0.072 -12.005   6.748  0.00  0.00    +0.121 A 
BRANCH  27  28
ATOM     28  O   UNL     1      -0.138 -13.043   5.896  0.00  0.00    -0.506 OA
ATOM     29  H   UNL     1       0.278 -13.870   6.174  0.00  0.00    +0.292 HD
ENDBRANCH  27  28
ENDBRANCH  13  22
BRANCH   1  30
ATOM     30  C   UNL     1       2.277  -4.417   3.731  0.00  0.00    +0.236 C 
BRANCH  30  31
ATOM     31  C   UNL     1       1.561  -3.844   2.535  0.00  0.00    +0.325 C 
ATOM     32  O   UNL     1       1.084  -4.582   1.706  0.00  0.00    -0.249 OA
BRANCH  31  33
ATOM     33  O   UNL     1       1.454  -2.514   2.391  0.00  0.00    -0.464 OA
BRANCH  33  34
ATOM     34  C   UNL     1       0.763  -2.041   1.233  0.00  0.00    +0.232 C 
BRANCH  34  35
ATOM     35  C   UNL     1       0.742  -0.511   1.242  0.00  0.00    +0.041 C 
BRANCH  35  37
ATOM     36  C   UNL     1      -0.019   1.526   0.010  0.00  0.00    +0.004 C 
ATOM     37  C   UNL     1       0.002  -0.004   0.002  0.00  0.00    -0.000 C 
ENDBRANCH  35  37
ENDBRANCH  34  35
ENDBRANCH  33  34
ENDBRANCH  31  33
ENDBRANCH  30  31
ENDBRANCH   1  30
TORSDOF 8
