REMARK  Name = ZINC63328870
REMARK  8 active torsions:
REMARK  status: ('A' for Active; 'I' for Inactive)
REMARK    1  A    between atoms: C_1  and  C_2
REMARK    2  A    between atoms: C_4  and  C_28
REMARK    3  A    between atoms: N_6  and  C_22
REMARK    4  A    between atoms: C_7  and  S_10
REMARK    5  A    between atoms: S_10  and  C_11
REMARK    6  A    between atoms: C_11  and  C_12
REMARK    7  A    between atoms: C_18  and  S_20
REMARK    8  A    between atoms: S_20  and  C_21
REMARK                            x       y       z     vdW  Elec       q    Type
REMARK                         _______ _______ _______ _____ _____    ______ ____
ROOT
ATOM      1  C   UNL     1      -0.019   1.526   0.010  0.00  0.00    -0.012 C 
ATOM      2  C   UNL     1       0.002  -0.004   0.002  0.00  0.00    -0.051 C 
ATOM      3  C   UNL     1      -1.435  -0.577   0.087  0.00  0.00    +0.055 C 
ATOM      4  N   UNL     1      -1.240  -1.914   0.684  0.00  0.00    -0.333 N 
ATOM      5  C   UNL     1       0.044  -1.886   1.402  0.00  0.00    +0.077 C 
ATOM      6  N   UNL     1       0.623  -0.534   1.246  0.00  0.00    +0.400 N 
ATOM      7  C   UNL     1      -2.310   0.296   0.988  0.00  0.00    +0.026 C 
ATOM      8  H   UNL     1       1.625  -0.589   1.143  0.00  0.00    -0.081 HD
ATOM      9  H   UNL     1       0.380   0.046   2.035  0.00  0.00    -0.081 HD
ENDROOT
BRANCH   4  10
ATOM     10  C   UNL     1      -2.112  -3.001   0.586  0.00  0.00    +0.029 A 
ATOM     11  C   UNL     1      -3.294  -2.883  -0.134  0.00  0.00    +0.023 A 
ATOM     12  C   UNL     1      -4.153  -3.960  -0.230  0.00  0.00    +0.002 A 
ATOM     13  C   UNL     1      -3.838  -5.155   0.391  0.00  0.00    +0.000 A 
ATOM     14  C   UNL     1      -2.662  -5.276   1.108  0.00  0.00    +0.002 A 
ATOM     15  C   UNL     1      -1.796  -4.205   1.203  0.00  0.00    +0.023 A 
ENDBRANCH   4  10
BRANCH   5  16
ATOM     16  S   UNL     1      -0.229  -2.240   3.160  0.00  0.00    -0.149 S 
BRANCH  16  17
ATOM     17  C   UNL     1      -1.342  -0.916   3.707  0.00  0.00    +0.165 C 
BRANCH  17  18
ATOM     18  C   UNL     1      -1.653  -1.094   5.170  0.00  0.00    +0.229 C 
ATOM     19  O   UNL     1      -1.171  -2.022   5.785  0.00  0.00    -0.275 OA
ATOM     20  N   UNL     1      -2.467  -0.221   5.797  0.00  0.00    -0.263 N 
ATOM     21  C   UNL     1      -2.754  -0.385   7.150  0.00  0.00    +0.189 A 
ATOM     22  N   UNL     1      -2.338  -1.309   8.002  0.00  0.00    -0.125 NA
ATOM     23  N   UNL     1      -2.698  -1.313   9.211  0.00  0.00    -0.133 NA
ATOM     24  C   UNL     1      -3.514  -0.393   9.702  0.00  0.00    +0.160 A 
ATOM     25  S   UNL     1      -3.785   0.598   8.235  0.00  0.00    -0.024 S 
ATOM     26  H   UNL     1      -2.853   0.521   5.306  0.00  0.00    +0.157 HD
BRANCH  24  27
ATOM     27  S   UNL     1      -4.148  -0.196  11.335  0.00  0.00    -0.100 S 
ATOM     28  C   UNL     1      -3.421  -1.578  12.257  0.00  0.00    +0.092 C 
ENDBRANCH  24  27
ENDBRANCH  17  18
ENDBRANCH  16  17
ENDBRANCH   5  16
TORSDOF 5
