REMARK  Name = ZINC63230449
REMARK  9 active torsions:
REMARK  status: ('A' for Active; 'I' for Inactive)
REMARK    1  A    between atoms: C_1  and  C_2
REMARK    2  A    between atoms: C_2  and  C_4
REMARK    3  A    between atoms: C_2  and  O_18
REMARK    4  A    between atoms: N_6  and  C_7
REMARK    5  A    between atoms: C_9  and  C_14
REMARK    6  A    between atoms: O_18  and  C_19
REMARK    7  A    between atoms: C_19  and  C_21
REMARK    8  A    between atoms: C_21  and  C_22
REMARK    9  A    between atoms: C_22  and  C_23
REMARK                            x       y       z     vdW  Elec       q    Type
REMARK                         _______ _______ _______ _____ _____    ______ ____
ROOT
ATOM      1  C   UNL     1      -0.017   1.513   0.029  0.00  0.00    +0.062 C 
ATOM      2  C   UNL     1       0.006  -0.017   0.010  0.00  0.00    +0.259 C 
ENDROOT
BRANCH   2   3
ATOM      3  C   UNL     1       0.708  -0.493  -1.236  0.00  0.00    +0.258 C 
ATOM      4  O   UNL     1       0.095  -1.112  -2.079  0.00  0.00    -0.271 OA
ATOM      5  N   UNL     1       2.018  -0.231  -1.413  0.00  0.00    -0.281 N 
ATOM      6  H   UNL     1       2.490   0.332  -0.779  0.00  0.00    +0.155 HD
BRANCH   5   7
ATOM      7  C   UNL     1       2.698  -0.770  -2.511  0.00  0.00    +0.052 A 
ATOM      8  C   UNL     1       2.236  -1.933  -3.113  0.00  0.00    +0.037 A 
ATOM      9  C   UNL     1       2.908  -2.463  -4.197  0.00  0.00    +0.057 A 
ATOM     10  C   UNL     1       4.042  -1.837  -4.683  0.00  0.00    +0.014 A 
ATOM     11  C   UNL     1       4.505  -0.679  -4.087  0.00  0.00    +0.022 A 
ATOM     12  C   UNL     1       3.834  -0.140  -3.005  0.00  0.00    +0.062 A 
ATOM     13 CL   UNL     1       4.412   1.318  -2.261  0.00  0.00    -0.082 Cl
BRANCH   9  14
ATOM     14  C   UNL     1       2.407  -3.725  -4.850  0.00  0.00    +0.417 C 
ATOM     15  F   UNL     1       1.504  -3.397  -5.867  0.00  0.00    -0.166 F 
ATOM     16  F   UNL     1       3.487  -4.429  -5.394  0.00  0.00    -0.166 F 
ATOM     17  F   UNL     1       1.765  -4.521  -3.895  0.00  0.00    -0.166 F 
ENDBRANCH   9  14
ENDBRANCH   5   7
ENDBRANCH   2   3
BRANCH   2  18
ATOM     18  O   UNL     1      -1.334  -0.513   0.020  0.00  0.00    -0.452 OA
BRANCH  18  19
ATOM     19  C   UNL     1      -1.890  -0.740   1.220  0.00  0.00    +0.308 C 
ATOM     20  O   UNL     1      -1.261  -0.525   2.229  0.00  0.00    -0.251 OA
BRANCH  19  21
ATOM     21  C   UNL     1      -3.301  -1.264   1.310  0.00  0.00    +0.125 C 
BRANCH  21  22
ATOM     22  C   UNL     1      -3.689  -1.433   2.780  0.00  0.00    +0.044 C 
BRANCH  22  23
ATOM     23  C   UNL     1      -5.099  -1.957   2.870  0.00  0.00    -0.041 C 
ATOM     24  C   UNL     1      -5.480  -3.248   3.001  0.00  0.00    -0.001 A 
ATOM     25  C   UNL     1      -4.725  -4.504   3.093  0.00  0.00    +0.010 A 
ATOM     26  C   UNL     1      -5.401  -5.668   3.220  0.00  0.00    +0.001 A 
ATOM     27  C   UNL     1      -6.801  -5.706   3.265  0.00  0.00    +0.002 A 
ATOM     28  C   UNL     1      -7.564  -4.595   3.186  0.00  0.00    +0.026 A 
ATOM     29  C   UNL     1      -6.958  -3.316   3.051  0.00  0.00    +0.043 A 
ATOM     30  N   UNL     1      -7.471  -2.113   2.955  0.00  0.00    -0.380 N 
ATOM     31  C   UNL     1      -6.375  -1.145   2.840  0.00  0.00    +0.144 C 
ATOM     32  H   UNL     1      -8.417  -1.898   2.964  0.00  0.00    +0.160 HD
ENDBRANCH  22  23
ENDBRANCH  21  22
ENDBRANCH  19  21
ENDBRANCH  18  19
ENDBRANCH   2  18
TORSDOF 8
