REMARK  Name = ZINC16516071
REMARK  8 active torsions:
REMARK  status: ('A' for Active; 'I' for Inactive)
REMARK    1  A    between atoms: C_4  and  N_7
REMARK    2  A    between atoms: C_9  and  C_19
REMARK    3  A    between atoms: C_10  and  C_12
REMARK    4  A    between atoms: C_19  and  N_20
REMARK    5  A    between atoms: C_21  and  C_23
REMARK    6  A    between atoms: C_23  and  N_24
REMARK    7  A    between atoms: C_25  and  C_27
REMARK    8  A    between atoms: C_31  and  N_33
REMARK                            x       y       z     vdW  Elec       q    Type
REMARK                         _______ _______ _______ _____ _____    ______ ____
ROOT
ATOM      1  C   UNL     1       4.084   9.835   0.011  0.00  0.00    +0.143 C 
ENDROOT
BRANCH   1   4
ATOM      2  N   UNL     1       4.145  13.431  -0.630  0.00  0.00    -0.239 N 
ATOM      3  C   UNL     1       4.238  12.144  -1.054  0.00  0.00    +0.120 A 
ATOM      4  C   UNL     1       4.064  11.341   0.018  0.00  0.00    +0.015 A 
ATOM      5  C   UNL     1       3.866  12.162   1.146  0.00  0.00    +0.098 A 
ATOM      6  N   UNL     1       3.915  13.417   0.751  0.00  0.00    -0.166 NA
BRANCH   5   7
ATOM      7  C   UNL     1       3.640  11.694   2.536  0.00  0.00    +0.003 A 
ATOM      8  C   UNL     1       2.910  10.531   2.772  0.00  0.00    +0.013 A 
ATOM      9  C   UNL     1       2.707  10.097   4.066  0.00  0.00    +0.039 A 
ATOM     10  C   UNL     1       3.219  10.822   5.130  0.00  0.00    +0.123 A 
ATOM     11  C   UNL     1       3.941  11.981   4.900  0.00  0.00    +0.039 A 
ATOM     12  C   UNL     1       4.154  12.420   3.609  0.00  0.00    +0.013 A 
ATOM     13  F   UNL     1       3.013  10.396   6.396  0.00  0.00    -0.205 F 
ENDBRANCH   5   7
BRANCH   2  17
ATOM     14  C   UNL     1       4.502  16.828  -3.020  0.00  0.00    +0.000 A 
ATOM     15  C   UNL     1       4.272  16.960  -1.663  0.00  0.00    +0.002 A 
ATOM     16  C   UNL     1       4.154  15.837  -0.868  0.00  0.00    +0.028 A 
ATOM     17  C   UNL     1       4.265  14.573  -1.434  0.00  0.00    +0.065 A 
ATOM     18  C   UNL     1       4.500  14.444  -2.796  0.00  0.00    +0.028 A 
ATOM     19  C   UNL     1       4.612  15.571  -3.586  0.00  0.00    +0.002 A 
ENDBRANCH   2  17
ENDBRANCH   1   4
BRANCH   1  20
ATOM     20  N   UNL     1       2.710   9.328   0.022  0.00  0.00    -0.310 N 
ATOM     21  C   UNL     1       2.482   7.999   0.018  0.00  0.00    +0.230 C 
ATOM     22  O   UNL     1       3.414   7.224   0.005  0.00  0.00    -0.274 OA
ATOM     23  H   UNL     1       1.964   9.948   0.032  0.00  0.00    +0.149 HD
BRANCH  21  24
ATOM     24  C   UNL     1       1.068   7.478   0.029  0.00  0.00    +0.200 C 
BRANCH  24  25
ATOM     25  N   UNL     1       1.088   6.013   0.022  0.00  0.00    -0.303 N 
ATOM     26  C   UNL     1      -0.070   5.323   0.029  0.00  0.00    +0.245 C 
ATOM     27  O   UNL     1      -1.131   5.916   0.042  0.00  0.00    -0.270 OA
ATOM     28  H   UNL     1       1.934   5.539   0.011  0.00  0.00    +0.150 HD
BRANCH  26  29
ATOM     29  C   UNL     1      -0.050   3.845   0.022  0.00  0.00    +0.039 A 
ATOM     30  C   UNL     1       1.166   3.160   0.007  0.00  0.00    +0.013 A 
ATOM     31  C   UNL     1       1.178   1.781   0.000  0.00  0.00    +0.003 A 
ATOM     32  C   UNL     1      -0.013   1.076   0.008  0.00  0.00    +0.033 A 
ATOM     33  C   UNL     1      -1.222   1.748   0.017  0.00  0.00    +0.127 A 
ATOM     34  C   UNL     1      -1.247   3.128   0.030  0.00  0.00    +0.045 A 
BRANCH  33  35
ATOM     35  N   UNL     1      -2.490   0.986   0.019  0.00  0.00    +0.056 N 
ATOM     36  O   UNL     1      -2.469  -0.232   0.013  0.00  0.00    -0.126 OA
ATOM     37  O   UNL     1      -3.556   1.576   0.028  0.00  0.00    -0.126 OA
ENDBRANCH  33  35
ENDBRANCH  26  29
ENDBRANCH  24  25
ENDBRANCH  21  24
ENDBRANCH   1  20
TORSDOF 8
