REMARK  Name = ZINC39533646
REMARK  9 active torsions:
REMARK  status: ('A' for Active; 'I' for Inactive)
REMARK    1  A    between atoms: C_1  and  S_2
REMARK    2  A    between atoms: S_2  and  N_3
REMARK    3  A    between atoms: N_3  and  C_4
REMARK    4  A    between atoms: C_4  and  C_5
REMARK    5  A    between atoms: C_5  and  C_7
REMARK    6  A    between atoms: C_5  and  N_19
REMARK    7  A    between atoms: C_10  and  C_13
REMARK    8  A    between atoms: C_23  and  C_26
REMARK    9  A    between atoms: C_31  and  O_32
REMARK                            x       y       z     vdW  Elec       q    Type
REMARK                         _______ _______ _______ _____ _____    ______ ____
ROOT
ATOM      1  C   UNL     1       1.205  -1.818  -3.144  0.00  0.00    +0.101 C 
ENDROOT
BRANCH   1   2
ATOM      2  N   UNL     1      -0.109  -1.444  -3.685  0.00  0.00    -0.297 NA
ATOM      3  C   UNL     1      -0.013  -0.233  -4.512  0.00  0.00    +0.066 C 
ATOM      4  C   UNL     1      -1.387   0.088  -5.103  0.00  0.00    -0.066 C 
ATOM      5  N   UNL     1      -2.353   0.292  -4.015  0.00  0.00    +0.385 N 
ATOM      6  C   UNL     1      -2.456  -0.934  -3.213  0.00  0.00    -0.023 C 
ATOM      7  C   UNL     1      -1.090  -1.263  -2.606  0.00  0.00    +0.074 C 
ATOM      8  H   UNL     1      -2.042   1.053  -3.428  0.00  0.00    -0.085 HD
ATOM      9  H   UNL     1      -3.256   0.516  -4.405  0.00  0.00    -0.085 HD
BRANCH   6  10
ATOM     10  C   UNL     1      -3.460  -0.728  -2.108  0.00  0.00    -0.019 A 
ATOM     11  C   UNL     1      -3.768   0.550  -1.683  0.00  0.00    +0.005 A 
ATOM     12  C   UNL     1      -4.689   0.739  -0.669  0.00  0.00    +0.000 A 
ATOM     13  C   UNL     1      -5.304  -0.349  -0.078  0.00  0.00    +0.004 A 
ATOM     14  C   UNL     1      -5.000  -1.629  -0.500  0.00  0.00    +0.045 A 
ATOM     15  C   UNL     1      -4.080  -1.821  -1.521  0.00  0.00    +0.118 A 
BRANCH  15  16
ATOM     16  O   UNL     1      -3.783  -3.079  -1.942  0.00  0.00    -0.507 OA
ATOM     17  H   UNL     1      -3.101  -3.519  -1.416  0.00  0.00    +0.292 HD
ENDBRANCH  15  16
ENDBRANCH   6  10
ENDBRANCH   1   2
BRANCH   1  18
ATOM     18  C   UNL     1       1.239  -3.302  -2.887  0.00  0.00    -0.029 A 
ATOM     19  C   UNL     1       0.060  -4.027  -2.877  0.00  0.00    +0.006 A 
ATOM     20  C   UNL     1       0.085  -5.386  -2.642  0.00  0.00    +0.009 A 
ATOM     21  C   UNL     1       1.300  -6.030  -2.415  0.00  0.00    -0.018 A 
ATOM     22  C   UNL     1       2.484  -5.295  -2.426  0.00  0.00    +0.009 A 
ATOM     23  C   UNL     1       2.448  -3.937  -2.667  0.00  0.00    +0.006 A 
BRANCH  21  24
ATOM     24  C   UNL     1       1.333  -7.491  -2.161  0.00  0.00    -0.018 A 
ATOM     25  C   UNL     1       0.150  -8.227  -2.155  0.00  0.00    +0.008 A 
ATOM     26  C   UNL     1       0.186  -9.586  -1.919  0.00  0.00    +0.001 A 
ATOM     27  C   UNL     1       1.395 -10.218  -1.689  0.00  0.00    +0.000 A 
ATOM     28  C   UNL     1       2.572  -9.493  -1.693  0.00  0.00    +0.001 A 
ATOM     29  C   UNL     1       2.548  -8.134  -1.934  0.00  0.00    +0.008 A 
ENDBRANCH  21  24
ENDBRANCH   1  18
BRANCH   1  30
ATOM     30  C   UNL     1       1.449  -1.068  -1.833  0.00  0.00    +0.117 C 
BRANCH  30  31
ATOM     31  N   UNL     1       1.312   0.377  -2.062  0.00  0.00    -0.262 NA
ATOM     32  H   UNL     1       2.087   0.732  -2.603  0.00  0.00    +0.135 HD
BRANCH  31  34
ATOM     33  C   UNL     1       0.842   2.962  -1.039  0.00  0.00    +0.102 C 
ATOM     34  S   UNL     1       1.153   1.248  -0.535  0.00  0.00    -0.084 S 
ENDBRANCH  31  34
ENDBRANCH  30  31
ENDBRANCH   1  30
TORSDOF 8
