REMARK  Name = ZINC32883486
REMARK  10 active torsions:
REMARK  status: ('A' for Active; 'I' for Inactive)
REMARK    1  A    between atoms: C_1  and  C_2
REMARK    2  A    between atoms: C_2  and  C_3
REMARK    3  A    between atoms: C_3  and  N_4
REMARK    4  A    between atoms: C_8  and  S_28
REMARK    5  A    between atoms: C_12  and  S_13
REMARK    6  A    between atoms: S_13  and  C_14
REMARK    7  A    between atoms: C_14  and  C_15
REMARK    8  A    between atoms: N_17  and  N_18
REMARK    9  A    between atoms: C_19  and  C_21
REMARK   10  A    between atoms: S_28  and  N_31
REMARK                            x       y       z     vdW  Elec       q    Type
REMARK                         _______ _______ _______ _____ _____    ______ ____
ROOT
ATOM      1  N   UNL     1       8.886   1.647  -0.079  0.00  0.00    -0.319 N 
ATOM      2  C   UNL     1       9.650   0.491  -0.087  0.00  0.00    +0.070 A 
ATOM      3  C   UNL     1      11.013   0.240  -0.101  0.00  0.00    +0.030 A 
ATOM      4  C   UNL     1      11.472  -1.061  -0.113  0.00  0.00    +0.030 A 
ATOM      5  C   UNL     1      10.578  -2.122  -0.111  0.00  0.00    +0.107 A 
ATOM      6  C   UNL     1       9.221  -1.891  -0.096  0.00  0.00    +0.058 A 
ATOM      7  C   UNL     1       8.740  -0.579  -0.085  0.00  0.00    +0.092 A 
ATOM      8  N   UNL     1       7.491  -0.043  -0.070  0.00  0.00    -0.222 NA
ATOM      9  C   UNL     1       7.574   1.265  -0.064  0.00  0.00    +0.170 A 
ENDROOT
BRANCH   5  10
ATOM     10  S   UNL     1      11.184  -3.776  -0.126  0.00  0.00    +0.056 S 
ATOM     11  O   UNL     1      10.149  -4.582  -0.672  0.00  0.00    -0.153 OA
ATOM     12  O   UNL     1      12.488  -3.726  -0.688  0.00  0.00    -0.153 OA
BRANCH  10  13
ATOM     13  N   UNL     1      11.367  -4.245   1.452  0.00  0.00    -0.204 NA
ATOM     14  H   UNL     1      11.746  -5.277   1.486  0.00  0.00    +0.144 HD
ATOM     15  H   UNL     1      10.396  -4.193   1.965  0.00  0.00    +0.144 HD
ENDBRANCH  10  13
ENDBRANCH   5  10
BRANCH   1  16
ATOM     16  C   UNL     1       9.390   3.022  -0.084  0.00  0.00    +0.124 C 
BRANCH  16  18
ATOM     17  C   UNL     1      10.112   4.934   1.353  0.00  0.00    +0.005 C 
ATOM     18  C   UNL     1       9.585   3.498   1.357  0.00  0.00    +0.018 C 
ENDBRANCH  16  18
ENDBRANCH   1  16
BRANCH   9  19
ATOM     19  S   UNL     1       6.199   2.366  -0.044  0.00  0.00    -0.078 S 
BRANCH  19  20
ATOM     20  C   UNL     1       4.839   1.171  -0.038  0.00  0.00    +0.174 C 
BRANCH  20  21
ATOM     21  C   UNL     1       3.524   1.907  -0.021  0.00  0.00    +0.239 C 
ATOM     22  O   UNL     1       3.508   3.120  -0.015  0.00  0.00    -0.273 OA
ATOM     23  N   UNL     1       2.366   1.217  -0.014  0.00  0.00    -0.233 N 
ATOM     24  H   UNL     1       2.381   0.117  -0.020  0.00  0.00    +0.173 HD
BRANCH  23  25
ATOM     25  N   UNL     1       1.143   1.901   0.001  0.00  0.00    -0.230 N 
ATOM     26  C   UNL     1      -0.014   1.211   0.009  0.00  0.00    +0.260 C 
ATOM     27  O   UNL     1       0.002  -0.004   0.002  0.00  0.00    -0.269 OA
ATOM     28  H   UNL     1       1.129   3.001   0.007  0.00  0.00    +0.173 HD
BRANCH  26  29
ATOM     29  C   UNL     1      -1.304   1.933   0.019  0.00  0.00    +0.038 A 
ATOM     30  C   UNL     1      -1.326   3.329   0.032  0.00  0.00    +0.014 A 
ATOM     31  C   UNL     1      -2.533   3.996   0.035  0.00  0.00    +0.021 A 
ATOM     32  C   UNL     1      -3.721   3.285   0.037  0.00  0.00    +0.041 A 
ATOM     33  C   UNL     1      -3.706   1.900   0.030  0.00  0.00    +0.021 A 
ATOM     34  C   UNL     1      -2.505   1.221   0.021  0.00  0.00    +0.014 A 
ATOM     35 CL   UNL     1      -5.236   4.132   0.048  0.00  0.00    -0.084 Cl
ENDBRANCH  26  29
ENDBRANCH  23  25
ENDBRANCH  20  21
ENDBRANCH  19  20
ENDBRANCH   9  19
TORSDOF 9
