REMARK  Name = ZINC48570236
REMARK  8 active torsions:
REMARK  status: ('A' for Active; 'I' for Inactive)
REMARK    1  A    between atoms: C_1  and  C_2
REMARK    2  A    between atoms: C_2  and  C_3
REMARK    3  A    between atoms: C_2  and  N_4
REMARK    4  A    between atoms: C_5  and  C_7
REMARK    5  A    between atoms: C_7  and  C_8
REMARK    6  A    between atoms: C_11  and  N_14
REMARK    7  A    between atoms: C_15  and  C_17
REMARK    8  A    between atoms: N_19  and  C_20
REMARK                            x       y       z     vdW  Elec       q    Type
REMARK                         _______ _______ _______ _____ _____    ______ ____
ROOT
ATOM      1  N   UNL     1      -3.175  -7.444  -2.761  0.00  0.00    -0.278 N 
ATOM      2  C   UNL     1      -2.913  -8.524  -1.997  0.00  0.00    +0.303 C 
ATOM      3  O   UNL     1      -2.742  -8.394  -0.802  0.00  0.00    -0.265 OA
ATOM      4  H   UNL     1      -3.388  -7.555  -3.701  0.00  0.00    +0.155 HD
ENDROOT
BRANCH   1   8
ATOM      5  C   UNL     1      -3.071  -3.634  -1.085  0.00  0.00    -0.039 A 
ATOM      6  C   UNL     1      -3.966  -3.917  -2.100  0.00  0.00    +0.006 A 
ATOM      7  C   UNL     1      -4.003  -5.179  -2.658  0.00  0.00    +0.023 A 
ATOM      8  C   UNL     1      -3.140  -6.166  -2.199  0.00  0.00    +0.034 A 
ATOM      9  C   UNL     1      -2.241  -5.878  -1.179  0.00  0.00    +0.023 A 
ATOM     10  C   UNL     1      -2.206  -4.612  -0.629  0.00  0.00    +0.006 A 
BRANCH   5  11
ATOM     11  C   UNL     1      -3.033  -2.255  -0.479  0.00  0.00    +0.130 C 
BRANCH  11  13
ATOM     12  N   UNL     1      -1.859  -0.114  -0.878  0.00  0.00    -0.313 N 
ATOM     13  C   UNL     1      -2.059  -1.396  -1.243  0.00  0.00    +0.218 C 
ATOM     14  O   UNL     1      -1.455  -1.858  -2.188  0.00  0.00    -0.275 OA
ATOM     15  H   UNL     1      -2.343   0.256  -0.122  0.00  0.00    +0.149 HD
BRANCH  12  17
ATOM     16  C   UNL     1      -1.296   2.193  -1.461  0.00  0.00    +0.027 C 
ATOM     17  C   UNL     1      -0.913   0.721  -1.621  0.00  0.00    +0.067 C 
ATOM     18  C   UNL     1       0.500   0.499  -1.077  0.00  0.00    +0.027 C 
ENDBRANCH  12  17
ENDBRANCH  11  13
ENDBRANCH   5  11
ENDBRANCH   1   8
BRANCH   2  19
ATOM     19  C   UNL     1      -2.835  -9.878  -2.620  0.00  0.00    +0.300 C 
ATOM     20  O   UNL     1      -3.006 -10.008  -3.815  0.00  0.00    -0.265 OA
ATOM     21  N   UNL     1      -2.573 -10.958  -1.857  0.00  0.00    -0.302 N 
ATOM     22  H   UNL     1      -2.436 -10.854  -0.902  0.00  0.00    +0.150 HD
BRANCH  21  23
ATOM     23  C   UNL     1      -2.496 -12.287  -2.468  0.00  0.00    +0.036 C 
ATOM     24  C   UNL     1      -3.833 -12.620  -3.134  0.00  0.00    +0.029 C 
ATOM     25  C   UNL     1      -3.752 -14.008  -3.773  0.00  0.00    -0.008 C 
ATOM     26  C   UNL     1      -3.446 -15.049  -2.694  0.00  0.00    +0.007 C 
ATOM     27  C   UNL     1      -2.109 -14.715  -2.028  0.00  0.00    -0.008 C 
ATOM     28  C   UNL     1      -2.190 -13.328  -1.389  0.00  0.00    +0.029 C 
ATOM     29  C   UNL     1      -0.999 -14.729  -3.080  0.00  0.00    +0.007 C 
ATOM     30  C   UNL     1      -1.305 -13.688  -4.159  0.00  0.00    -0.008 C 
ATOM     31  C   UNL     1      -2.641 -14.022  -4.824  0.00  0.00    +0.007 C 
ATOM     32  C   UNL     1      -1.385 -12.300  -3.520  0.00  0.00    +0.029 C 
ENDBRANCH  21  23
ENDBRANCH   2  19
TORSDOF 6
