REMARK  Name = ZINC16437169
REMARK  19 active torsions:
REMARK  status: ('A' for Active; 'I' for Inactive)
REMARK    1  A    between atoms: C_1  and  C_2
REMARK    2  A    between atoms: C_7  and  N_8
REMARK    3  A    between atoms: C_9  and  N_17
REMARK    4  A    between atoms: C_11  and  C_13
REMARK    5  A    between atoms: C_13  and  C_14
REMARK    6  A    between atoms: C_13  and  C_15
REMARK    7  A    between atoms: C_13  and  C_16
REMARK    8  A    between atoms: C_18  and  C_20
REMARK    9  A    between atoms: C_20  and  N_21
REMARK   10  A    between atoms: N_21  and  C_22
REMARK   11  A    between atoms: C_22  and  C_23
REMARK   12  A    between atoms: C_23  and  N_81
REMARK   13  A    between atoms: C_24  and  N_81
REMARK   14  A    between atoms: C_25  and  N_81
REMARK   15  A    between atoms: C_26  and  C_28
REMARK   16  A    between atoms: C_31  and  C_34
REMARK   17  A    between atoms: C_34  and  C_35
REMARK   18  A    between atoms: C_34  and  C_36
REMARK   19  A    between atoms: C_34  and  C_37
REMARK                            x       y       z     vdW  Elec       q    Type
REMARK                         _______ _______ _______ _____ _____    ______ ____
ROOT
ATOM      1  N   UNL     1       3.611   1.696  -0.390  0.00  0.00    -0.269 N 
ATOM      2  C   UNL     1       4.931   1.440  -0.285  0.00  0.00    +0.236 C 
ATOM      3  O   UNL     1       5.739   2.309  -0.535  0.00  0.00    -0.274 OA
ATOM      4  H   UNL     1       2.965   1.001  -0.190  0.00  0.00    +0.156 HD
ENDROOT
BRANCH   1   6
ATOM      5  N   UNL     1       1.886   3.394  -0.818  0.00  0.00    -0.218 N 
ATOM      6  C   UNL     1       3.176   2.959  -0.787  0.00  0.00    +0.129 A 
ATOM      7  C   UNL     1       3.962   3.985  -1.215  0.00  0.00    +0.069 A 
ATOM      8  C   UNL     1       3.131   5.068  -1.512  0.00  0.00    +0.071 A 
ATOM      9  N   UNL     1       1.892   4.716  -1.282  0.00  0.00    -0.169 NA
BRANCH   5  16
ATOM     10  C   UNL     1       0.001   4.584   0.950  0.00  0.00    +0.046 C 
ATOM     11  C   UNL     1      -0.190   3.193   0.403  0.00  0.00    -0.025 A 
ATOM     12  C   UNL     1      -1.304   2.457   0.757  0.00  0.00    +0.005 A 
ATOM     13  C   UNL     1      -1.481   1.183   0.252  0.00  0.00    +0.000 A 
ATOM     14  C   UNL     1      -0.539   0.636  -0.601  0.00  0.00    +0.002 A 
ATOM     15  C   UNL     1       0.577   1.367  -0.959  0.00  0.00    +0.028 A 
ATOM     16  C   UNL     1       0.755   2.650  -0.457  0.00  0.00    +0.070 A 
ENDBRANCH   5  16
BRANCH   8  17
ATOM     17  C   UNL     1       3.584   6.413  -2.020  0.00  0.00    +0.006 C 
ATOM     18  C   UNL     1       3.970   6.298  -3.495  0.00  0.00    +0.017 C 
ATOM     19  C   UNL     1       2.446   7.425  -1.868  0.00  0.00    +0.017 C 
ATOM     20  C   UNL     1       4.795   6.882  -1.210  0.00  0.00    +0.017 C 
ENDBRANCH   8  17
ENDBRANCH   1   6
BRANCH   2  21
ATOM     21  C   UNL     1       5.401   0.074   0.144  0.00  0.00    +0.204 C 
BRANCH  21  22
ATOM     22  N   UNL     1       6.866   0.051   0.181  0.00  0.00    -0.290 N 
ATOM     23  C   UNL     1       7.562  -0.301  -0.918  0.00  0.00    +0.247 C 
ATOM     24  O   UNL     1       6.978  -0.715  -1.901  0.00  0.00    -0.270 OA
BRANCH  23  25
ATOM     25  C   UNL     1       9.036  -0.186  -0.928  0.00  0.00    +0.037 A 
ATOM     26  C   UNL     1       9.758  -0.326   0.258  0.00  0.00    +0.013 A 
ATOM     27  C   UNL     1      11.133  -0.222   0.242  0.00  0.00    +0.005 A 
ATOM     28  C   UNL     1      11.796   0.031  -0.946  0.00  0.00    -0.042 A 
ATOM     29  C   UNL     1      11.086   0.175  -2.125  0.00  0.00    +0.005 A 
ATOM     30  C   UNL     1       9.711   0.068  -2.123  0.00  0.00    +0.013 A 
BRANCH  28  31
ATOM     31  C   UNL     1      13.299   0.149  -0.956  0.00  0.00    -0.013 C 
ATOM     32  C   UNL     1      13.698   1.536  -1.463  0.00  0.00    +0.015 C 
ATOM     33  C   UNL     1      13.835  -0.050   0.463  0.00  0.00    +0.015 C 
ATOM     34  C   UNL     1      13.888  -0.920  -1.878  0.00  0.00    +0.015 C 
ENDBRANCH  28  31
ENDBRANCH  23  25
BRANCH  22  35
ATOM     35  C   UNL     1       7.573   0.412   1.411  0.00  0.00    +0.090 C 
BRANCH  35  36
ATOM     36  C   UNL     1       7.586  -0.786   2.363  0.00  0.00    -0.060 C 
BRANCH  36  39
ATOM     37  C   UNL     1       7.561   0.607   4.343  0.00  0.00    -0.097 C 
ATOM     38  C   UNL     1       8.536  -1.608   4.433  0.00  0.00    -0.097 C 
ATOM     39  N   UNL     1       8.321  -0.413   3.590  0.00  0.00    +0.377 N 
ATOM     40  H   UNL     1       9.233  -0.022   3.326  0.00  0.00    -0.083 HD
ENDBRANCH  36  39
ENDBRANCH  35  36
ENDBRANCH  22  35
ENDBRANCH  21  22
ENDBRANCH   2  21
TORSDOF 10
