REMARK  Name = ZINC12509963
REMARK  7 active torsions:
REMARK  status: ('A' for Active; 'I' for Inactive)
REMARK    1  A    between atoms: C_1  and  C_2
REMARK    2  A    between atoms: C_3  and  C_14
REMARK    3  A    between atoms: N_8  and  C_11
REMARK    4  A    between atoms: C_11  and  C_12
REMARK    5  A    between atoms: C_11  and  C_13
REMARK    6  A    between atoms: N_16  and  N_17
REMARK    7  A    between atoms: N_17  and  C_18
REMARK                            x       y       z     vdW  Elec       q    Type
REMARK                         _______ _______ _______ _____ _____    ______ ____
ROOT
ATOM      1  C   UNL     1      -0.157   0.045  -2.499  0.00  0.00    +0.262 C 
ATOM      2  O   UNL     1      -0.195   1.260  -2.470  0.00  0.00    -0.269 OA
ATOM      3  N   UNL     1      -0.348  -0.607  -3.662  0.00  0.00    -0.232 N 
ATOM      4  H   UNL     1      -0.318  -1.576  -3.685  0.00  0.00    +0.173 HD
ENDROOT
BRANCH   1   7
ATOM      5  C   UNL     1      -0.066   1.432   0.032  0.00  0.00    +0.066 C 
ATOM      6  C   UNL     1       0.146  -0.059  -0.021  0.00  0.00    +0.053 A 
ATOM      7  C   UNL     1       0.098  -0.715  -1.259  0.00  0.00    +0.060 A 
ATOM      8  C   UNL     1       0.300  -2.095  -1.305  0.00  0.00    +0.028 A 
ATOM      9  C   UNL     1       0.531  -2.764  -0.102  0.00  0.00    +0.039 A 
ATOM     10  C   UNL     1       0.774  -4.158   0.256  0.00  0.00    +0.144 A 
ATOM     11  N   UNL     1       0.926  -4.212   1.548  0.00  0.00    -0.177 NA
ATOM     12  N   UNL     1       0.801  -2.934   2.101  0.00  0.00    -0.244 N 
ATOM     13  C   UNL     1       0.558  -2.032   1.104  0.00  0.00    +0.159 A 
ATOM     14  N   UNL     1       0.366  -0.717   1.093  0.00  0.00    -0.232 NA
BRANCH  12  15
ATOM     15  C   UNL     1       0.912  -2.613   3.526  0.00  0.00    +0.103 C 
ATOM     16  C   UNL     1      -0.160  -3.377   4.306  0.00  0.00    +0.032 C 
ATOM     17  C   UNL     1       2.297  -3.018   4.034  0.00  0.00    +0.032 C 
ENDBRANCH  12  15
ENDBRANCH   1   7
BRANCH   3  18
ATOM     18  N   UNL     1      -0.591   0.115  -4.838  0.00  0.00    -0.261 N 
ATOM     19  H   UNL     1      -0.538   1.083  -4.833  0.00  0.00    +0.170 HD
BRANCH  18  20
ATOM     20  C   UNL     1      -0.908  -0.562  -6.021  0.00  0.00    +0.081 A 
ATOM     21  C   UNL     1      -0.463  -0.073  -7.243  0.00  0.00    +0.066 A 
ATOM     22  C   UNL     1      -0.773  -0.747  -8.410  0.00  0.00    +0.042 A 
ATOM     23  C   UNL     1      -1.536  -1.900  -8.362  0.00  0.00    +0.044 A 
ATOM     24  C   UNL     1      -1.986  -2.386  -7.147  0.00  0.00    +0.042 A 
ATOM     25  C   UNL     1      -1.673  -1.720  -5.977  0.00  0.00    +0.066 A 
ATOM     26 CL   UNL     1      -2.237  -2.332  -4.453  0.00  0.00    -0.081 Cl
ATOM     27 CL   UNL     1      -1.931  -2.739  -9.830  0.00  0.00    -0.083 Cl
ATOM     28 CL   UNL     1       0.489   1.377  -7.305  0.00  0.00    -0.081 Cl
ENDBRANCH  18  20
ENDBRANCH   3  18
TORSDOF 4
