REMARK  Name = ZINC44713682
REMARK  7 active torsions:
REMARK  status: ('A' for Active; 'I' for Inactive)
REMARK    1  A    between atoms: C_1  and  C_2
REMARK    2  A    between atoms: C_3  and  C_9
REMARK    3  A    between atoms: C_4  and  C_8
REMARK    4  A    between atoms: C_9  and  C_11
REMARK    5  A    between atoms: C_9  and  N_12
REMARK    6  A    between atoms: C_13  and  C_15
REMARK    7  A    between atoms: C_26  and  C_28
REMARK                            x       y       z     vdW  Elec       q    Type
REMARK                         _______ _______ _______ _____ _____    ______ ____
ROOT
ATOM      1  C   UNL     1       2.597  -1.143  -5.003  0.00  0.00    +0.100 C 
ATOM      2  C   UNL     1       3.948  -1.360  -4.284  0.00  0.00    +0.121 C 
ATOM      3  N   UNL     1       4.959  -1.319  -5.367  0.00  0.00    -0.296 N 
ATOM      4  C   UNL     1       4.489  -0.241  -6.270  0.00  0.00    +0.115 C 
ATOM      5  C   UNL     1       2.957  -0.409  -6.306  0.00  0.00    -0.004 C 
ATOM      6  C   UNL     1       2.278   0.957  -6.346  0.00  0.00    -0.010 C 
ATOM      7  C   UNL     1       2.603   1.645  -7.676  0.00  0.00    -0.082 C 
ATOM      8  N   UNL     1       2.133   0.809  -8.788  0.00  0.00    +0.379 N 
ATOM      9  C   UNL     1       2.858  -0.467  -8.796  0.00  0.00    -0.082 C 
ATOM     10  C   UNL     1       2.544  -1.243  -7.514  0.00  0.00    -0.010 C 
ATOM     11  C   UNL     1       6.058  -2.088  -5.500  0.00  0.00    +0.247 C 
ATOM     12  O   UNL     1       6.844  -1.874  -6.402  0.00  0.00    -0.270 OA
ATOM     13  H   UNL     1       1.146   0.633  -8.680  0.00  0.00    -0.086 HD
ATOM     14  H   UNL     1       2.293   1.292  -9.659  0.00  0.00    -0.086 HD
ENDROOT
BRANCH  11  15
ATOM     15  C   UNL     1       6.308  -3.191  -4.549  0.00  0.00    +0.045 A 
ATOM     16  C   UNL     1       6.243  -2.958  -3.171  0.00  0.00    +0.014 A 
ATOM     17  C   UNL     1       6.475  -3.985  -2.281  0.00  0.00    +0.001 A 
ATOM     18  C   UNL     1       6.775  -5.258  -2.741  0.00  0.00    +0.012 A 
ATOM     19  C   UNL     1       6.844  -5.510  -4.106  0.00  0.00    +0.031 A 
ATOM     20  C   UNL     1       6.604  -4.475  -5.024  0.00  0.00    +0.006 A 
ATOM     21  C   UNL     1       6.734  -5.017  -6.399  0.00  0.00    -0.006 A 
ATOM     22  C   UNL     1       6.603  -4.421  -7.647  0.00  0.00    +0.009 A 
ATOM     23  C   UNL     1       6.780  -5.175  -8.797  0.00  0.00    +0.001 A 
ATOM     24  C   UNL     1       7.088  -6.519  -8.713  0.00  0.00    +0.001 A 
ATOM     25  C   UNL     1       7.222  -7.128  -7.476  0.00  0.00    +0.012 A 
ATOM     26  C   UNL     1       7.048  -6.385  -6.315  0.00  0.00    +0.030 A 
ATOM     27  C   UNL     1       7.137  -6.741  -4.878  0.00  0.00    +0.194 C 
ATOM     28  O   UNL     1       7.389  -7.837  -4.421  0.00  0.00    -0.287 OA
ENDBRANCH  11  15
BRANCH   1  30
ATOM     29  N   UNL     1       0.349  -0.345  -4.349  0.00  0.00    -0.308 N 
ATOM     30  C   UNL     1       1.683  -0.295  -4.158  0.00  0.00    +0.219 C 
ATOM     31  O   UNL     1       2.146   0.431  -3.305  0.00  0.00    -0.275 OA
ATOM     32  H   UNL     1      -0.021  -0.927  -5.032  0.00  0.00    +0.149 HD
BRANCH  29  33
ATOM     33  C   UNL     1      -0.540   0.479  -3.527  0.00  0.00    +0.104 C 
ATOM     34  C   UNL     1      -0.652   1.876  -4.140  0.00  0.00    +0.033 C 
BRANCH  33  37
ATOM     35  C   UNL     1      -2.300   0.113  -0.967  0.00  0.00    +0.065 C 
ATOM     36  C   UNL     1      -2.666  -0.314  -2.365  0.00  0.00    +0.038 A 
ATOM     37  C   UNL     1      -1.905  -0.156  -3.473  0.00  0.00    +0.015 A 
ATOM     38  C   UNL     1      -2.611  -0.686  -4.558  0.00  0.00    +0.065 A 
ATOM     39  N   UNL     1      -3.754  -1.146  -4.118  0.00  0.00    -0.179 NA
ATOM     40  N   UNL     1      -3.810  -0.927  -2.735  0.00  0.00    -0.281 N 
ATOM     41  H   UNL     1      -4.543  -1.171  -2.148  0.00  0.00    +0.189 HD
ATOM     42  C   UNL     1      -2.136  -0.721  -5.988  0.00  0.00    +0.068 C 
ENDBRANCH  33  37
ENDBRANCH  29  33
ENDBRANCH   1  30
TORSDOF 4
