REMARK  Name = ZINC01190722
REMARK  4 active torsions:
REMARK  status: ('A' for Active; 'I' for Inactive)
REMARK    1  A    between atoms: C_1  and  C_2
REMARK    2  A    between atoms: C_2  and  S_3
REMARK    3  A    between atoms: S_3  and  C_4
REMARK    4  A    between atoms: C_17  and  C_20
REMARK                            x       y       z     vdW  Elec       q    Type
REMARK                         _______ _______ _______ _____ _____    ______ ____
ROOT
ATOM      1  C   UNL     1       0.076   0.284   4.390  0.00  0.00    +0.212 A 
ATOM      2  N   UNL     1      -0.520   0.327   3.202  0.00  0.00    -0.184 NA
ATOM      3  C   UNL     1      -0.219   1.303   2.362  0.00  0.00    +0.248 A 
ATOM      4  C   UNL     1       0.735   2.268   2.757  0.00  0.00    +0.156 A 
ATOM      5  N   UNL     1       1.290   2.169   3.955  0.00  0.00    -0.141 NA
ATOM      6  N   UNL     1       0.966   1.203   4.743  0.00  0.00    -0.122 NA
ATOM      7  C   UNL     1       1.093   3.361   1.830  0.00  0.00    +0.028 A 
ATOM      8  C   UNL     1       1.156   4.683   2.253  0.00  0.00    +0.012 A 
ATOM      9  C   UNL     1       1.527   5.672   1.363  0.00  0.00    +0.001 A 
ATOM     10  C   UNL     1       1.835   5.355   0.052  0.00  0.00    +0.002 A 
ATOM     11  C   UNL     1       1.770   4.045  -0.385  0.00  0.00    +0.024 A 
ATOM     12  C   UNL     1       1.395   3.044   0.492  0.00  0.00    +0.039 A 
ATOM     13  N   UNL     1       1.304   1.711   0.081  0.00  0.00    -0.305 N 
ATOM     14  C   UNL     1      -0.013   1.086   0.008  0.00  0.00    +0.297 C 
ATOM     15  O   UNL     1      -0.808   1.395   1.147  0.00  0.00    -0.449 OA
ATOM     16  H   UNL     1       2.102   1.210  -0.152  0.00  0.00    +0.150 HD
ENDROOT
BRANCH  14  17
ATOM     17  C   UNL     1      -0.720   1.574  -1.230  0.00  0.00    +0.046 A 
ATOM     18  C   UNL     1      -2.083   1.802  -1.204  0.00  0.00    +0.012 A 
ATOM     19  C   UNL     1      -2.731   2.250  -2.339  0.00  0.00    +0.001 A 
ATOM     20  C   UNL     1      -2.017   2.471  -3.503  0.00  0.00    +0.003 A 
ATOM     21  C   UNL     1      -0.655   2.243  -3.531  0.00  0.00    +0.039 A 
ATOM     22  C   UNL     1      -0.003   1.799  -2.393  0.00  0.00    +0.132 A 
ATOM     23  F   UNL     1       1.330   1.581  -2.419  0.00  0.00    -0.205 F 
ENDBRANCH  14  17
BRANCH   1  24
ATOM     24  S   UNL     1      -0.322  -1.014   5.513  0.00  0.00    -0.085 S 
BRANCH  24  26
ATOM     25  C   UNL     1       0.573  -1.586   8.030  0.00  0.00    +0.016 C 
ATOM     26  C   UNL     1       0.752  -0.569   6.901  0.00  0.00    +0.074 C 
ENDBRANCH  24  26
ENDBRANCH   1  24
TORSDOF 3
