REMARK  Name = ZINC39325046
REMARK  8 active torsions:
REMARK  status: ('A' for Active; 'I' for Inactive)
REMARK    1  A    between atoms: C_1  and  C_2
REMARK    2  A    between atoms: C_2  and  C_3
REMARK    3  A    between atoms: C_6  and  C_9
REMARK    4  A    between atoms: C_14  and  C_29
REMARK    5  A    between atoms: C_19  and  C_27
REMARK    6  A    between atoms: C_20  and  N_26
REMARK    7  A    between atoms: C_21  and  C_22
REMARK    8  A    between atoms: C_21  and  C_24
REMARK                            x       y       z     vdW  Elec       q    Type
REMARK                         _______ _______ _______ _____ _____    ______ ____
ROOT
ATOM      1  C   UNL     1      -5.419  -2.005   0.043  0.00  0.00    +0.066 C 
ATOM      2  C   UNL     1      -5.498  -3.286  -0.790  0.00  0.00    +0.031 C 
ATOM      3  C   UNL     1      -4.438  -4.284  -0.390  0.00  0.00    +0.012 C 
ATOM      4  C   UNL     1      -4.990  -5.358   0.546  0.00  0.00    -0.010 C 
ATOM      5  C   UNL     1      -6.137  -6.082  -0.173  0.00  0.00    +0.030 C 
ATOM      6  C   UNL     1      -7.208  -5.065  -0.470  0.00  0.00    -0.021 C 
ATOM      7  C   UNL     1      -6.897  -3.820  -0.702  0.00  0.00    -0.029 C 
ATOM      8  C   UNL     1      -8.003  -2.840  -0.864  0.00  0.00    +0.074 C 
ATOM      9  C   UNL     1      -7.732  -1.512  -0.785  0.00  0.00    +0.054 C 
ATOM     10  C   UNL     1      -6.356  -0.959  -0.562  0.00  0.00    +0.188 C 
ATOM     11  C   UNL     1      -3.886  -6.358   0.893  0.00  0.00    +0.008 C 
ENDROOT
BRANCH   1  15
ATOM     12  C   UNL     1      -1.412  -0.526   0.013  0.00  0.00    -0.048 A 
ATOM     13  C   UNL     1      -2.125  -0.567   1.197  0.00  0.00    +0.004 A 
ATOM     14  C   UNL     1      -3.421  -1.045   1.206  0.00  0.00    +0.004 A 
ATOM     15  C   UNL     1      -4.006  -1.482   0.032  0.00  0.00    -0.041 A 
ATOM     16  C   UNL     1      -3.293  -1.440  -1.151  0.00  0.00    +0.004 A 
ATOM     17  C   UNL     1      -1.998  -0.958  -1.162  0.00  0.00    +0.004 A 
BRANCH  12  19
ATOM     18  C   UNL     1      -0.013   1.506  -0.245  0.00  0.00    +0.009 C 
ATOM     19  C   UNL     1       0.002  -0.004   0.003  0.00  0.00    +0.032 C 
ENDBRANCH  12  19
ENDBRANCH   1  15
BRANCH   9  20
ATOM     20  N   UNL     1      -8.769  -0.632  -0.915  0.00  0.00    -0.358 N 
ATOM     21  H   UNL     1      -9.669  -0.962  -1.059  0.00  0.00    +0.142 HD
ATOM     22  H   UNL     1      -8.604   0.322  -0.864  0.00  0.00    +0.142 HD
ENDBRANCH   9  20
BRANCH  10  23
ATOM     23  C   UNL     1      -5.806  -0.509  -1.851  0.00  0.00    +0.091 C 
ATOM     24  N   UNL     1      -5.382  -0.162  -2.846  0.00  0.00    -0.194 NA
ENDBRANCH  10  23
BRANCH  10  25
ATOM     25  C   UNL     1      -6.442   0.194   0.350  0.00  0.00    +0.091 C 
ATOM     26  N   UNL     1      -6.508   1.083   1.054  0.00  0.00    -0.194 NA
ENDBRANCH  10  25
BRANCH   8  27
ATOM     27  C   UNL     1      -9.341  -3.292  -1.101  0.00  0.00    +0.101 C 
ATOM     28  N   UNL     1     -10.402  -3.650  -1.289  0.00  0.00    -0.191 NA
ENDBRANCH   8  27
TORSDOF 6
