REMARK  Name = ZINC40170191
REMARK  9 active torsions:
REMARK  status: ('A' for Active; 'I' for Inactive)
REMARK    1  A    between atoms: C_1  and  C_2
REMARK    2  A    between atoms: C_7  and  S_15
REMARK    3  A    between atoms: S_15  and  C_16
REMARK    4  A    between atoms: C_16  and  C_18
REMARK    5  A    between atoms: C_16  and  C_19
REMARK    6  A    between atoms: N_21  and  C_22
REMARK    7  A    between atoms: C_23  and  C_29
REMARK    8  A    between atoms: C_24  and  C_28
REMARK    9  A    between atoms: C_25  and  C_27
REMARK                            x       y       z     vdW  Elec       q    Type
REMARK                         _______ _______ _______ _____ _____    ______ ____
ROOT
ATOM      1  S   UNL     1       0.080  -5.506   0.740  0.00  0.00    -0.073 S 
ENDROOT
BRANCH   1   8
ATOM      2  C   UNL     1      -0.018   1.503   0.010  0.00  0.00    +0.044 C 
ATOM      3  C   UNL     1       0.002  -0.004   0.002  0.00  0.00    -0.038 A 
ATOM      4  C   UNL     1       0.006  -0.682  -1.168  0.00  0.00    +0.052 A 
ATOM      5  C   UNL     1       0.025  -2.097  -1.175  0.00  0.00    +0.162 A 
ATOM      6  N   UNL     1       0.032  -2.982  -2.155  0.00  0.00    -0.129 NA
ATOM      7  N   UNL     1       0.051  -4.172  -1.668  0.00  0.00    -0.122 NA
ATOM      8  C   UNL     1       0.056  -4.125  -0.354  0.00  0.00    +0.197 A 
ATOM      9  N   UNL     1       0.040  -2.809   0.004  0.00  0.00    -0.270 N 
ATOM     10  C   UNL     1       0.036  -2.159   1.225  0.00  0.00    +0.058 A 
ATOM     11  C   UNL     1       0.024  -0.753   1.262  0.00  0.00    +0.002 A 
ATOM     12  C   UNL     1       0.026  -0.090   2.493  0.00  0.00    +0.010 A 
ATOM     13  C   UNL     1       0.047  -0.820   3.661  0.00  0.00    +0.001 A 
ATOM     14  C   UNL     1       0.066  -2.206   3.621  0.00  0.00    +0.002 A 
ATOM     15  C   UNL     1       0.051  -2.875   2.415  0.00  0.00    +0.027 A 
ENDBRANCH   1   8
BRANCH   1  16
ATOM     16  C   UNL     1       0.095  -6.943  -0.366  0.00  0.00    +0.137 C 
ATOM     17  C   UNL     1      -1.215  -6.994  -1.155  0.00  0.00    +0.029 C 
BRANCH  16  18
ATOM     18  C   UNL     1       0.240  -8.203   0.448  0.00  0.00    +0.232 C 
ATOM     19  O   UNL     1      -0.119  -8.221   1.606  0.00  0.00    -0.274 OA
ATOM     20  N   UNL     1       0.769  -9.309  -0.110  0.00  0.00    -0.254 N 
ATOM     21  H   UNL     1       1.057  -9.295  -1.036  0.00  0.00    +0.158 HD
BRANCH  20  22
ATOM     22  C   UNL     1       0.903 -10.466   0.638  0.00  0.00    +0.210 A 
ATOM     23  C   UNL     1       1.432 -11.667   0.194  0.00  0.00    +0.115 A 
ATOM     24  C   UNL     1       1.356 -12.577   1.348  0.00  0.00    +0.010 A 
ATOM     25  C   UNL     1       0.809 -11.869   2.345  0.00  0.00    +0.109 A 
ATOM     26  O   UNL     1       0.547 -10.620   1.921  0.00  0.00    -0.445 OA
ATOM     27  C   UNL     1       0.533 -12.390   3.732  0.00  0.00    +0.086 C 
ATOM     28  C   UNL     1       1.804 -14.015   1.398  0.00  0.00    +0.049 C 
BRANCH  23  29
ATOM     29  C   UNL     1       1.944 -11.961  -1.111  0.00  0.00    +0.105 C 
ATOM     30  N   UNL     1       2.350 -12.193  -2.146  0.00  0.00    -0.191 NA
ENDBRANCH  23  29
ENDBRANCH  20  22
ENDBRANCH  16  18
ENDBRANCH   1  16
TORSDOF 5
