REMARK  Name = ZINC22785672
REMARK  6 active torsions:
REMARK  status: ('A' for Active; 'I' for Inactive)
REMARK    1  A    between atoms: C_1  and  C_2
REMARK    2  A    between atoms: C_5  and  C_7
REMARK    3  A    between atoms: C_16  and  C_18
REMARK    4  A    between atoms: C_18  and  N_19
REMARK    5  A    between atoms: N_22  and  C_25
REMARK    6  A    between atoms: C_25  and  C_26
REMARK                            x       y       z     vdW  Elec       q    Type
REMARK                         _______ _______ _______ _____ _____    ______ ____
ROOT
ATOM      1  C   UNL     1       4.984  -6.163  -3.549  0.00  0.00    +0.158 C 
ENDROOT
BRANCH   1  11
ATOM      2  C   UNL     1       1.040  -4.033  -0.026  0.00  0.00    +0.010 A 
ATOM      3  C   UNL     1       0.587  -4.954   0.861  0.00  0.00    +0.057 A 
ATOM      4  S   UNL     1       1.512  -6.420   0.444  0.00  0.00    -0.076 S 
ATOM      5  C   UNL     1       2.475  -5.771  -0.897  0.00  0.00    +0.116 A 
ATOM      6  C   UNL     1       2.055  -4.435  -0.995  0.00  0.00    +0.080 A 
ATOM      7  C   UNL     1       2.682  -3.661  -2.022  0.00  0.00    +0.260 A 
ATOM      8  O   UNL     1       2.385  -2.489  -2.182  0.00  0.00    -0.267 OA
ATOM      9  N   UNL     1       3.603  -4.246  -2.809  0.00  0.00    -0.309 N 
ATOM     10  H   UNL     1       4.032  -3.727  -3.507  0.00  0.00    +0.170 HD
ATOM     11  C   UNL     1       3.946  -5.550  -2.644  0.00  0.00    +0.125 A 
ATOM     12  N   UNL     1       3.398  -6.279  -1.710  0.00  0.00    -0.225 NA
BRANCH   2  17
ATOM     13  C   UNL     1      -0.018   1.503   0.010  0.00  0.00    +0.051 C 
ATOM     14  C   UNL     1       0.002  -0.004   0.002  0.00  0.00    -0.013 A 
ATOM     15  C   UNL     1      -1.042  -0.871   0.002  0.00  0.00    +0.011 A 
ATOM     16  C   UNL     1      -0.789  -2.227  -0.007  0.00  0.00    +0.016 A 
ATOM     17  C   UNL     1       0.512  -2.653  -0.016  0.00  0.00    +0.021 A 
ATOM     18  S   UNL     1       1.406  -1.107  -0.018  0.00  0.00    -0.093 S 
ENDBRANCH   2  17
ENDBRANCH   1  11
BRANCH   1  19
ATOM     19  N   UNL     1       5.185  -7.571  -3.181  0.00  0.00    -0.299 NA
ATOM     20  C   UNL     1       3.978  -8.364  -3.455  0.00  0.00    +0.066 C 
ATOM     21  C   UNL     1       4.207  -9.808  -3.003  0.00  0.00    -0.063 C 
ATOM     22  N   UNL     1       5.357 -10.370  -3.724  0.00  0.00    +0.384 N 
ATOM     23  C   UNL     1       6.559  -9.582  -3.421  0.00  0.00    -0.063 C 
ATOM     24  C   UNL     1       6.350  -8.136  -3.876  0.00  0.00    +0.066 C 
ATOM     25  H   UNL     1       5.178 -10.342  -4.717  0.00  0.00    -0.081 HD
BRANCH  22  26
ATOM     26  C   UNL     1       5.565 -11.762  -3.304  0.00  0.00    -0.043 C 
BRANCH  26  27
ATOM     27  C   UNL     1       6.665 -12.377  -4.130  0.00  0.00    -0.060 A 
ATOM     28  C   UNL     1       6.361 -13.017  -5.316  0.00  0.00    +0.005 A 
ATOM     29  C   UNL     1       7.366 -13.583  -6.078  0.00  0.00    +0.050 A 
ATOM     30  C   UNL     1       8.683 -13.509  -5.653  0.00  0.00    +0.166 A 
ATOM     31  C   UNL     1       8.989 -12.863  -4.457  0.00  0.00    +0.166 A 
ATOM     32  C   UNL     1       7.977 -12.294  -3.702  0.00  0.00    +0.051 A 
ATOM     33  O   UNL     1      10.339 -12.925  -4.262  0.00  0.00    -0.453 OA
ATOM     34  C   UNL     1      10.807 -13.966  -5.139  0.00  0.00    +0.466 C 
ATOM     35  O   UNL     1       9.840 -13.975  -6.206  0.00  0.00    -0.453 OA
ENDBRANCH  26  27
ENDBRANCH  22  26
ENDBRANCH   1  19
TORSDOF 5
