REMARK  Name = ZINC39482556
REMARK  11 active torsions:
REMARK  status: ('A' for Active; 'I' for Inactive)
REMARK    1  A    between atoms: C_1  and  C_2
REMARK    2  A    between atoms: C_6  and  C_23
REMARK    3  A    between atoms: C_16  and  C_17
REMARK    4  A    between atoms: C_23  and  O_25
REMARK    5  A    between atoms: O_25  and  C_26
REMARK    6  A    between atoms: C_26  and  C_27
REMARK    7  A    between atoms: N_29  and  C_30
REMARK    8  A    between atoms: C_30  and  C_32
REMARK    9  A    between atoms: C_30  and  C_33
REMARK   10  A    between atoms: C_33  and  O_34
REMARK   11  A    between atoms: O_34  and  C_35
REMARK                            x       y       z     vdW  Elec       q    Type
REMARK                         _______ _______ _______ _____ _____    ______ ____
ROOT
ATOM      1  C   UNL     1       0.225   1.394  -0.237  0.00  0.00    +0.008 C 
ATOM      2  C   UNL     1       0.340  -0.130  -0.162  0.00  0.00    -0.005 C 
ATOM      3  C   UNL     1       1.328  -0.619  -1.217  0.00  0.00    +0.041 C 
ATOM      4  C   UNL     1       1.575  -2.097  -1.089  0.00  0.00    -0.007 A 
ATOM      5  C   UNL     1       2.042  -2.796  -2.194  0.00  0.00    +0.073 A 
ATOM      6  C   UNL     1       2.279  -4.232  -2.039  0.00  0.00    +0.015 A 
ATOM      7  C   UNL     1       2.749  -5.014  -3.098  0.00  0.00    +0.011 A 
ATOM      8  C   UNL     1       2.956  -6.349  -2.909  0.00  0.00    +0.001 A 
ATOM      9  C   UNL     1       2.705  -6.943  -1.675  0.00  0.00    +0.002 A 
ATOM     10  C   UNL     1       2.247  -6.211  -0.623  0.00  0.00    +0.028 A 
ATOM     11  C   UNL     1       2.022  -4.830  -0.779  0.00  0.00    +0.072 A 
ATOM     12  N   UNL     1       1.572  -4.087   0.231  0.00  0.00    -0.247 NA
ATOM     13  C   UNL     1       1.347  -2.788   0.116  0.00  0.00    +0.072 A 
ATOM     14  C   UNL     1       0.837  -2.050   1.290  0.00  0.00    -0.018 C 
ATOM     15  C   UNL     1       0.382  -2.704   2.380  0.00  0.00    +0.052 C 
ATOM     16  C   UNL     1       0.840  -0.538   1.230  0.00  0.00    +0.041 C 
ENDROOT
BRANCH  15  17
ATOM     17  C   UNL     1       0.185  -4.153   2.336  0.00  0.00    +0.128 A 
ATOM     18  C   UNL     1       0.383  -5.023   3.371  0.00  0.00    +0.049 A 
ATOM     19  C   UNL     1       0.075  -6.305   2.886  0.00  0.00    +0.042 A 
ATOM     20  C   UNL     1      -0.292  -6.164   1.594  0.00  0.00    +0.195 A 
ATOM     21  O   UNL     1      -0.230  -4.864   1.267  0.00  0.00    -0.464 OA
ENDBRANCH  15  17
BRANCH   5  22
ATOM     22  C   UNL     1       2.292  -2.114  -3.481  0.00  0.00    +0.341 C 
ATOM     23  O   UNL     1       3.385  -1.639  -3.715  0.00  0.00    -0.245 OA
BRANCH  22  24
ATOM     24  O   UNL     1       1.307  -2.020  -4.395  0.00  0.00    -0.452 OA
BRANCH  24  25
ATOM     25  C   UNL     1       1.618  -1.348  -5.617  0.00  0.00    +0.328 C 
BRANCH  25  26
ATOM     26  C   UNL     1       0.404  -1.341  -6.510  0.00  0.00    +0.251 C 
ATOM     27  O   UNL     1      -0.626  -1.861  -6.137  0.00  0.00    -0.272 OA
ATOM     28  N   UNL     1       0.463  -0.757  -7.723  0.00  0.00    -0.308 N 
ATOM     29  H   UNL     1       1.287  -0.342  -8.022  0.00  0.00    +0.149 HD
BRANCH  28  30
ATOM     30  C   UNL     1      -0.717  -0.751  -8.591  0.00  0.00    +0.096 C 
ATOM     31  C   UNL     1      -0.774  -2.057  -9.385  0.00  0.00    +0.030 C 
BRANCH  30  32
ATOM     32  C   UNL     1      -0.631   0.431  -9.560  0.00  0.00    +0.181 C 
BRANCH  32  33
ATOM     33  O   UNL     1       0.482   0.248 -10.437  0.00  0.00    -0.381 OA
ATOM     34  C   UNL     1       0.653   1.302 -11.387  0.00  0.00    +0.194 C 
ENDBRANCH  32  33
ENDBRANCH  30  32
ENDBRANCH  28  30
ENDBRANCH  25  26
ENDBRANCH  24  25
ENDBRANCH  22  24
ENDBRANCH   5  22
TORSDOF 8
