REMARK  Name = ZINC09775597
REMARK  10 active torsions:
REMARK  status: ('A' for Active; 'I' for Inactive)
REMARK    1  A    between atoms: N_14  and  C_15
REMARK    2  A    between atoms: C_15  and  C_16
REMARK    3  A    between atoms: N_18  and  C_19
REMARK    4  A    between atoms: C_19  and  C_20
REMARK    5  A    between atoms: C_20  and  C_21
REMARK    6  A    between atoms: C_21  and  C_22
REMARK    7  A    between atoms: N_24  and  C_25
REMARK    8  A    between atoms: C_25  and  C_26
REMARK    9  A    between atoms: C_26  and  C_27
REMARK   10  A    between atoms: C_27  and  N_71
REMARK                            x       y       z     vdW  Elec       q    Type
REMARK                         _______ _______ _______ _____ _____    ______ ____
ROOT
ATOM      1  C   UNL     1       2.147  -6.037  -2.080  0.00  0.00    +0.233 C 
ATOM      2  O   UNL     1       1.407  -5.436  -2.830  0.00  0.00    -0.274 OA
ATOM      3  N   UNL     1       2.912  -7.042  -2.551  0.00  0.00    -0.314 N 
ATOM      4  H   UNL     1       3.504  -7.523  -1.952  0.00  0.00    +0.149 HD
ENDROOT
BRANCH   1   5
ATOM      5  C   UNL     1       2.213  -5.659  -0.623  0.00  0.00    +0.221 C 
BRANCH   5  19
ATOM      6  C   UNL     1       0.019  -4.832  -0.011  0.00  0.00    +0.203 A 
ATOM      7  N   UNL     1      -0.879  -3.905   0.240  0.00  0.00    -0.230 NA
ATOM      8  C   UNL     1      -0.494  -2.637   0.136  0.00  0.00    +0.116 A 
ATOM      9  C   UNL     1       0.812  -2.239  -0.226  0.00  0.00    +0.076 A 
ATOM     10  C   UNL     1       1.051  -0.808  -0.290  0.00  0.00    -0.023 A 
ATOM     11  C   UNL     1       0.002  -0.004   0.002  0.00  0.00    -0.004 A 
ATOM     12  S   UNL     1      -1.339  -1.106   0.372  0.00  0.00    -0.073 S 
ATOM     13  C   UNL     1      -0.018   1.493   0.010  0.00  0.00    +0.043 C 
ATOM     14  C   UNL     1       1.431   1.999  -0.001  0.00  0.00    +0.005 C 
ATOM     15  C   UNL     1       2.205   1.245  -1.085  0.00  0.00    +0.005 C 
ATOM     16  C   UNL     1       2.405  -0.211  -0.663  0.00  0.00    +0.037 C 
ATOM     17  C   UNL     1       1.762  -3.282  -0.491  0.00  0.00    +0.263 A 
ATOM     18  O   UNL     1       2.914  -3.045  -0.810  0.00  0.00    -0.267 OA
ATOM     19  N   UNL     1       1.295  -4.547  -0.365  0.00  0.00    -0.290 N 
ENDBRANCH   5  19
ENDBRANCH   1   5
BRANCH   3  20
ATOM     20  C   UNL     1       2.848  -7.409  -3.968  0.00  0.00    +0.104 C 
BRANCH  20  21
ATOM     21  C   UNL     1       3.807  -8.571  -4.238  0.00  0.00    +0.028 C 
BRANCH  21  22
ATOM     22  C   UNL     1       3.740  -8.954  -5.718  0.00  0.00    +0.097 C 
BRANCH  22  23
ATOM     23  C   UNL     1       4.684 -10.098  -5.983  0.00  0.00    +0.213 C 
ATOM     24  O   UNL     1       5.346 -10.561  -5.078  0.00  0.00    -0.276 OA
ATOM     25  N   UNL     1       4.794 -10.606  -7.226  0.00  0.00    -0.315 N 
ATOM     26  H   UNL     1       4.265 -10.236  -7.950  0.00  0.00    +0.149 HD
BRANCH  25  27
ATOM     27  C   UNL     1       5.712 -11.718  -7.485  0.00  0.00    +0.102 C 
BRANCH  27  28
ATOM     28  C   UNL     1       5.646 -12.102  -8.964  0.00  0.00    +0.000 C 
BRANCH  28  29
ATOM     29  C   UNL     1       6.604 -13.263  -9.234  0.00  0.00    -0.077 C 
BRANCH  29  36
ATOM     30  C   UNL     1       5.179 -14.077 -11.026  0.00  0.00    -0.079 C 
ATOM     31  C   UNL     1       5.125 -14.717 -12.387  0.00  0.00    -0.019 C 
ATOM     32  C   UNL     1       5.277 -16.244 -12.216  0.00  0.00    -0.002 C 
ATOM     33  C   UNL     1       6.664 -16.638 -11.996  0.00  0.00    -0.002 C 
ATOM     34  C   UNL     1       7.252 -16.013 -10.714  0.00  0.00    -0.019 C 
ATOM     35  C   UNL     1       7.618 -14.583 -11.005  0.00  0.00    -0.079 C 
ATOM     36  N   UNL     1       6.551 -13.579 -10.670  0.00  0.00    +0.380 N 
ATOM     37  H   UNL     1       6.734 -12.722 -11.205  0.00  0.00    -0.082 HD
ENDBRANCH  29  36
ENDBRANCH  28  29
ENDBRANCH  27  28
ENDBRANCH  25  27
ENDBRANCH  22  23
ENDBRANCH  21  22
ENDBRANCH  20  21
ENDBRANCH   3  20
TORSDOF 10
