REMARK  Name = ZINC49668346
REMARK  8 active torsions:
REMARK  status: ('A' for Active; 'I' for Inactive)
REMARK    1  A    between atoms: C_1  and  C_2
REMARK    2  A    between atoms: C_2  and  N_3
REMARK    3  A    between atoms: C_4  and  C_17
REMARK    4  A    between atoms: C_5  and  N_16
REMARK    5  A    between atoms: N_8  and  C_9
REMARK    6  A    between atoms: C_17  and  C_18
REMARK    7  A    between atoms: C_17  and  C_19
REMARK    8  A    between atoms: C_17  and  C_20
REMARK                            x       y       z     vdW  Elec       q    Type
REMARK                         _______ _______ _______ _____ _____    ______ ____
ROOT
ATOM      1  N   UNL     1       0.414  -0.640  -0.844  0.00  0.00    -0.279 N 
ATOM      2  C   UNL     1       1.583  -1.361  -0.868  0.00  0.00    +0.068 A 
ATOM      3  C   UNL     1       2.142  -1.223  -2.089  0.00  0.00    +0.113 A 
ATOM      4  C   UNL     1       1.300  -0.387  -2.866  0.00  0.00    +0.293 A 
ATOM      5  O   UNL     1       1.492  -0.046  -4.019  0.00  0.00    -0.264 OA
ATOM      6  N   UNL     1       0.245  -0.041  -2.100  0.00  0.00    -0.215 N 
ENDROOT
BRANCH   6   7
ATOM      7  C   UNL     1      -0.824   0.773  -2.487  0.00  0.00    +0.070 A 
ATOM      8  C   UNL     1      -0.584   1.955  -3.177  0.00  0.00    +0.028 A 
ATOM      9  C   UNL     1      -1.641   2.757  -3.559  0.00  0.00    +0.005 A 
ATOM     10  C   UNL     1      -2.938   2.386  -3.257  0.00  0.00    +0.038 A 
ATOM     11  C   UNL     1      -3.181   1.209  -2.570  0.00  0.00    +0.125 A 
ATOM     12  C   UNL     1      -2.127   0.398  -2.190  0.00  0.00    +0.066 A 
ATOM     13  F   UNL     1      -4.450   0.849  -2.276  0.00  0.00    -0.205 F 
ENDBRANCH   6   7
BRANCH   2  14
ATOM     14  C   UNL     1       2.146  -2.167   0.274  0.00  0.00    +0.006 C 
ATOM     15  C   UNL     1       3.545  -2.667  -0.095  0.00  0.00    +0.017 C 
ATOM     16  C   UNL     1       2.232  -1.290   1.524  0.00  0.00    +0.017 C 
ATOM     17  C   UNL     1       1.234  -3.364   0.552  0.00  0.00    +0.017 C 
ENDBRANCH   2  14
BRANCH   3  18
ATOM     18  N   UNL     1       3.353  -1.807  -2.517  0.00  0.00    -0.352 N 
ATOM     19  H   UNL     1       4.089  -1.909  -1.895  0.00  0.00    +0.143 HD
ATOM     20  H   UNL     1       3.448  -2.107  -3.435  0.00  0.00    +0.143 HD
ENDBRANCH   3  18
BRANCH   1  22
ATOM     21  C   UNL     1      -0.140   0.716   1.114  0.00  0.00    +0.029 C 
ATOM     22  C   UNL     1      -0.501  -0.524   0.293  0.00  0.00    +0.139 C 
ENDBRANCH   1  22
TORSDOF 4
