REMARK  Name = ZINC49469310
REMARK  7 active torsions:
REMARK  status: ('A' for Active; 'I' for Inactive)
REMARK    1  A    between atoms: C_1  and  C_2
REMARK    2  A    between atoms: C_3  and  C_12
REMARK    3  A    between atoms: C_5  and  C_7
REMARK    4  A    between atoms: N_17  and  C_19
REMARK    5  A    between atoms: C_19  and  C_20
REMARK    6  A    between atoms: C_20  and  N_21
REMARK    7  A    between atoms: N_24  and  C_25
REMARK                            x       y       z     vdW  Elec       q    Type
REMARK                         _______ _______ _______ _____ _____    ______ ____
ROOT
ATOM      1  C   UNL     1      -0.009  -0.173  -2.572  0.00  0.00    +0.100 A 
ATOM      2  C   UNL     1      -0.008  -1.078  -3.663  0.00  0.00    +0.036 A 
ATOM      3  C   UNL     1      -0.022  -0.566  -4.926  0.00  0.00    +0.074 A 
ATOM      4  C   UNL     1      -0.037   0.840  -5.070  0.00  0.00    +0.267 A 
ATOM      5  O   UNL     1      -0.050   1.343  -6.182  0.00  0.00    -0.266 OA
ATOM      6  N   UNL     1      -0.037   1.620  -3.973  0.00  0.00    -0.227 N 
ATOM      7  N   UNL     1      -0.028   1.123  -2.789  0.00  0.00    -0.168 NA
ENDROOT
BRANCH   1  10
ATOM      8  C   UNL     1      -0.018   1.503   0.010  0.00  0.00    +0.067 C 
ATOM      9  C   UNL     1       0.002  -0.004   0.002  0.00  0.00    +0.055 A 
ATOM     10  C   UNL     1       0.005  -0.689  -1.189  0.00  0.00    +0.062 A 
ATOM     11  S   UNL     1       0.031  -2.377  -0.599  0.00  0.00    -0.065 S 
ATOM     12  C   UNL     1       0.035  -1.998   1.149  0.00  0.00    +0.116 A 
ATOM     13  N   UNL     1       0.022  -0.668   1.129  0.00  0.00    -0.243 NA
BRANCH  12  14
ATOM     14  C   UNL     1       0.053  -2.912   2.300  0.00  0.00    +0.044 A 
ATOM     15  C   UNL     1       0.050  -2.614   3.650  0.00  0.00    +0.018 A 
ATOM     16  C   UNL     1       0.070  -3.654   4.550  0.00  0.00    +0.008 A 
ATOM     17  C   UNL     1       0.091  -4.932   4.089  0.00  0.00    +0.046 A 
ATOM     18  S   UNL     1       0.077  -4.697   2.319  0.00  0.00    -0.095 S 
ENDBRANCH  12  14
ENDBRANCH   1  10
BRANCH   6  19
ATOM     19  C   UNL     1      -0.051   3.076  -4.134  0.00  0.00    +0.166 C 
BRANCH  19  20
ATOM     20  C   UNL     1      -1.499   3.569  -4.180  0.00  0.00    +0.129 C 
BRANCH  20  21
ATOM     21  N   UNL     1      -1.514   5.025  -4.342  0.00  0.00    -0.297 N 
ATOM     22  C   UNL     1      -2.687   5.684  -4.408  0.00  0.00    +0.304 C 
ATOM     23  O   UNL     1      -3.734   5.070  -4.334  0.00  0.00    -0.252 OA
ATOM     24  N   UNL     1      -2.701   7.024  -4.556  0.00  0.00    -0.264 N 
ATOM     25  H   UNL     1      -0.678   5.515  -4.401  0.00  0.00    +0.150 HD
ATOM     26  H   UNL     1      -1.866   7.514  -4.616  0.00  0.00    +0.157 HD
BRANCH  24  27
ATOM     27  C   UNL     1      -3.919   7.707  -4.625  0.00  0.00    +0.073 A 
ATOM     28  C   UNL     1      -4.146   9.041  -4.777  0.00  0.00    +0.031 A 
ATOM     29  C   UNL     1      -5.453   9.494  -4.818  0.00  0.00    +0.009 A 
ATOM     30  C   UNL     1      -6.463   8.599  -4.706  0.00  0.00    +0.047 A 
ATOM     31  S   UNL     1      -5.579   7.057  -4.544  0.00  0.00    -0.082 S 
ENDBRANCH  24  27
ENDBRANCH  20  21
ENDBRANCH  19  20
ENDBRANCH   6  19
TORSDOF 6
