REMARK  Name = ZINC06281796
REMARK  9 active torsions:
REMARK  status: ('A' for Active; 'I' for Inactive)
REMARK    1  A    between atoms: C_1  and  C_2
REMARK    2  A    between atoms: C_9  and  C_14
REMARK    3  A    between atoms: C_14  and  C_16
REMARK    4  A    between atoms: C_14  and  N_69
REMARK    5  A    between atoms: N_20  and  C_21
REMARK    6  A    between atoms: C_26  and  C_27
REMARK    7  A    between atoms: C_26  and  N_69
REMARK    8  A    between atoms: C_33  and  C_34
REMARK    9  A    between atoms: C_33  and  N_69
REMARK                            x       y       z     vdW  Elec       q    Type
REMARK                         _______ _______ _______ _____ _____    ______ ____
ROOT
ATOM      1  C   UNL     1      -4.508   1.078  -0.052  0.00  0.00    +0.040 C 
ENDROOT
BRANCH   1  10
ATOM      2  C   UNL     1       2.733  -0.699   0.074  0.00  0.00    +0.044 C 
ATOM      3  C   UNL     1       1.630   0.325   0.145  0.00  0.00    -0.050 A 
ATOM      4  C   UNL     1       1.946   1.666   0.312  0.00  0.00    +0.005 A 
ATOM      5  C   UNL     1       0.953   2.620   0.380  0.00  0.00    +0.026 A 
ATOM      6  C   UNL     1      -0.380   2.236   0.279  0.00  0.00    +0.049 A 
ATOM      7  C   UNL     1      -0.696   0.876   0.104  0.00  0.00    -0.001 A 
ATOM      8  C   UNL     1       0.328  -0.075   0.044  0.00  0.00    +0.013 A 
ATOM      9  C   UNL     1      -2.102   0.483  -0.007  0.00  0.00    +0.017 A 
ATOM     10  C   UNL     1      -3.052   1.448   0.058  0.00  0.00    +0.011 A 
ATOM     11  C   UNL     1      -2.681   2.799   0.230  0.00  0.00    +0.251 A 
ATOM     12  O   UNL     1      -3.551   3.652   0.286  0.00  0.00    -0.268 OA
ATOM     13  N   UNL     1      -1.393   3.169   0.343  0.00  0.00    -0.322 N 
ATOM     14  H   UNL     1      -1.173   4.106   0.460  0.00  0.00    +0.169 HD
ENDBRANCH   1  10
BRANCH   1  15
ATOM     15  C   UNL     1      -5.089   1.690  -1.301  0.00  0.00    +0.143 A 
ATOM     16  N   UNL     1      -5.530   2.916  -1.439  0.00  0.00    -0.115 NA
ATOM     17  N   UNL     1      -5.946   3.056  -2.651  0.00  0.00    -0.023 NA
ATOM     18  N   UNL     1      -5.780   1.950  -3.289  0.00  0.00    -0.044 NA
ATOM     19  N   UNL     1      -5.250   1.085  -2.493  0.00  0.00    -0.227 N 
BRANCH  19  20
ATOM     20  C   UNL     1      -4.893  -0.297  -2.822  0.00  0.00    +0.111 C 
ATOM     21  C   UNL     1      -3.896  -0.319  -4.000  0.00  0.00    +0.027 C 
ATOM     22  C   UNL     1      -4.314  -1.560  -4.827  0.00  0.00    +0.002 C 
ATOM     23  C   UNL     1      -5.860  -1.531  -4.732  0.00  0.00    +0.002 C 
ATOM     24  C   UNL     1      -6.141  -1.067  -3.287  0.00  0.00    +0.027 C 
ENDBRANCH  19  20
ENDBRANCH   1  15
BRANCH   1  25
ATOM     25  N   UNL     1      -5.236   1.610   1.119  0.00  0.00    +0.395 N 
ATOM     26  H   UNL     1      -5.367   2.621   0.999  0.00  0.00    -0.079 HD
BRANCH  25  27
ATOM     27  C   UNL     1      -6.561   0.964   1.226  0.00  0.00    -0.041 C 
BRANCH  27  28
ATOM     28  C   UNL     1      -7.491   1.601   0.226  0.00  0.00    -0.064 A 
ATOM     29  C   UNL     1      -8.134   2.785   0.537  0.00  0.00    +0.002 A 
ATOM     30  C   UNL     1      -8.983   3.372  -0.382  0.00  0.00    +0.000 A 
ATOM     31  C   UNL     1      -9.198   2.770  -1.608  0.00  0.00    +0.000 A 
ATOM     32  C   UNL     1      -8.559   1.584  -1.917  0.00  0.00    +0.000 A 
ATOM     33  C   UNL     1      -7.706   0.999  -1.000  0.00  0.00    +0.002 A 
ENDBRANCH  27  28
ENDBRANCH  25  27
BRANCH  25  34
ATOM     34  C   UNL     1      -4.456   1.369   2.351  0.00  0.00    -0.040 C 
BRANCH  34  35
ATOM     35  C   UNL     1      -5.129   2.074   3.500  0.00  0.00    -0.046 A 
ATOM     36  C   UNL     1      -4.895   3.421   3.731  0.00  0.00    +0.005 A 
ATOM     37  C   UNL     1      -5.540   4.030   4.797  0.00  0.00    +0.020 A 
ATOM     38  C   UNL     1      -6.382   3.276   5.593  0.00  0.00    +0.111 A 
ATOM     39  N   UNL     1      -6.577   1.996   5.346  0.00  0.00    -0.263 NA
ATOM     40  C   UNL     1      -5.984   1.386   4.339  0.00  0.00    +0.112 A 
ENDBRANCH  34  35
ENDBRANCH  25  34
ENDBRANCH   1  25
TORSDOF 8
