REMARK  Name = ZINC05143488
REMARK  9 active torsions:
REMARK  status: ('A' for Active; 'I' for Inactive)
REMARK    1  A    between atoms: C_1  and  C_2
REMARK    2  A    between atoms: C_2  and  C_3
REMARK    3  A    between atoms: C_2  and  C_4
REMARK    4  A    between atoms: C_2  and  C_5
REMARK    5  A    between atoms: C_8  and  N_11
REMARK    6  A    between atoms: C_14  and  C_26
REMARK    7  A    between atoms: C_16  and  C_18
REMARK    8  A    between atoms: C_23  and  O_24
REMARK    9  A    between atoms: O_24  and  C_25
REMARK                            x       y       z     vdW  Elec       q    Type
REMARK                         _______ _______ _______ _____ _____    ______ ____
ROOT
ATOM      1  N   UNL     1      -6.107  -0.547   0.058  0.00  0.00    -0.245 N 
ATOM      2  C   UNL     1      -4.795  -0.109   0.047  0.00  0.00    +0.170 A 
ATOM      3  C   UNL     1      -4.840   1.298   0.055  0.00  0.00    +0.117 A 
ATOM      4  C   UNL     1      -3.638   2.005   0.047  0.00  0.00    +0.154 A 
ATOM      5  N   UNL     1      -2.494   1.318   0.037  0.00  0.00    -0.220 NA
ATOM      6  C   UNL     1      -2.495  -0.005   0.025  0.00  0.00    +0.166 A 
ATOM      7  N   UNL     1      -3.620  -0.713   0.032  0.00  0.00    -0.207 NA
ATOM      8  N   UNL     1      -6.176   1.656   0.070  0.00  0.00    -0.303 N 
ATOM      9  H   UNL     1      -6.522   2.562   0.078  0.00  0.00    +0.171 HD
ATOM     10  C   UNL     1      -6.916   0.530   0.071  0.00  0.00    +0.333 A 
ATOM     11  O   UNL     1      -8.132   0.491   0.083  0.00  0.00    -0.246 OA
ENDROOT
BRANCH   1  15
ATOM     12  C   UNL     1      -7.347  -4.527   0.048  0.00  0.00    -0.042 A 
ATOM     13  C   UNL     1      -8.286  -3.511   0.063  0.00  0.00    +0.006 A 
ATOM     14  C   UNL     1      -7.878  -2.192   0.067  0.00  0.00    +0.026 A 
ATOM     15  C   UNL     1      -6.524  -1.885   0.055  0.00  0.00    +0.053 A 
ATOM     16  C   UNL     1      -5.584  -2.906   0.034  0.00  0.00    +0.026 A 
ATOM     17  C   UNL     1      -5.998  -4.224   0.036  0.00  0.00    +0.006 A 
BRANCH  12  19
ATOM     18  C   UNL     1      -8.648  -6.230  -1.199  0.00  0.00    +0.015 C 
ATOM     19  C   UNL     1      -7.795  -5.965   0.044  0.00  0.00    -0.013 C 
ATOM     20  C   UNL     1      -6.570  -6.881   0.026  0.00  0.00    +0.015 C 
ATOM     21  C   UNL     1      -8.623  -6.245   1.300  0.00  0.00    +0.015 C 
ENDBRANCH  12  19
ENDBRANCH   1  15
BRANCH   6  22
ATOM     22  C   UNL     1      -1.198  -0.722   0.010  0.00  0.00    +0.061 A 
ATOM     23  C   UNL     1      -1.168  -2.116   0.002  0.00  0.00    +0.015 A 
ATOM     24  C   UNL     1       0.042  -2.779  -0.013  0.00  0.00    +0.001 A 
ATOM     25  C   UNL     1       1.228  -2.065  -0.021  0.00  0.00    +0.004 A 
ATOM     26  C   UNL     1       1.210  -0.683  -0.019  0.00  0.00    +0.046 A 
ATOM     27  C   UNL     1       0.002  -0.004   0.002  0.00  0.00    +0.131 A 
BRANCH  27  28
ATOM     28  O   UNL     1      -0.016   1.354   0.009  0.00  0.00    -0.494 OA
ATOM     29  C   UNL     1       1.248   2.020   0.001  0.00  0.00    +0.277 C 
ENDBRANCH  27  28
ENDBRANCH   6  22
BRANCH   4  30
ATOM     30  C   UNL     1      -3.631   3.486   0.055  0.00  0.00    +0.262 C 
ATOM     31  O   UNL     1      -4.680   4.098   0.068  0.00  0.00    -0.269 OA
ATOM     32  N   UNL     1      -2.460   4.154   0.047  0.00  0.00    -0.324 N 
ATOM     33  H   UNL     1      -1.623   3.665   0.037  0.00  0.00    +0.145 HD
ATOM     34  H   UNL     1      -2.456   5.124   0.052  0.00  0.00    +0.145 HD
ENDBRANCH   4  30
TORSDOF 5
