REMARK  Name = ZINC05605185
REMARK  2 active torsions:
REMARK  status: ('A' for Active; 'I' for Inactive)
REMARK    1  A    between atoms: N_10  and  C_13
REMARK    2  A    between atoms: N_22  and  O_23
REMARK                            x       y       z     vdW  Elec       q    Type
REMARK                         _______ _______ _______ _____ _____    ______ ____
ROOT
ATOM      1  C   UNL     1       0.050   1.396  -0.043  0.00  0.00    +0.005 A 
ATOM      2  C   UNL     1       1.270   2.059  -0.003  0.00  0.00    +0.018 A 
ATOM      3  C   UNL     1       2.438   1.324   0.029  0.00  0.00    +0.084 A 
ATOM      4  N   UNL     1       2.408   0.005   0.021  0.00  0.00    -0.350 N 
ATOM      5  C   UNL     1       1.266  -0.663  -0.017  0.00  0.00    +0.099 A 
ATOM      6  C   UNL     1       0.050   0.013  -0.050  0.00  0.00    +0.042 A 
ATOM      7  N   UNL     1       1.280  -2.053  -0.024  0.00  0.00    -0.314 N 
ATOM      8  C   UNL     1       2.547  -2.794  -0.123  0.00  0.00    +0.122 C 
ATOM      9  C   UNL     1       2.422  -3.822  -1.253  0.00  0.00    +0.104 C 
ATOM     10  N   UNL     1       1.232  -4.653  -1.026  0.00  0.00    -0.291 NA
ATOM     11  C   UNL     1       0.004  -3.848  -1.069  0.00  0.00    +0.104 C 
ATOM     12  C   UNL     1       0.030  -2.822   0.075  0.00  0.00    +0.122 C 
ATOM     13  H   UNL     1       3.243  -0.488   0.044  0.00  0.00    +0.166 HD
ENDROOT
BRANCH  10  14
ATOM     14  C   UNL     1       1.171  -5.759  -1.990  0.00  0.00    +0.105 C 
ATOM     15  C   UNL     1       2.377  -6.684  -1.782  0.00  0.00    +0.025 C 
ATOM     16  C   UNL     1       2.084  -8.016  -2.488  0.00  0.00    +0.002 C 
ATOM     17  C   UNL     1       2.163  -7.817  -4.003  0.00  0.00    +0.000 C 
ATOM     18  C   UNL     1       0.891  -7.154  -4.514  0.00  0.00    +0.000 C 
ATOM     19  C   UNL     1      -0.332  -7.817  -3.865  0.00  0.00    +0.006 C 
ATOM     20  C   UNL     1      -1.022  -6.779  -2.962  0.00  0.00    +0.056 C 
ATOM     21  C   UNL     1      -0.103  -6.529  -1.787  0.00  0.00    +0.074 C 
ATOM     22  N   UNL     1      -0.408  -6.969  -0.625  0.00  0.00    -0.095 NA
BRANCH  22  23
ATOM     23  O   UNL     1      -1.610  -7.694  -0.436  0.00  0.00    -0.409 OA
ATOM     24  H   UNL     1      -1.754  -7.986   0.475  0.00  0.00    +0.328 HD
ENDBRANCH  22  23
ENDBRANCH  10  14
TORSDOF 2
