REMARK  Name = ZINC13231355
REMARK  8 active torsions:
REMARK  status: ('A' for Active; 'I' for Inactive)
REMARK    1  A    between atoms: C_1  and  C_2
REMARK    2  A    between atoms: C_2  and  C_4
REMARK    3  A    between atoms: C_2  and  N_7
REMARK    4  A    between atoms: C_8  and  C_10
REMARK    5  A    between atoms: C_10  and  S_11
REMARK    6  A    between atoms: S_11  and  C_12
REMARK    7  A    between atoms: C_16  and  C_30
REMARK    8  A    between atoms: N_22  and  C_23
REMARK                            x       y       z     vdW  Elec       q    Type
REMARK                         _______ _______ _______ _____ _____    ______ ____
ROOT
ATOM      1  C   UNL     1      -4.064   1.851   0.031  0.00  0.00    +0.177 A 
ATOM      2  N   UNL     1      -3.832   3.140   0.043  0.00  0.00    -0.223 NA
ATOM      3  C   UNL     1      -4.842   4.042   0.047  0.00  0.00    +0.080 A 
ATOM      4  C   UNL     1      -4.591   5.417   0.053  0.00  0.00    +0.043 A 
ATOM      5  C   UNL     1      -5.659   6.306   0.064  0.00  0.00    +0.065 A 
ATOM      6  C   UNL     1      -6.978   5.832   0.067  0.00  0.00    +0.016 A 
ATOM      7  C   UNL     1      -7.235   4.491   0.061  0.00  0.00    +0.016 A 
ATOM      8  C   UNL     1      -6.178   3.581   0.051  0.00  0.00    +0.065 A 
ATOM      9  C   UNL     1      -6.410   2.128   0.044  0.00  0.00    +0.267 A 
ATOM     10  O   UNL     1      -7.537   1.670   0.048  0.00  0.00    -0.267 OA
ATOM     11  N   UNL     1      -5.325   1.321   0.035  0.00  0.00    -0.253 N 
ENDROOT
BRANCH  11  12
ATOM     12  C   UNL     1      -5.494  -0.071   0.028  0.00  0.00    +0.087 A 
ATOM     13  C   UNL     1      -5.566  -0.768   1.226  0.00  0.00    +0.029 A 
ATOM     14  C   UNL     1      -5.739  -2.139   1.216  0.00  0.00    +0.002 A 
ATOM     15  C   UNL     1      -5.827  -2.819   0.015  0.00  0.00    +0.003 A 
ATOM     16  C   UNL     1      -5.750  -2.129  -1.181  0.00  0.00    +0.040 A 
ATOM     17  C   UNL     1      -5.583  -0.756  -1.179  0.00  0.00    +0.147 A 
ATOM     18  F   UNL     1      -5.507  -0.082  -2.347  0.00  0.00    -0.203 F 
ENDBRANCH  11  12
BRANCH   5  19
ATOM     19  C   UNL     1      -5.403   7.763   0.070  0.00  0.00    +0.387 C 
ATOM     20  O   UNL     1      -4.261   8.178   0.067  0.00  0.00    -0.241 OA
ATOM     21  O   UNL     1      -6.434   8.628   0.080  0.00  0.00    -0.241 OA
ENDBRANCH   5  19
BRANCH   1  22
ATOM     22  S   UNL     1      -2.689   0.750   0.019  0.00  0.00    -0.078 S 
BRANCH  22  23
ATOM     23  C   UNL     1      -1.330   1.944   0.019  0.00  0.00    +0.173 C 
BRANCH  23  25
ATOM     24  N   UNL     1       1.143   1.898   0.001  0.00  0.00    -0.312 N 
ATOM     25  C   UNL     1      -0.014   1.209   0.009  0.00  0.00    +0.224 C 
ATOM     26  O   UNL     1       0.002  -0.004   0.002  0.00  0.00    -0.275 OA
ATOM     27  H   UNL     1       1.130   2.868   0.007  0.00  0.00    +0.149 HD
BRANCH  24  29
ATOM     28  C   UNL     1       2.819   0.817   1.417  0.00  0.00    +0.028 C 
ATOM     29  C   UNL     1       2.422   1.183  -0.015  0.00  0.00    +0.073 C 
BRANCH  29  30
ATOM     30  C   UNL     1       3.499   2.078  -0.630  0.00  0.00    +0.009 C 
ATOM     31  C   UNL     1       4.058   1.675  -1.996  0.00  0.00    +0.005 C 
ATOM     32  C   UNL     1       4.915   1.508  -0.739  0.00  0.00    +0.005 C 
ENDBRANCH  29  30
ENDBRANCH  24  29
ENDBRANCH  23  25
ENDBRANCH  22  23
ENDBRANCH   1  22
TORSDOF 7
