REMARK  Name = ZINC11843342
REMARK  5 active torsions:
REMARK  status: ('A' for Active; 'I' for Inactive)
REMARK    1  A    between atoms: C_1  and  C_2
REMARK    2  A    between atoms: C_7  and  N_8
REMARK    3  A    between atoms: N_11  and  C_12
REMARK    4  A    between atoms: N_16  and  C_17
REMARK    5  A    between atoms: C_23  and  C_25
REMARK                            x       y       z     vdW  Elec       q    Type
REMARK                         _______ _______ _______ _____ _____    ______ ____
ROOT
ATOM      1  C   UNL     1       2.123   0.685   0.006  0.00  0.00    +0.125 A 
ATOM      2  C   UNL     1       1.335  -0.424  -0.001  0.00  0.00    +0.065 A 
ATOM      3  C   UNL     1       0.002  -0.003   0.022  0.00  0.00    +0.136 A 
ATOM      4  N   UNL     1      -0.015   1.305   0.041  0.00  0.00    -0.178 NA
ATOM      5  N   UNL     1       1.308   1.765   0.032  0.00  0.00    -0.247 N 
ENDROOT
BRANCH   5   6
ATOM      6  C   UNL     1       1.734   3.166   0.046  0.00  0.00    +0.112 C 
ATOM      7  C   UNL     1       1.210   3.845   1.313  0.00  0.00    +0.046 C 
ATOM      8  C   UNL     1       1.687   5.301   1.343  0.00  0.00    +0.110 C 
ATOM      9  N   UNL     1       1.278   5.957   0.093  0.00  0.00    -0.298 N 
ATOM     10  C   UNL     1       1.653   5.338  -1.186  0.00  0.00    +0.110 C 
ATOM     11  C   UNL     1       1.177   3.882  -1.186  0.00  0.00    +0.046 C 
ATOM     12  C   UNL     1       0.573   7.105   0.119  0.00  0.00    +0.257 C 
ATOM     13  O   UNL     1       0.241   7.637  -0.919  0.00  0.00    -0.272 OA
BRANCH  12  14
ATOM     14  C   UNL     1       0.196   7.729   1.438  0.00  0.00    +0.263 C 
ATOM     15  C   UNL     1       1.458   8.186   2.209  0.00  0.00    +0.093 C 
ATOM     16  C   UNL     1       0.975   9.462   2.871  0.00  0.00    -0.002 A 
ATOM     17  C   UNL     1       1.486  10.220   3.901  0.00  0.00    +0.007 A 
ATOM     18  C   UNL     1       0.822  11.360   4.317  0.00  0.00    +0.000 A 
ATOM     19  C   UNL     1      -0.356  11.733   3.695  0.00  0.00    +0.004 A 
ATOM     20  C   UNL     1      -0.868  10.977   2.661  0.00  0.00    +0.046 A 
ATOM     21  C   UNL     1      -0.203   9.830   2.234  0.00  0.00    +0.125 A 
ATOM     22  O   UNL     1      -0.517   8.960   1.235  0.00  0.00    -0.479 OA
ENDBRANCH  12  14
ENDBRANCH   5   6
BRANCH   1  26
ATOM     23  N   UNL     1       5.556  -0.432  -0.053  0.00  0.00    -0.269 N 
ATOM     24  C   UNL     1       4.208  -0.452  -0.036  0.00  0.00    +0.309 C 
ATOM     25  O   UNL     1       3.615  -1.513  -0.044  0.00  0.00    -0.252 OA
ATOM     26  N   UNL     1       3.518   0.706  -0.011  0.00  0.00    -0.254 N 
ATOM     27  H   UNL     1       6.028   0.412  -0.129  0.00  0.00    +0.156 HD
ATOM     28  H   UNL     1       3.990   1.552  -0.005  0.00  0.00    +0.158 HD
BRANCH  23  35
ATOM     29  C   UNL     1       8.192  -0.504  -1.121  0.00  0.00    +0.045 C 
ATOM     30  C   UNL     1       7.564  -1.708  -0.468  0.00  0.00    -0.029 A 
ATOM     31  C   UNL     1       8.270  -2.891  -0.375  0.00  0.00    +0.005 A 
ATOM     32  C   UNL     1       7.695  -3.996   0.225  0.00  0.00    +0.000 A 
ATOM     33  C   UNL     1       6.411  -3.921   0.732  0.00  0.00    +0.002 A 
ATOM     34  C   UNL     1       5.701  -2.740   0.646  0.00  0.00    +0.023 A 
ATOM     35  C   UNL     1       6.274  -1.629   0.040  0.00  0.00    +0.038 A 
ENDBRANCH  23  35
ENDBRANCH   1  26
TORSDOF 4
