REMARK  Name = ZINC21258053
REMARK  12 active torsions:
REMARK  status: ('A' for Active; 'I' for Inactive)
REMARK    1  A    between atoms: C_1  and  C_2
REMARK    2  A    between atoms: C_2  and  C_3
REMARK    3  A    between atoms: C_2  and  O_4
REMARK    4  A    between atoms: O_4  and  C_5
REMARK    5  A    between atoms: C_8  and  C_11
REMARK    6  A    between atoms: C_16  and  C_26
REMARK    7  A    between atoms: C_29  and  O_36
REMARK    8  A    between atoms: C_30  and  O_34
REMARK    9  A    between atoms: C_31  and  O_32
REMARK   10  A    between atoms: O_32  and  C_33
REMARK   11  A    between atoms: O_34  and  C_35
REMARK   12  A    between atoms: O_36  and  C_37
REMARK                            x       y       z     vdW  Elec       q    Type
REMARK                         _______ _______ _______ _____ _____    ______ ____
ROOT
ATOM      1  C   UNL     1      -6.580   0.237  -3.694  0.00  0.00    +0.032 C 
ATOM      2  C   UNL     1      -5.140  -0.009  -3.246  0.00  0.00    +0.059 C 
ATOM      3  C   UNL     1      -4.541   1.278  -2.703  0.00  0.00    +0.017 C 
ATOM      4  C   UNL     1      -4.904   2.466  -3.214  0.00  0.00    +0.037 C 
ATOM      5  C   UNL     1      -4.371   3.814  -2.790  0.00  0.00    +0.140 C 
ATOM      6  N   UNL     1      -3.594   3.794  -1.559  0.00  0.00    -0.331 N 
ATOM      7  C   UNL     1      -2.380   3.110  -1.492  0.00  0.00    +0.049 A 
ATOM      8  C   UNL     1      -1.179   3.779  -1.333  0.00  0.00    +0.025 A 
ATOM      9  C   UNL     1       0.006   3.064  -1.358  0.00  0.00    +0.002 A 
ATOM     10  C   UNL     1      -0.008   1.693  -1.542  0.00  0.00    +0.002 A 
ATOM     11  C   UNL     1      -1.209   1.020  -1.685  0.00  0.00    +0.025 A 
ATOM     12  C   UNL     1      -2.396   1.732  -1.648  0.00  0.00    +0.052 A 
ATOM     13  N   UNL     1      -3.636   1.109  -1.706  0.00  0.00    -0.316 N 
ATOM     14  C   UNL     1      -5.873   2.532  -4.243  0.00  0.00    +0.163 C 
ATOM     15  O   UNL     1      -6.168   3.619  -4.701  0.00  0.00    -0.292 OA
ATOM     16  C   UNL     1      -6.551   1.311  -4.788  0.00  0.00    +0.088 C 
ATOM     17  H   UNL     1      -3.962   4.322  -0.667  0.00  0.00    +0.147 HD
ATOM     18  H   UNL     1      -3.865   0.439  -0.864  0.00  0.00    +0.152 HD
ENDROOT
BRANCH   1  22
ATOM     19  C   UNL     1      -8.249  -3.376  -5.251  0.00  0.00    +0.121 A 
ATOM     20  C   UNL     1      -8.833  -2.756  -4.156  0.00  0.00    +0.046 A 
ATOM     21  C   UNL     1      -8.291  -1.588  -3.654  0.00  0.00    +0.007 A 
ATOM     22  C   UNL     1      -7.168  -1.037  -4.243  0.00  0.00    -0.043 A 
ATOM     23  C   UNL     1      -6.588  -1.650  -5.338  0.00  0.00    +0.007 A 
ATOM     24  C   UNL     1      -7.122  -2.821  -5.839  0.00  0.00    +0.046 A 
BRANCH  19  25
ATOM     25  O   UNL     1      -8.780  -4.525  -5.745  0.00  0.00    -0.489 OA
BRANCH  25  27
ATOM     26  C   UNL     1     -11.178  -4.440  -5.462  0.00  0.00    +0.051 C 
ATOM     27  C   UNL     1      -9.870  -5.100  -5.022  0.00  0.00    +0.167 C 
ATOM     28  C   UNL     1      -9.935  -6.602  -5.308  0.00  0.00    +0.051 C 
ENDBRANCH  25  27
ENDBRANCH  19  25
ENDBRANCH   1  22
BRANCH   5  29
ATOM     29  C   UNL     1      -3.507   4.356  -3.899  0.00  0.00    +0.023 A 
ATOM     30  C   UNL     1      -2.955   3.494  -4.829  0.00  0.00    +0.013 A 
ATOM     31  C   UNL     1      -2.162   3.986  -5.848  0.00  0.00    +0.050 A 
ATOM     32  C   UNL     1      -1.917   5.348  -5.942  0.00  0.00    +0.165 A 
ATOM     33  C   UNL     1      -2.469   6.218  -5.010  0.00  0.00    +0.204 A 
ATOM     34  C   UNL     1      -3.271   5.719  -3.990  0.00  0.00    +0.170 A 
BRANCH  34  35
ATOM     35  O   UNL     1      -3.818   6.567  -3.078  0.00  0.00    -0.491 OA
ATOM     36  C   UNL     1      -3.006   6.928  -1.959  0.00  0.00    +0.277 C 
ENDBRANCH  34  35
BRANCH  33  37
ATOM     37  O   UNL     1      -2.231   7.554  -5.099  0.00  0.00    -0.488 OA
ATOM     38  C   UNL     1      -3.147   8.326  -5.878  0.00  0.00    +0.277 C 
ENDBRANCH  33  37
BRANCH  32  39
ATOM     39  O   UNL     1      -1.135   5.831  -6.945  0.00  0.00    -0.491 OA
ATOM     40  C   UNL     1      -0.600   4.879  -7.867  0.00  0.00    +0.277 C 
ENDBRANCH  32  39
ENDBRANCH   5  29
TORSDOF 7
