REMARK  Name = ZINC06077761
REMARK  14 active torsions:
REMARK  status: ('A' for Active; 'I' for Inactive)
REMARK    1  A    between atoms: C_1  and  C_2
REMARK    2  A    between atoms: C_2  and  C_3
REMARK    3  A    between atoms: C_3  and  C_4
REMARK    4  A    between atoms: C_3  and  C_5
REMARK    5  A    between atoms: C_3  and  N_6
REMARK    6  A    between atoms: C_7  and  C_11
REMARK    7  A    between atoms: C_11  and  C_13
REMARK    8  A    between atoms: C_11  and  N_78
REMARK    9  A    between atoms: C_17  and  O_25
REMARK   10  A    between atoms: O_25  and  C_26
REMARK   11  A    between atoms: C_26  and  C_27
REMARK   12  A    between atoms: N_30  and  C_33
REMARK   13  A    between atoms: C_37  and  C_40
REMARK   14  A    between atoms: C_38  and  C_39
REMARK                            x       y       z     vdW  Elec       q    Type
REMARK                         _______ _______ _______ _____ _____    ______ ____
ROOT
ATOM      1  C   UNL     1       3.531   0.648  -0.579  0.00  0.00    +0.039 C 
ENDROOT
BRANCH   1   2
ATOM      2  C   UNL     1       3.757   0.282  -2.024  0.00  0.00    +0.011 A 
ATOM      3  C   UNL     1       4.235   1.210  -2.889  0.00  0.00    +0.017 A 
ATOM      4  C   UNL     1       4.449   0.822  -4.284  0.00  0.00    +0.002 A 
ATOM      5  C   UNL     1       4.944   1.736  -5.220  0.00  0.00    +0.055 A 
ATOM      6  C   UNL     1       5.129   1.339  -6.529  0.00  0.00    +0.121 A 
ATOM      7  C   UNL     1       4.824   0.036  -6.918  0.00  0.00    +0.047 A 
ATOM      8  C   UNL     1       4.335  -0.873  -6.006  0.00  0.00    +0.030 A 
ATOM      9  C   UNL     1       4.142  -0.493  -4.682  0.00  0.00    +0.049 A 
ATOM     10  N   UNL     1       3.653  -1.389  -3.752  0.00  0.00    -0.322 N 
ATOM     11  H   UNL     1       3.436  -2.323  -4.036  0.00  0.00    +0.169 HD
ATOM     12  C   UNL     1       3.466  -1.024  -2.472  0.00  0.00    +0.251 A 
ATOM     13  O   UNL     1       3.033  -1.842  -1.679  0.00  0.00    -0.268 OA
BRANCH   6  14
ATOM     14  O   UNL     1       5.610   2.222  -7.443  0.00  0.00    -0.492 OA
BRANCH  14  15
ATOM     15  C   UNL     1       5.777   1.746  -8.780  0.00  0.00    +0.225 C 
ATOM     16  C   UNL     1       6.324   2.874  -9.658  0.00  0.00    +0.048 C 
ENDBRANCH  14  15
ENDBRANCH   6  14
ENDBRANCH   1   2
BRANCH   1  22
ATOM     17  C   UNL     1       3.989  -0.021   1.703  0.00  0.00    -0.058 C 
ATOM     18  C   UNL     1       4.700  -1.068   2.563  0.00  0.00    +0.086 C 
ATOM     19  N   UNL     1       6.143  -1.027   2.288  0.00  0.00    -0.333 N 
ATOM     20  C   UNL     1       6.413  -1.298   0.869  0.00  0.00    +0.086 C 
ATOM     21  C   UNL     1       5.702  -0.251   0.008  0.00  0.00    -0.058 C 
ATOM     22  N   UNL     1       4.250  -0.318   0.279  0.00  0.00    +0.391 N 
ATOM     23  H   UNL     1       3.915  -1.265   0.068  0.00  0.00    -0.080 HD
BRANCH  19  24
ATOM     24  C   UNL     1       6.835  -1.920   3.108  0.00  0.00    +0.033 A 
ATOM     25  C   UNL     1       6.603  -3.286   3.002  0.00  0.00    +0.023 A 
ATOM     26  C   UNL     1       7.289  -4.167   3.814  0.00  0.00    +0.002 A 
ATOM     27  C   UNL     1       8.207  -3.691   4.734  0.00  0.00    +0.004 A 
ATOM     28  C   UNL     1       8.440  -2.332   4.842  0.00  0.00    -0.046 A 
ATOM     29  C   UNL     1       7.761  -1.446   4.028  0.00  0.00    -0.027 A 
ATOM     30  C   UNL     1       8.021   0.034   4.143  0.00  0.00    +0.046 C 
ATOM     31  C   UNL     1       9.441  -1.818   5.845  0.00  0.00    +0.044 C 
ENDBRANCH  19  24
ENDBRANCH   1  22
BRANCH   1  33
ATOM     32  N   UNL     1       1.241   1.616  -0.008  0.00  0.00    -0.225 N 
ATOM     33  C   UNL     1       2.058   0.578  -0.268  0.00  0.00    +0.143 A 
ATOM     34  N   UNL     1       1.323  -0.505  -0.199  0.00  0.00    -0.115 NA
ATOM     35  N   UNL     1       0.118  -0.151   0.089  0.00  0.00    -0.023 NA
ATOM     36  N   UNL     1       0.065   1.130   0.205  0.00  0.00    -0.043 NA
BRANCH  32  37
ATOM     37  C   UNL     1       1.617   3.031   0.026  0.00  0.00    +0.061 C 
ATOM     38  C   UNL     1       2.636   3.262   1.144  0.00  0.00    +0.036 C 
ATOM     39  C   UNL     1       2.235   3.428  -1.317  0.00  0.00    +0.036 C 
BRANCH  37  41
ATOM     40  C   UNL     1       0.765   5.362   0.322  0.00  0.00    +0.006 C 
ATOM     41  C   UNL     1       0.373   3.883   0.286  0.00  0.00    +0.026 C 
ENDBRANCH  37  41
ENDBRANCH  32  37
ENDBRANCH   1  33
TORSDOF 8
