REMARK  Name = ZINC20220666
REMARK  8 active torsions:
REMARK  status: ('A' for Active; 'I' for Inactive)
REMARK    1  A    between atoms: C_1  and  O_2
REMARK    2  A    between atoms: O_2  and  C_3
REMARK    3  A    between atoms: C_3  and  C_5
REMARK    4  A    between atoms: C_9  and  N_10
REMARK    5  A    between atoms: N_10  and  C_11
REMARK    6  A    between atoms: C_11  and  N_13
REMARK    7  A    between atoms: N_13  and  N_14
REMARK    8  A    between atoms: C_15  and  C_17
REMARK                            x       y       z     vdW  Elec       q    Type
REMARK                         _______ _______ _______ _____ _____    ______ ____
ROOT
ATOM      1  C   UNL     1       2.369   1.025  -0.015  0.00  0.00    +0.151 C 
ATOM      2  S   UNL     1       3.840   1.901  -0.024  0.00  0.00    -0.017 S 
ENDROOT
BRANCH   1   3
ATOM      3  N   UNL     1       2.387  -0.323  -0.022  0.00  0.00    -0.290 N 
ATOM      4  H   UNL     1       1.442  -0.886  -0.017  0.00  0.00    +0.154 HD
BRANCH   3   9
ATOM      5  C   UNL     1       3.818  -2.370  -0.042  0.00  0.00    +0.091 A 
ATOM      6  C   UNL     1       5.198  -2.826  -0.063  0.00  0.00    -0.021 A 
ATOM      7  C   UNL     1       6.128  -1.847  -0.066  0.00  0.00    -0.004 A 
ATOM      8  S   UNL     1       5.198  -0.340  -0.049  0.00  0.00    -0.077 S 
ATOM      9  C   UNL     1       3.596  -0.999  -0.038  0.00  0.00    +0.086 A 
ATOM     10  C   UNL     1       7.616  -2.014  -0.080  0.00  0.00    +0.043 C 
ATOM     11  C   UNL     1       7.943  -3.468   0.287  0.00  0.00    +0.005 C 
ATOM     12  C   UNL     1       7.057  -4.399  -0.547  0.00  0.00    +0.005 C 
ATOM     13  C   UNL     1       5.605  -4.294  -0.076  0.00  0.00    +0.037 C 
BRANCH   5  14
ATOM     14  C   UNL     1       2.704  -3.320  -0.028  0.00  0.00    +0.342 C 
ATOM     15  O   UNL     1       2.228  -3.714  -1.076  0.00  0.00    -0.245 OA
BRANCH  14  17
ATOM     16  C   UNL     1       1.101  -4.699   1.083  0.00  0.00    +0.280 C 
ATOM     17  O   UNL     1       2.205  -3.758   1.146  0.00  0.00    -0.464 OA
ENDBRANCH  14  17
ENDBRANCH   5  14
ENDBRANCH   3   9
ENDBRANCH   1   3
BRANCH   1  18
ATOM     18  N   UNL     1       1.193   1.683  -0.000  0.00  0.00    -0.245 N 
ATOM     19  H   UNL     1       1.178   2.783   0.006  0.00  0.00    +0.172 HD
BRANCH  18  20
ATOM     20  N   UNL     1      -0.011   0.966   0.007  0.00  0.00    -0.231 N 
ATOM     21  C   UNL     1      -1.187   1.624   0.017  0.00  0.00    +0.261 C 
ATOM     22  O   UNL     1      -1.204   2.840   0.023  0.00  0.00    -0.269 OA
ATOM     23  H   UNL     1       0.004  -0.134   0.006  0.00  0.00    +0.173 HD
BRANCH  21  24
ATOM     24  C   UNL     1      -2.452   0.871   0.018  0.00  0.00    +0.049 A 
ATOM     25  C   UNL     1      -2.459  -0.507   0.011  0.00  0.00    +0.058 A 
ATOM     26  S   UNL     1      -4.148  -0.894   0.017  0.00  0.00    -0.101 S 
ATOM     27  C   UNL     1      -4.815   0.745   0.029  0.00  0.00    -0.006 A 
ATOM     28  C   UNL     1      -3.731   1.555   0.034  0.00  0.00    -0.025 A 
ATOM     29  C   UNL     1      -3.885   3.071   0.035  0.00  0.00    +0.037 C 
ATOM     30  C   UNL     1      -5.304   3.423  -0.414  0.00  0.00    +0.005 C 
ATOM     31  C   UNL     1      -6.324   2.646   0.424  0.00  0.00    +0.005 C 
ATOM     32  C   UNL     1      -6.253   1.161   0.039  0.00  0.00    +0.043 C 
ENDBRANCH  21  24
ENDBRANCH  18  20
ENDBRANCH   1  18
TORSDOF 7
