REMARK  Name = ZINC12643890
REMARK  6 active torsions:
REMARK  status: ('A' for Active; 'I' for Inactive)
REMARK    1  A    between atoms: C_4  and  N_11
REMARK    2  A    between atoms: C_5  and  C_7
REMARK    3  A    between atoms: C_12  and  C_14
REMARK    4  A    between atoms: C_14  and  N_15
REMARK    5  A    between atoms: C_24  and  N_26
REMARK    6  A    between atoms: C_27  and  C_29
REMARK                            x       y       z     vdW  Elec       q    Type
REMARK                         _______ _______ _______ _____ _____    ______ ____
ROOT
ATOM      1  N   UNL     1       7.178   0.263  -0.382  0.00  0.00    +0.389 N 
ATOM      2  C   UNL     1       7.275   1.075   0.829  0.00  0.00    -0.066 C 
ATOM      3  C   UNL     1       8.297   2.190   0.624  0.00  0.00    -0.015 C 
ATOM      4  C   UNL     1       9.655   1.645   0.199  0.00  0.00    -0.003 C 
ATOM      5  C   UNL     1       9.537   0.615  -0.917  0.00  0.00    -0.015 C 
ATOM      6  C   UNL     1       8.449  -0.415  -0.628  0.00  0.00    -0.066 C 
ATOM      7  C   UNL     1       8.841  -1.333   0.516  0.00  0.00    +0.007 C 
ATOM      8  C   UNL     1       8.833  -0.632   1.867  0.00  0.00    +0.070 C 
ATOM      9  C   UNL     1       7.600   0.241   2.055  0.00  0.00    +0.007 C 
ATOM     10  H   UNL     1       6.990   0.882  -1.166  0.00  0.00    -0.080 HD
ENDROOT
BRANCH   8  11
ATOM     11  N   UNL     1       8.848  -1.658   2.928  0.00  0.00    -0.306 N 
ATOM     12  C   UNL     1       9.339  -1.359   4.147  0.00  0.00    +0.280 C 
ATOM     13  O   UNL     1       9.770  -0.243   4.373  0.00  0.00    -0.267 OA
ATOM     14  H   UNL     1       8.505  -2.547   2.748  0.00  0.00    +0.149 HD
BRANCH  12  15
ATOM     15  C   UNL     1       9.354  -2.378   5.202  0.00  0.00    +0.189 A 
ATOM     16  C   UNL     1       9.815  -2.208   6.476  0.00  0.00    +0.054 A 
ATOM     17  C   UNL     1       9.638  -3.434   7.136  0.00  0.00    +0.042 A 
ATOM     18  C   UNL     1       9.083  -4.288   6.247  0.00  0.00    +0.196 A 
ATOM     19  O   UNL     1       8.909  -3.647   5.085  0.00  0.00    -0.458 OA
ENDBRANCH  12  15
ENDBRANCH   8  11
BRANCH   1  20
ATOM     20  C   UNL     1       6.083  -0.701  -0.278  0.00  0.00    +0.020 C 
BRANCH  20  22
ATOM     21  N   UNL     1       3.622  -0.651  -0.037  0.00  0.00    -0.287 N 
ATOM     22  C   UNL     1       4.775   0.037  -0.147  0.00  0.00    +0.201 C 
ATOM     23  O   UNL     1       4.761   1.250  -0.141  0.00  0.00    -0.278 OA
ATOM     24  H   UNL     1       3.639  -1.618   0.038  0.00  0.00    +0.155 HD
BRANCH  21  28
ATOM     25  C   UNL     1      -0.019   1.375  -0.023  0.00  0.00    +0.001 A 
ATOM     26  C   UNL     1       1.087   1.947  -0.626  0.00  0.00    +0.002 A 
ATOM     27  C   UNL     1       2.295   1.278  -0.633  0.00  0.00    +0.024 A 
ATOM     28  C   UNL     1       2.399   0.030  -0.032  0.00  0.00    +0.045 A 
ATOM     29  C   UNL     1       1.287  -0.541   0.573  0.00  0.00    +0.076 A 
ATOM     30  C   UNL     1       0.082   0.133   0.576  0.00  0.00    +0.014 A 
BRANCH  29  31
ATOM     31  C   UNL     1       1.396  -1.895   1.226  0.00  0.00    +0.419 C 
ATOM     32  F   UNL     1       0.155  -2.255   1.761  0.00  0.00    -0.166 F 
ATOM     33  F   UNL     1       1.785  -2.842   0.273  0.00  0.00    -0.166 F 
ATOM     34  F   UNL     1       2.349  -1.845   2.249  0.00  0.00    -0.166 F 
ENDBRANCH  29  31
ENDBRANCH  21  28
ENDBRANCH  20  22
ENDBRANCH   1  20
TORSDOF 6
