REMARK  Name = ZINC05567927
REMARK  6 active torsions:
REMARK  status: ('A' for Active; 'I' for Inactive)
REMARK    1  A    between atoms: C_3  and  N_9
REMARK    2  A    between atoms: N_9  and  C_10
REMARK    3  A    between atoms: C_10  and  N_12
REMARK    4  A    between atoms: N_12  and  C_13
REMARK    5  A    between atoms: C_13  and  C_15
REMARK    6  A    between atoms: C_13  and  N_19
REMARK                            x       y       z     vdW  Elec       q    Type
REMARK                         _______ _______ _______ _____ _____    ______ ____
ROOT
ATOM      1  C   UNL     1       2.426  -0.239   0.079  0.00  0.00    +0.136 C 
ATOM      2  S   UNL     1       0.959  -1.122   0.089  0.00  0.00    -0.019 S 
ENDROOT
BRANCH   1   3
ATOM      3  N   UNL     1       2.402   1.105  -0.015  0.00  0.00    -0.296 N 
ATOM      4  H   UNL     1       3.233   1.601  -0.083  0.00  0.00    +0.154 HD
BRANCH   3   7
ATOM      5  C   UNL     1      -1.063   2.029  -0.830  0.00  0.00    +0.022 A 
ATOM      6  C   UNL     1       0.142   1.352  -0.829  0.00  0.00    +0.026 A 
ATOM      7  C   UNL     1       1.179   1.786  -0.014  0.00  0.00    +0.051 A 
ATOM      8  C   UNL     1       1.001   2.897   0.802  0.00  0.00    +0.063 A 
ATOM      9  C   UNL     1      -0.208   3.567   0.800  0.00  0.00    +0.041 A 
ATOM     10  C   UNL     1      -1.240   3.132  -0.013  0.00  0.00    +0.042 A 
ATOM     11 CL   UNL     1      -2.757   3.976  -0.014  0.00  0.00    -0.083 Cl
ATOM     12 CL   UNL     1       2.295   3.442   1.822  0.00  0.00    -0.082 Cl
ENDBRANCH   3   7
ENDBRANCH   1   3
BRANCH   1  13
ATOM     13  N   UNL     1       3.604  -0.888   0.166  0.00  0.00    -0.305 N 
ATOM     14  H   UNL     1       4.435  -0.388   0.161  0.00  0.00    +0.150 HD
BRANCH  13  15
ATOM     15  C   UNL     1       3.629  -2.349   0.269  0.00  0.00    +0.211 C 
BRANCH  15  16
ATOM     16  C   UNL     1       4.693  -2.909  -0.678  0.00  0.00    +0.225 C 
ATOM     17 CL   UNL     1       6.308  -2.246  -0.225  0.00  0.00    -0.080 Cl
ATOM     18 CL   UNL     1       4.725  -4.707  -0.552  0.00  0.00    -0.080 Cl
ATOM     19 CL   UNL     1       4.301  -2.432  -2.372  0.00  0.00    -0.080 Cl
ENDBRANCH  15  16
BRANCH  15  20
ATOM     20  N   UNL     1       3.948  -2.737   1.645  0.00  0.00    -0.296 N 
ATOM     21  C   UNL     1       2.978  -3.208   2.454  0.00  0.00    +0.327 C 
ATOM     22  O   UNL     1       1.842  -3.311   2.043  0.00  0.00    -0.279 OA
ATOM     23  H   UNL     1       4.857  -2.655   1.974  0.00  0.00    +0.150 HD
ENDBRANCH  15  20
ENDBRANCH  13  15
ENDBRANCH   1  13
TORSDOF 6
