REMARK  Name = ZINC40404262
REMARK  16 active torsions:
REMARK  status: ('A' for Active; 'I' for Inactive)
REMARK    1  A    between atoms: C_1  and  C_2
REMARK    2  A    between atoms: C_2  and  O_3
REMARK    3  A    between atoms: O_3  and  C_4
REMARK    4  A    between atoms: C_4  and  C_5
REMARK    5  A    between atoms: C_5  and  C_7
REMARK    6  A    between atoms: C_5  and  O_37
REMARK    7  A    between atoms: C_7  and  N_8
REMARK    8  A    between atoms: N_8  and  C_9
REMARK    9  A    between atoms: N_8  and  C_14
REMARK   10  A    between atoms: C_9  and  C_10
REMARK   11  A    between atoms: C_10  and  C_11
REMARK   12  A    between atoms: C_11  and  C_12
REMARK   13  A    between atoms: C_11  and  C_13
REMARK   14  A    between atoms: C_14  and  C_15
REMARK   15  A    between atoms: N_27  and  C_30
REMARK   16  A    between atoms: C_30  and  C_31
REMARK                            x       y       z     vdW  Elec       q    Type
REMARK                         _______ _______ _______ _____ _____    ______ ____
ROOT
ATOM      1  C   UNL     1       3.865  -5.507  -5.058  0.00  0.00    +0.094 A 
ATOM      2  N   UNL     1       4.256  -6.783  -5.309  0.00  0.00    -0.312 N 
ATOM      3  H   UNL     1       3.891  -7.505  -4.773  0.00  0.00    +0.170 HD
ATOM      4  C   UNL     1       5.138  -7.067  -6.284  0.00  0.00    +0.260 A 
ATOM      5  O   UNL     1       5.478  -8.219  -6.497  0.00  0.00    -0.267 OA
ATOM      6  C   UNL     1       5.672  -5.994  -7.070  0.00  0.00    +0.075 A 
ATOM      7  C   UNL     1       6.633  -6.060  -8.168  0.00  0.00    -0.020 A 
ATOM      8  C   UNL     1       6.980  -4.892  -8.753  0.00  0.00    +0.010 A 
ATOM      9  S   UNL     1       6.058  -3.654  -7.885  0.00  0.00    -0.072 S 
ATOM     10  C   UNL     1       5.209  -4.710  -6.738  0.00  0.00    +0.116 A 
ATOM     11  N   UNL     1       4.330  -4.508  -5.761  0.00  0.00    -0.229 NA
ATOM     12  C   UNL     1       7.941  -4.712  -9.886  0.00  0.00    +0.127 C 
ATOM     13  N   UNL     1       8.719  -5.957 -10.034  0.00  0.00    -0.293 NA
ATOM     14  C   UNL     1       7.826  -7.125 -10.059  0.00  0.00    +0.090 C 
ATOM     15  C   UNL     1       7.240  -7.369  -8.666  0.00  0.00    +0.052 C 
ENDROOT
BRANCH   1  16
ATOM     16  C   UNL     1       2.875  -5.239  -3.955  0.00  0.00    -0.003 C 
BRANCH  16  17
ATOM     17  N   UNL     1       2.496  -3.819  -3.971  0.00  0.00    +0.386 N 
ATOM     18  H   UNL     1       3.328  -3.249  -3.946  0.00  0.00    -0.081 HD
BRANCH  17  19
ATOM     19  C   UNL     1       1.740  -3.528  -5.197  0.00  0.00    -0.044 C 
BRANCH  19  20
ATOM     20  C   UNL     1       1.454  -2.027  -5.275  0.00  0.00    +0.124 C 
BRANCH  20  21
ATOM     21  O   UNL     1       2.684  -1.314  -5.411  0.00  0.00    -0.391 OA
ATOM     22  H   UNL     1       3.190  -1.549  -6.201  0.00  0.00    +0.210 HD
ENDBRANCH  20  21
BRANCH  20  23
ATOM     23  C   UNL     1       0.561  -1.741  -6.484  0.00  0.00    +0.189 C 
BRANCH  23  24
ATOM     24  O   UNL     1       0.198  -0.359  -6.491  0.00  0.00    -0.378 OA
BRANCH  24  26
ATOM     25  C   UNL     1      -0.964   1.509  -7.493  0.00  0.00    +0.034 C 
ATOM     26  C   UNL     1      -0.640   0.017  -7.586  0.00  0.00    +0.156 C 
ENDBRANCH  24  26
ENDBRANCH  23  24
ENDBRANCH  20  23
ENDBRANCH  19  20
ENDBRANCH  17  19
BRANCH  17  27
ATOM     27  C   UNL     1       1.662  -3.522  -2.799  0.00  0.00    -0.078 C 
BRANCH  27  28
ATOM     28  C   UNL     1       2.490  -3.700  -1.525  0.00  0.00    -0.016 C 
BRANCH  28  29
ATOM     29  C   UNL     1       1.666  -3.258  -0.315  0.00  0.00    -0.019 C 
ATOM     30  C   UNL     1       0.463  -4.188  -0.149  0.00  0.00    +0.007 C 
ATOM     31  C   UNL     1       2.534  -3.318   0.944  0.00  0.00    +0.007 C 
ENDBRANCH  28  29
ENDBRANCH  27  28
ENDBRANCH  17  27
ENDBRANCH  16  17
ENDBRANCH   1  16
BRANCH  13  32
ATOM     32  C   UNL     1       9.561  -5.912 -11.236  0.00  0.00    +0.120 C 
BRANCH  32  33
ATOM     33  C   UNL     1      10.616  -4.849 -11.071  0.00  0.00    -0.033 A 
ATOM     34  C   UNL     1      10.360  -3.552 -11.477  0.00  0.00    +0.005 A 
ATOM     35  C   UNL     1      11.327  -2.577 -11.326  0.00  0.00    +0.000 A 
ATOM     36  C   UNL     1      12.551  -2.897 -10.768  0.00  0.00    +0.000 A 
ATOM     37  C   UNL     1      12.807  -4.193 -10.361  0.00  0.00    +0.000 A 
ATOM     38  C   UNL     1      11.838  -5.168 -10.508  0.00  0.00    +0.005 A 
ENDBRANCH  32  33
ENDBRANCH  13  32
TORSDOF 13
