REMARK  Name = ZINC12705002
REMARK  15 active torsions:
REMARK  status: ('A' for Active; 'I' for Inactive)
REMARK    1  A    between atoms: C_1  and  C_2
REMARK    2  A    between atoms: C_2  and  N_70
REMARK    3  A    between atoms: C_3  and  C_4
REMARK    4  A    between atoms: C_3  and  N_70
REMARK    5  A    between atoms: C_5  and  C_6
REMARK    6  A    between atoms: C_5  and  N_70
REMARK    7  A    between atoms: C_6  and  C_7
REMARK    8  A    between atoms: C_7  and  N_8
REMARK    9  A    between atoms: N_8  and  C_9
REMARK   10  A    between atoms: C_9  and  C_10
REMARK   11  A    between atoms: C_13  and  C_23
REMARK   12  A    between atoms: C_15  and  C_22
REMARK   13  A    between atoms: N_26  and  C_27
REMARK   14  A    between atoms: C_32  and  O_33
REMARK   15  A    between atoms: O_33  and  C_34
REMARK                            x       y       z     vdW  Elec       q    Type
REMARK                         _______ _______ _______ _____ _____    ______ ____
ROOT
ATOM      1  N   UNL     1       5.153   4.673  -1.418  0.00  0.00    -0.281 N 
ATOM      2  C   UNL     1       4.691   5.816  -1.963  0.00  0.00    +0.307 C 
ATOM      3  O   UNL     1       3.985   6.560  -1.310  0.00  0.00    -0.252 OA
ATOM      4  N   UNL     1       5.013   6.135  -3.233  0.00  0.00    -0.266 N 
ATOM      5  H   UNL     1       5.628   5.575  -3.732  0.00  0.00    +0.156 HD
ENDROOT
BRANCH   4   6
ATOM      6  C   UNL     1       4.460   7.275  -3.831  0.00  0.00    +0.077 A 
ATOM      7  C   UNL     1       4.212   8.408  -3.071  0.00  0.00    +0.027 A 
ATOM      8  C   UNL     1       3.670   9.533  -3.664  0.00  0.00    +0.002 A 
ATOM      9  C   UNL     1       3.365   9.528  -5.012  0.00  0.00    +0.004 A 
ATOM     10  C   UNL     1       3.604   8.401  -5.775  0.00  0.00    +0.047 A 
ATOM     11  C   UNL     1       4.152   7.271  -5.189  0.00  0.00    +0.141 A 
BRANCH  11  12
ATOM     12  O   UNL     1       4.388   6.161  -5.939  0.00  0.00    -0.493 OA
ATOM     13  C   UNL     1       4.047   6.229  -7.325  0.00  0.00    +0.277 C 
ENDBRANCH  11  12
ENDBRANCH   4   6
BRANCH   1  14
ATOM     14  C   UNL     1       6.004   3.777  -2.204  0.00  0.00    +0.108 C 
BRANCH  14  15
ATOM     15  C   UNL     1       5.130   2.768  -2.950  0.00  0.00    +0.000 C 
BRANCH  15  16
ATOM     16  C   UNL     1       6.019   1.832  -3.772  0.00  0.00    -0.077 C 
BRANCH  16  17
ATOM     17  N   UNL     1       5.162   0.850  -4.469  0.00  0.00    +0.379 N 
ATOM     18  H   UNL     1       4.535   0.410  -3.785  0.00  0.00    -0.082 HD
BRANCH  17  20
ATOM     19  C   UNL     1       5.246   2.138  -6.577  0.00  0.00    -0.017 C 
ATOM     20  C   UNL     1       4.348   1.530  -5.498  0.00  0.00    -0.082 C 
ENDBRANCH  17  20
BRANCH  17  21
ATOM     21  C   UNL     1       5.998  -0.195  -5.096  0.00  0.00    -0.082 C 
ATOM     22  C   UNL     1       5.100  -1.366  -5.501  0.00  0.00    -0.017 C 
ENDBRANCH  17  21
ENDBRANCH  16  17
ENDBRANCH  15  16
ENDBRANCH  14  15
ENDBRANCH   1  14
BRANCH   1  23
ATOM     23  C   UNL     1       4.803   4.327  -0.038  0.00  0.00    +0.150 C 
BRANCH  23  24
ATOM     24  C   UNL     1       3.530   3.521  -0.029  0.00  0.00    +0.035 A 
ATOM     25  C   UNL     1       3.588   2.166  -0.013  0.00  0.00    +0.020 A 
ATOM     26  C   UNL     1       2.333   1.412  -0.005  0.00  0.00    +0.002 A 
ATOM     27  C   UNL     1       2.330   0.013   0.011  0.00  0.00    -0.041 A 
ATOM     28  C   UNL     1       1.142  -0.661   0.017  0.00  0.00    +0.007 A 
ATOM     29  C   UNL     1      -0.062   0.030   0.007  0.00  0.00    -0.048 A 
ATOM     30  C   UNL     1      -0.083   1.408  -0.009  0.00  0.00    +0.029 A 
ATOM     31  C   UNL     1       1.115   2.116  -0.015  0.00  0.00    +0.050 A 
ATOM     32  N   UNL     1       1.124   3.494  -0.032  0.00  0.00    -0.322 N 
ATOM     33  H   UNL     1       0.283   3.978  -0.039  0.00  0.00    +0.169 HD
ATOM     34  C   UNL     1       2.281   4.178  -0.039  0.00  0.00    +0.254 A 
ATOM     35  O   UNL     1       2.251   5.397  -0.053  0.00  0.00    -0.268 OA
ATOM     36  C   UNL     1      -1.361  -0.735   0.013  0.00  0.00    +0.044 C 
ATOM     37  C   UNL     1       3.631  -0.746   0.023  0.00  0.00    +0.044 C 
ENDBRANCH  23  24
ENDBRANCH   1  23
TORSDOF 10
