REMARK  Name = ZINC12914813
REMARK  8 active torsions:
REMARK  status: ('A' for Active; 'I' for Inactive)
REMARK    1  A    between atoms: C_1  and  C_2
REMARK    2  A    between atoms: C_4  and  C_30
REMARK    3  A    between atoms: C_5  and  C_9
REMARK    4  A    between atoms: C_6  and  C_8
REMARK    5  A    between atoms: C_15  and  C_17
REMARK    6  A    between atoms: C_17  and  C_18
REMARK    7  A    between atoms: C_19  and  C_29
REMARK    8  A    between atoms: C_26  and  C_27
REMARK                            x       y       z     vdW  Elec       q    Type
REMARK                         _______ _______ _______ _____ _____    ______ ____
ROOT
ATOM      1  C   UNL     1       0.965   1.603   0.424  0.00  0.00    +0.081 A 
ATOM      2  C   UNL     1       0.080   0.595   0.686  0.00  0.00    +0.076 A 
ATOM      3  S   UNL     1      -1.438   1.524   0.866  0.00  0.00    -0.060 S 
ATOM      4  C   UNL     1      -0.740   3.146   0.586  0.00  0.00    +0.165 A 
ATOM      5  N   UNL     1       0.530   2.854   0.382  0.00  0.00    -0.225 NA
ATOM      6  N   UNL     1      -1.370   4.384   0.580  0.00  0.00    -0.264 N 
ATOM      7  C   UNL     1      -2.695   4.468   0.816  0.00  0.00    +0.223 C 
ATOM      8  O   UNL     1      -3.337   3.462   1.033  0.00  0.00    -0.275 OA
ATOM      9  H   UNL     1      -0.857   5.189   0.406  0.00  0.00    +0.157 HD
ENDROOT
BRANCH   1  14
ATOM     10  C   UNL     1       6.528   0.425  -0.485  0.00  0.00    +0.044 C 
ATOM     11  C   UNL     1       5.072   0.734  -0.247  0.00  0.00    -0.050 A 
ATOM     12  C   UNL     1       4.370   1.496  -1.163  0.00  0.00    +0.007 A 
ATOM     13  C   UNL     1       3.037   1.782  -0.951  0.00  0.00    -0.041 A 
ATOM     14  C   UNL     1       2.397   1.300   0.190  0.00  0.00    +0.007 A 
ATOM     15  C   UNL     1       3.111   0.537   1.113  0.00  0.00    -0.041 A 
ATOM     16  C   UNL     1       4.442   0.253   0.887  0.00  0.00    +0.007 A 
ATOM     17  C   UNL     1       2.428   0.018   2.352  0.00  0.00    +0.044 C 
ATOM     18  C   UNL     1       2.274   2.612  -1.950  0.00  0.00    +0.044 C 
ENDBRANCH   1  14
BRANCH   7  19
ATOM     19  C   UNL     1      -3.378   5.811   0.809  0.00  0.00    +0.134 C 
BRANCH  19  20
ATOM     20  C   UNL     1      -4.846   5.630   1.097  0.00  0.00    +0.004 A 
ATOM     21  C   UNL     1      -5.318   5.661   2.414  0.00  0.00    +0.047 A 
ATOM     22  N   UNL     1      -6.599   5.502   2.663  0.00  0.00    -0.216 NA
ATOM     23  C   UNL     1      -7.472   5.309   1.668  0.00  0.00    +0.255 A 
ATOM     24  N   UNL     1      -8.789   5.125   1.655  0.00  0.00    -0.176 NA
ATOM     25  C   UNL     1      -9.209   4.976   0.402  0.00  0.00    +0.234 A 
ATOM     26  N   UNL     1      -8.181   5.058  -0.418  0.00  0.00    -0.128 NA
ATOM     27  N   UNL     1      -7.044   5.273   0.371  0.00  0.00    -0.199 N 
ATOM     28  C   UNL     1      -5.727   5.439   0.080  0.00  0.00    +0.049 A 
ATOM     29  C   UNL     1      -5.250   5.408  -1.349  0.00  0.00    +0.066 C 
ATOM     30  N   UNL     1     -10.530   4.765   0.016  0.00  0.00    -0.326 N 
ATOM     31  C   UNL     1      -4.354   5.877   3.551  0.00  0.00    +0.066 C 
ATOM     32  H   UNL     1     -11.229   4.717   0.687  0.00  0.00    +0.145 HD
ATOM     33  H   UNL     1     -10.751   4.665  -0.923  0.00  0.00    +0.145 HD
ENDBRANCH  19  20
ENDBRANCH   7  19
TORSDOF 3
