REMARK  Name = ZINC66077410
REMARK  6 active torsions:
REMARK  status: ('A' for Active; 'I' for Inactive)
REMARK    1  A    between atoms: C_1  and  C_2
REMARK    2  A    between atoms: C_5  and  C_7
REMARK    3  A    between atoms: N_12  and  C_14
REMARK    4  A    between atoms: C_14  and  N_15
REMARK    5  A    between atoms: N_15  and  C_16
REMARK    6  A    between atoms: C_16  and  C_21
REMARK                            x       y       z     vdW  Elec       q    Type
REMARK                         _______ _______ _______ _____ _____    ______ ____
ROOT
ATOM      1  N   UNL     1      -0.953  -7.511   1.433  0.00  0.00    +0.398 N 
ATOM      2  H   UNL     1      -0.318  -7.845   2.142  0.00  0.00    -0.082 HD
ATOM      3  H   UNL     1      -1.339  -6.624   1.717  0.00  0.00    -0.082 HD
ENDROOT
BRANCH   1   4
ATOM      4  C   UNL     1      -2.039  -8.483   1.252  0.00  0.00    -0.040 C 
ATOM      5  C   UNL     1      -2.990  -8.011   0.132  0.00  0.00    -0.008 C 
ATOM      6  C   UNL     1      -4.397  -8.428   0.628  0.00  0.00    -0.001 C 
ATOM      7  C   UNL     1      -4.317  -8.155   2.151  0.00  0.00    -0.001 C 
ATOM      8  C   UNL     1      -2.883  -8.575   2.535  0.00  0.00    -0.008 C 
BRANCH   4   9
ATOM      9  C   UNL     1      -1.470  -9.836   0.911  0.00  0.00    -0.058 A 
ATOM     10  C   UNL     1      -0.217 -10.195   1.373  0.00  0.00    +0.005 A 
ATOM     11  C   UNL     1       0.306 -11.435   1.061  0.00  0.00    +0.038 A 
ATOM     12  C   UNL     1      -0.425 -12.319   0.286  0.00  0.00    +0.123 A 
ATOM     13  C   UNL     1      -1.680 -11.960  -0.176  0.00  0.00    +0.038 A 
ATOM     14  C   UNL     1      -2.203 -10.720   0.142  0.00  0.00    +0.005 A 
ATOM     15  F   UNL     1       0.085 -13.532  -0.019  0.00  0.00    -0.205 F 
ENDBRANCH   4   9
ENDBRANCH   1   4
BRANCH   1  16
ATOM     16  C   UNL     1      -0.228  -7.346   0.166  0.00  0.00    +0.070 C 
BRANCH  16  22
ATOM     17  C   UNL     1       1.289  -4.091   0.481  0.00  0.00    +0.098 A 
ATOM     18  C   UNL     1       2.673  -4.367   0.601  0.00  0.00    +0.036 A 
ATOM     19  C   UNL     1       3.075  -5.669   0.573  0.00  0.00    +0.074 A 
ATOM     20  C   UNL     1       2.084  -6.665   0.425  0.00  0.00    +0.266 A 
ATOM     21  O   UNL     1       2.398  -7.844   0.395  0.00  0.00    -0.266 OA
ATOM     22  N   UNL     1       0.791  -6.305   0.318  0.00  0.00    -0.246 N 
ATOM     23  N   UNL     1       0.427  -5.074   0.352  0.00  0.00    -0.169 NA
BRANCH  17  28
ATOM     24  C   UNL     1       0.428   1.476   0.680  0.00  0.00    +0.051 C 
ATOM     25  C   UNL     1       0.397  -0.029   0.602  0.00  0.00    -0.013 A 
ATOM     26  C   UNL     1      -0.673  -0.854   0.462  0.00  0.00    +0.011 A 
ATOM     27  C   UNL     1      -0.468  -2.215   0.412  0.00  0.00    +0.018 A 
ATOM     28  C   UNL     1       0.812  -2.693   0.507  0.00  0.00    +0.039 A 
ATOM     29  S   UNL     1       1.756  -1.185   0.662  0.00  0.00    -0.092 S 
ENDBRANCH  17  28
ENDBRANCH  16  22
ENDBRANCH   1  16
TORSDOF 5
