REMARK  Name = ZINC27662939
REMARK  3 active torsions:
REMARK  status: ('A' for Active; 'I' for Inactive)
REMARK    1  A    between atoms: C_1  and  C_2
REMARK    2  A    between atoms: C_9  and  C_12
REMARK    3  A    between atoms: N_14  and  C_15
REMARK                            x       y       z     vdW  Elec       q    Type
REMARK                         _______ _______ _______ _____ _____    ______ ____
ROOT
ATOM      1  C   UNL     1      -3.308   3.071   0.034  0.00  0.00    +0.259 C 
ATOM      2  O   UNL     1      -2.940   4.231   0.036  0.00  0.00    -0.269 OA
ATOM      3  N   UNL     1      -2.398   2.076   0.026  0.00  0.00    -0.250 N 
ATOM      4  H   UNL     1      -2.731   1.027   0.024  0.00  0.00    +0.158 HD
ENDROOT
BRANCH   1  13
ATOM      5  C   UNL     1     -10.939   1.105   0.069  0.00  0.00    +0.044 C 
ATOM      6  C   UNL     1      -9.598   1.793   0.065  0.00  0.00    -0.049 A 
ATOM      7  C   UNL     1      -9.524   3.181   0.068  0.00  0.00    +0.004 A 
ATOM      8  C   UNL     1      -8.332   3.830   0.065  0.00  0.00    +0.011 A 
ATOM      9  C   UNL     1      -7.111   3.106   0.056  0.00  0.00    +0.008 A 
ATOM     10  C   UNL     1      -7.217   1.695   0.052  0.00  0.00    +0.022 A 
ATOM     11  C   UNL     1      -8.435   1.050   0.057  0.00  0.00    +0.019 A 
ATOM     12  S   UNL     1      -5.527   1.153   0.041  0.00  0.00    -0.082 S 
ATOM     13  C   UNL     1      -4.741   2.755   0.042  0.00  0.00    +0.094 A 
ATOM     14  C   UNL     1      -5.798   3.613   0.056  0.00  0.00    +0.068 A 
ATOM     15 CL   UNL     1      -5.527   5.327   0.069  0.00  0.00    -0.082 Cl
ENDBRANCH   1  13
BRANCH   3  16
ATOM     16  C   UNL     1      -1.045   2.374   0.019  0.00  0.00    +0.228 A 
ATOM     17  C   UNL     1      -0.018   1.497   0.010  0.00  0.00    +0.037 A 
ATOM     18  C   UNL     1       1.139   2.306   0.004  0.00  0.00    +0.089 A 
ATOM     19  N   UNL     1       0.731   3.533   0.010  0.00  0.00    -0.081 NA
ATOM     20  O   UNL     1      -0.482   3.599   0.022  0.00  0.00    -0.339 OA
ATOM     21  C   UNL     1       2.537   1.744  -0.007  0.00  0.00    +0.059 C 
ATOM     22  C   UNL     1       2.461   0.270   0.413  0.00  0.00    +0.007 C 
ATOM     23  C   UNL     1       1.406  -0.458  -0.423  0.00  0.00    +0.005 C 
ATOM     24  C   UNL     1       0.002  -0.004   0.002  0.00  0.00    +0.042 C 
ENDBRANCH   3  16
TORSDOF 2
