REMARK  Name = ZINC14477809
REMARK  5 active torsions:
REMARK  status: ('A' for Active; 'I' for Inactive)
REMARK    1  A    between atoms: C_6  and  S_7
REMARK    2  A    between atoms: S_7  and  N_10
REMARK    3  A    between atoms: N_10  and  C_11
REMARK    4  A    between atoms: C_11  and  C_12
REMARK    5  A    between atoms: C_25  and  C_28
REMARK                            x       y       z     vdW  Elec       q    Type
REMARK                         _______ _______ _______ _____ _____    ______ ____
ROOT
ATOM      1  C   UNL     1       0.757   6.436   0.647  0.00  0.00    +0.030 A 
ATOM      2  C   UNL     1       0.081   5.543  -0.160  0.00  0.00    +0.025 A 
ATOM      3  C   UNL     1      -0.469   4.390   0.386  0.00  0.00    +0.031 A 
ATOM      4  C   UNL     1      -0.346   4.127   1.742  0.00  0.00    -0.018 A 
ATOM      5  C   UNL     1       0.337   5.031   2.543  0.00  0.00    +0.034 A 
ATOM      6  C   UNL     1       0.884   6.176   1.999  0.00  0.00    +0.106 A 
ATOM      7  C   UNL     1      -0.924   2.901   2.375  0.00  0.00    +0.049 C 
ATOM      8  C   UNL     1       0.148   1.888   2.699  0.00  0.00    -0.023 C 
ATOM      9  C   UNL     1      -0.303   0.673   2.506  0.00  0.00    -0.030 C 
ATOM     10  C   UNL     1      -1.763   0.704   2.023  0.00  0.00    +0.033 C 
ATOM     11  C   UNL     1      -1.892   2.144   1.445  0.00  0.00    +0.029 C 
ATOM     12  C   UNL     1      -1.332   2.115   0.020  0.00  0.00    +0.106 C 
ATOM     13  N   UNL     1      -1.128   3.492  -0.441  0.00  0.00    -0.336 N 
ATOM     14  H   UNL     1      -1.464   3.783  -1.303  0.00  0.00    +0.147 HD
ENDROOT
BRANCH  12  15
ATOM     15  C   UNL     1      -0.017   1.379   0.010  0.00  0.00    -0.009 A 
ATOM     16  C   UNL     1       1.154   2.053   0.304  0.00  0.00    +0.008 A 
ATOM     17  C   UNL     1       2.361   1.380   0.289  0.00  0.00    +0.020 A 
ATOM     18  C   UNL     1       2.399   0.032  -0.020  0.00  0.00    +0.042 A 
ATOM     19  C   UNL     1       1.228  -0.642  -0.315  0.00  0.00    +0.040 A 
ATOM     20  C   UNL     1       0.020   0.031  -0.300  0.00  0.00    +0.047 A 
ATOM     21 CL   UNL     1      -1.451  -0.814  -0.670  0.00  0.00    -0.083 Cl
ATOM     22 CL   UNL     1       3.915  -0.813  -0.038  0.00  0.00    -0.083 Cl
ENDBRANCH  12  15
BRANCH   6  23
ATOM     23  S   UNL     1       1.748   7.311   3.033  0.00  0.00    +0.058 S 
ATOM     24  O   UNL     1       1.696   8.573   2.383  0.00  0.00    -0.153 OA
ATOM     25  O   UNL     1       1.259   7.112   4.353  0.00  0.00    -0.153 OA
BRANCH  23  26
ATOM     26  N   UNL     1       3.339   6.850   3.044  0.00  0.00    -0.187 NA
ATOM     27  H   UNL     1       3.748   6.539   3.867  0.00  0.00    +0.148 HD
BRANCH  26  28
ATOM     28  C   UNL     1       4.128   6.913   1.812  0.00  0.00    +0.137 C 
BRANCH  28  29
ATOM     29  C   UNL     1       5.616   6.803   2.152  0.00  0.00    +0.134 C 
ATOM     30  C   UNL     1       6.455   6.876   0.863  0.00  0.00    +0.035 C 
ATOM     31  C   UNL     1       7.386   8.094   1.083  0.00  0.00    +0.031 C 
ATOM     32  C   UNL     1       7.370   8.238   2.627  0.00  0.00    +0.160 C 
ATOM     33  O   UNL     1       6.009   7.907   2.985  0.00  0.00    -0.375 OA
ENDBRANCH  28  29
ENDBRANCH  26  28
ENDBRANCH  23  26
ENDBRANCH   6  23
TORSDOF 5
