REMARK  Name = ZINC19799335
REMARK  6 active torsions:
REMARK  status: ('A' for Active; 'I' for Inactive)
REMARK    1  A    between atoms: C_1  and  C_2
REMARK    2  A    between atoms: C_5  and  C_8
REMARK    3  A    between atoms: N_9  and  N_10
REMARK    4  A    between atoms: C_11  and  C_13
REMARK    5  A    between atoms: C_13  and  N_14
REMARK    6  A    between atoms: C_23  and  C_25
REMARK                            x       y       z     vdW  Elec       q    Type
REMARK                         _______ _______ _______ _____ _____    ______ ____
ROOT
ATOM      1  N   UNL     1      -2.429  -3.204  -0.040  0.00  0.00    -0.219 N 
ATOM      2  C   UNL     1      -3.131  -2.955  -1.165  0.00  0.00    +0.275 A 
ATOM      3  O   UNL     1      -2.557  -2.764  -2.222  0.00  0.00    -0.266 OA
ATOM      4  C   UNL     1      -4.598  -2.923  -1.096  0.00  0.00    +0.050 A 
ATOM      5  C   UNL     1      -5.383  -2.676  -2.221  0.00  0.00    +0.014 A 
ATOM      6  C   UNL     1      -6.755  -2.651  -2.099  0.00  0.00    +0.001 A 
ATOM      7  C   UNL     1      -7.361  -2.869  -0.869  0.00  0.00    +0.001 A 
ATOM      8  C   UNL     1      -6.604  -3.115   0.255  0.00  0.00    +0.011 A 
ATOM      9  C   UNL     1      -5.214  -3.144   0.155  0.00  0.00    +0.015 A 
ATOM     10  C   UNL     1      -4.359  -3.401   1.323  0.00  0.00    +0.099 A 
ATOM     11  N   UNL     1      -3.058  -3.420   1.187  0.00  0.00    -0.167 NA
ENDROOT
BRANCH  10  12
ATOM     12  C   UNL     1      -4.969  -3.639   2.653  0.00  0.00    +0.003 A 
ATOM     13  C   UNL     1      -6.062  -2.878   3.067  0.00  0.00    +0.010 A 
ATOM     14  C   UNL     1      -6.630  -3.108   4.304  0.00  0.00    +0.001 A 
ATOM     15  C   UNL     1      -6.110  -4.083   5.136  0.00  0.00    +0.000 A 
ATOM     16  C   UNL     1      -5.022  -4.837   4.733  0.00  0.00    +0.001 A 
ATOM     17  C   UNL     1      -4.450  -4.620   3.496  0.00  0.00    +0.010 A 
ENDBRANCH  10  12
BRANCH   1  18
ATOM     18  C   UNL     1      -0.966  -3.242  -0.107  0.00  0.00    +0.244 C 
BRANCH  18  20
ATOM     19  N   UNL     1       0.916  -1.654   0.127  0.00  0.00    -0.205 N 
ATOM     20  C   UNL     1      -0.416  -1.861   0.141  0.00  0.00    +0.254 C 
ATOM     21  O   UNL     1      -1.172  -0.936   0.352  0.00  0.00    -0.272 OA
ATOM     22  H   UNL     1       1.601  -2.493  -0.066  0.00  0.00    +0.177 HD
BRANCH  19  24
ATOM     23  C   UNL     1       2.709  -0.171   0.344  0.00  0.00    +0.138 C 
ATOM     24  N   UNL     1       1.427  -0.370   0.357  0.00  0.00    -0.188 NA
BRANCH  23  29
ATOM     25  C   UNL     1       4.810   5.099   1.289  0.00  0.00    +0.044 C 
ATOM     26  C   UNL     1       4.260   3.718   1.042  0.00  0.00    -0.050 A 
ATOM     27  C   UNL     1       5.124   2.665   0.801  0.00  0.00    +0.004 A 
ATOM     28  C   UNL     1       4.628   1.399   0.573  0.00  0.00    +0.010 A 
ATOM     29  C   UNL     1       3.248   1.181   0.587  0.00  0.00    -0.005 A 
ATOM     30  C   UNL     1       2.381   2.249   0.825  0.00  0.00    +0.010 A 
ATOM     31  C   UNL     1       2.892   3.509   1.057  0.00  0.00    +0.004 A 
ENDBRANCH  23  29
ENDBRANCH  19  24
ENDBRANCH  18  20
ENDBRANCH   1  18
TORSDOF 5
