REMARK  Name = ZINC13034010
REMARK  15 active torsions:
REMARK  status: ('A' for Active; 'I' for Inactive)
REMARK    1  A    between atoms: C_1  and  C_2
REMARK    2  A    between atoms: C_2  and  C_3
REMARK    3  A    between atoms: C_10  and  C_15
REMARK    4  A    between atoms: C_15  and  N_68
REMARK    5  A    between atoms: C_16  and  C_17
REMARK    6  A    between atoms: C_16  and  N_68
REMARK    7  A    between atoms: C_22  and  C_24
REMARK    8  A    between atoms: C_22  and  C_26
REMARK    9  A    between atoms: C_22  and  N_68
REMARK   10  A    between atoms: C_24  and  C_25
REMARK   11  A    between atoms: N_30  and  C_31
REMARK   12  A    between atoms: C_31  and  C_32
REMARK   13  A    between atoms: C_31  and  C_33
REMARK   14  A    between atoms: C_31  and  C_34
REMARK   15  A    between atoms: C_34  and  C_35
REMARK                            x       y       z     vdW  Elec       q    Type
REMARK                         _______ _______ _______ _____ _____    ______ ____
ROOT
ATOM      1  N   UNL     1      -3.122   1.580   2.176  0.00  0.00    +0.392 N 
ATOM      2  H   UNL     1      -3.153   2.495   2.640  0.00  0.00    -0.080 HD
ENDROOT
BRANCH   1   3
ATOM      3  C   UNL     1      -2.265   0.670   2.965  0.00  0.00    -0.036 C 
BRANCH   3  11
ATOM      4  C   UNL     1      -0.087  -3.890  -0.605  0.00  0.00    -0.047 A 
ATOM      5  C   UNL     1      -1.084  -4.810  -0.309  0.00  0.00    +0.005 A 
ATOM      6  C   UNL     1      -2.104  -4.486   0.559  0.00  0.00    +0.026 A 
ATOM      7  C   UNL     1      -2.138  -3.224   1.144  0.00  0.00    +0.049 A 
ATOM      8  C   UNL     1      -1.125  -2.295   0.841  0.00  0.00    -0.001 A 
ATOM      9  C   UNL     1      -0.099  -2.646  -0.042  0.00  0.00    +0.013 A 
ATOM     10  C   UNL     1      -1.173  -0.968   1.458  0.00  0.00    +0.017 A 
ATOM     11  C   UNL     1      -2.190  -0.685   2.310  0.00  0.00    +0.001 A 
ATOM     12  C   UNL     1      -3.180  -1.653   2.580  0.00  0.00    +0.251 A 
ATOM     13  O   UNL     1      -4.088  -1.377   3.345  0.00  0.00    -0.268 OA
ATOM     14  N   UNL     1      -3.148  -2.873   2.015  0.00  0.00    -0.322 N 
ATOM     15  H   UNL     1      -3.844  -3.515   2.223  0.00  0.00    +0.169 HD
BRANCH   4  17
ATOM     16  C   UNL     1       2.177  -4.889  -0.772  0.00  0.00    +0.009 C 
ATOM     17  C   UNL     1       1.019  -4.268  -1.556  0.00  0.00    +0.032 C 
ENDBRANCH   4  17
ENDBRANCH   3  11
ENDBRANCH   1   3
BRANCH   1  18
ATOM     18  C   UNL     1      -2.563   1.749   0.818  0.00  0.00    -0.034 C 
BRANCH  18  19
ATOM     19  C   UNL     1      -1.348   2.636   0.902  0.00  0.00    -0.027 A 
ATOM     20  C   UNL     1      -0.062   2.300   1.166  0.00  0.00    +0.009 A 
ATOM     21  C   UNL     1       0.900   3.292   1.186  0.00  0.00    +0.008 A 
ATOM     22  C   UNL     1       0.528   4.573   0.946  0.00  0.00    +0.045 A 
ATOM     23  S   UNL     1      -1.229   4.404   0.681  0.00  0.00    -0.103 S 
ENDBRANCH  18  19
ENDBRANCH   1  18
BRANCH   1  24
ATOM     24  C   UNL     1      -4.494   1.037   2.093  0.00  0.00    +0.003 C 
BRANCH  24  25
ATOM     25  C   UNL     1      -5.304   1.887   1.148  0.00  0.00    +0.139 A 
ATOM     26  N   UNL     1      -5.311   3.196   1.083  0.00  0.00    -0.115 NA
ATOM     27  N   UNL     1      -6.128   3.544   0.150  0.00  0.00    -0.023 NA
ATOM     28  N   UNL     1      -6.643   2.491  -0.382  0.00  0.00    -0.043 NA
ATOM     29  N   UNL     1      -6.156   1.449   0.203  0.00  0.00    -0.225 N 
BRANCH  29  30
ATOM     30  C   UNL     1      -6.474   0.052  -0.103  0.00  0.00    +0.061 C 
ATOM     31  C   UNL     1      -5.221  -0.652  -0.629  0.00  0.00    +0.036 C 
ATOM     32  C   UNL     1      -6.957  -0.650   1.167  0.00  0.00    +0.036 C 
BRANCH  30  33
ATOM     33  C   UNL     1      -7.573  -0.001  -1.165  0.00  0.00    +0.026 C 
ATOM     34  C   UNL     1      -7.905  -1.460  -1.484  0.00  0.00    +0.006 C 
ENDBRANCH  30  33
ENDBRANCH  29  30
ENDBRANCH  24  25
BRANCH  24  35
ATOM     35  C   UNL     1      -5.127   1.080   3.486  0.00  0.00    -0.011 C 
ATOM     36  C   UNL     1      -5.224   2.532   3.958  0.00  0.00    +0.002 C 
ENDBRANCH  24  35
ENDBRANCH   1  24
TORSDOF 10
