REMARK  Name = ZINC64965893
REMARK  5 active torsions:
REMARK  status: ('A' for Active; 'I' for Inactive)
REMARK    1  A    between atoms: C_1  and  C_2
REMARK    2  A    between atoms: C_2  and  N_3
REMARK    3  A    between atoms: C_5  and  C_25
REMARK    4  A    between atoms: C_7  and  C_20
REMARK    5  A    between atoms: N_10  and  C_13
REMARK                            x       y       z     vdW  Elec       q    Type
REMARK                         _______ _______ _______ _____ _____    ______ ____
ROOT
ATOM      1  N   UNL     1      -1.473  -0.254   0.052  0.00  0.00    -0.289 N 
ATOM      2  C   UNL     1      -2.137  -0.763   1.154  0.00  0.00    +0.120 A 
ATOM      3  C   UNL     1      -1.819  -0.917   2.504  0.00  0.00    +0.155 A 
ATOM      4  N   UNL     1      -2.725  -1.464   3.315  0.00  0.00    -0.218 NA
ATOM      5  C   UNL     1      -3.905  -1.855   2.854  0.00  0.00    +0.198 A 
ATOM      6  N   UNL     1      -4.243  -1.723   1.574  0.00  0.00    -0.205 NA
ATOM      7  C   UNL     1      -3.401  -1.190   0.706  0.00  0.00    +0.170 A 
ATOM      8  N   UNL     1      -3.451  -0.924  -0.651  0.00  0.00    -0.245 N 
ATOM      9  C   UNL     1      -2.285  -0.357  -1.017  0.00  0.00    +0.336 A 
ATOM     10  O   UNL     1      -2.007   0.004  -2.145  0.00  0.00    -0.246 OA
ENDROOT
BRANCH   8  11
ATOM     11  C   UNL     1      -4.535  -1.193  -1.499  0.00  0.00    +0.053 A 
ATOM     12  C   UNL     1      -5.689  -1.772  -0.991  0.00  0.00    +0.029 A 
ATOM     13  C   UNL     1      -6.755  -2.036  -1.828  0.00  0.00    +0.040 A 
ATOM     14  C   UNL     1      -6.673  -1.724  -3.174  0.00  0.00    +0.124 A 
ATOM     15  C   UNL     1      -5.522  -1.146  -3.684  0.00  0.00    +0.040 A 
ATOM     16  C   UNL     1      -4.456  -0.875  -2.848  0.00  0.00    +0.029 A 
ATOM     17  F   UNL     1      -7.716  -1.984  -3.992  0.00  0.00    -0.205 F 
ENDBRANCH   8  11
BRANCH   5  18
ATOM     18  C   UNL     1      -4.874  -2.455   3.791  0.00  0.00    +0.172 A 
ATOM     19  C   UNL     1      -4.681  -2.652   5.123  0.00  0.00    +0.053 A 
ATOM     20  C   UNL     1      -5.856  -3.247   5.620  0.00  0.00    +0.042 A 
ATOM     21  C   UNL     1      -6.702  -3.382   4.578  0.00  0.00    +0.196 A 
ATOM     22  O   UNL     1      -6.107  -2.898   3.476  0.00  0.00    -0.460 OA
ENDBRANCH   5  18
BRANCH   3  23
ATOM     23  C   UNL     1      -0.502  -0.483   3.024  0.00  0.00    +0.262 C 
ATOM     24  O   UNL     1       0.487  -1.157   2.813  0.00  0.00    -0.269 OA
ATOM     25  N   UNL     1      -0.400   0.659   3.733  0.00  0.00    -0.324 N 
ATOM     26  H   UNL     1      -1.190   1.196   3.902  0.00  0.00    +0.145 HD
ATOM     27  H   UNL     1       0.462   0.943   4.074  0.00  0.00    +0.145 HD
ENDBRANCH   3  23
BRANCH   1  29
ATOM     28  C   UNL     1      -0.181   1.791   0.412  0.00  0.00    +0.027 C 
ATOM     29  C   UNL     1      -0.119   0.306   0.050  0.00  0.00    +0.124 C 
ENDBRANCH   1  29
TORSDOF 4
