REMARK  Name = ZINC09324315
REMARK  5 active torsions:
REMARK  status: ('A' for Active; 'I' for Inactive)
REMARK    1  A    between atoms: C_1  and  C_2
REMARK    2  A    between atoms: C_8  and  C_10
REMARK    3  A    between atoms: C_10  and  S_11
REMARK    4  A    between atoms: S_11  and  C_12
REMARK    5  A    between atoms: N_20  and  C_21
REMARK                            x       y       z     vdW  Elec       q    Type
REMARK                         _______ _______ _______ _____ _____    ______ ____
ROOT
ATOM      1  C   UNL     1      -7.940   4.047   5.655  0.00  0.00    +0.160 A 
ATOM      2  N   UNL     1      -8.846   3.914   4.705  0.00  0.00    -0.133 NA
ATOM      3  N   UNL     1     -10.164   4.205   4.972  0.00  0.00    -0.125 NA
ATOM      4  C   UNL     1     -10.516   4.614   6.174  0.00  0.00    +0.190 A 
ATOM      5  S   UNL     1      -8.945   4.601   7.024  0.00  0.00    -0.024 S 
ATOM      6  N   UNL     1     -11.777   4.957   6.656  0.00  0.00    -0.247 N 
ATOM      7  C   UNL     1     -12.850   4.892   5.843  0.00  0.00    +0.310 C 
ATOM      8  O   UNL     1     -12.717   4.532   4.689  0.00  0.00    -0.252 OA
ATOM      9  N   UNL     1     -14.070   5.224   6.309  0.00  0.00    -0.269 N 
ATOM     10  H   UNL     1     -11.883   5.244   7.577  0.00  0.00    +0.158 HD
ATOM     11  H   UNL     1     -14.188   5.446   7.246  0.00  0.00    +0.156 HD
ENDROOT
BRANCH   9  12
ATOM     12  C   UNL     1     -15.168   5.250   5.440  0.00  0.00    +0.035 A 
ATOM     13  C   UNL     1     -16.172   6.193   5.616  0.00  0.00    +0.025 A 
ATOM     14  C   UNL     1     -17.251   6.219   4.754  0.00  0.00    +0.022 A 
ATOM     15  C   UNL     1     -17.338   5.299   3.724  0.00  0.00    +0.041 A 
ATOM     16  C   UNL     1     -16.342   4.355   3.550  0.00  0.00    +0.022 A 
ATOM     17  C   UNL     1     -15.258   4.328   4.406  0.00  0.00    +0.025 A 
ATOM     18 CL   UNL     1     -18.700   5.330   2.647  0.00  0.00    -0.084 Cl
ENDBRANCH   9  12
BRANCH   1  19
ATOM     19  S   UNL     1      -6.205   3.749   5.593  0.00  0.00    -0.088 S 
BRANCH  19  20
ATOM     20  C   UNL     1      -5.914   3.203   3.888  0.00  0.00    +0.172 C 
BRANCH  20  28
ATOM     21  C   UNL     1      -0.008   1.113   0.002  0.00  0.00    +0.066 C 
ATOM     22  C   UNL     1      -0.714   1.591   1.244  0.00  0.00    +0.047 A 
ATOM     23  C   UNL     1      -0.026   1.816   2.390  0.00  0.00    +0.071 A 
ATOM     24  S   UNL     1      -1.347   2.346   3.471  0.00  0.00    -0.060 S 
ATOM     25  C   UNL     1      -2.644   2.218   2.323  0.00  0.00    +0.165 A 
ATOM     26  N   UNL     1      -2.015   1.805   1.239  0.00  0.00    -0.230 NA
ATOM     27  N   UNL     1      -3.996   2.488   2.499  0.00  0.00    -0.264 N 
ATOM     28  C   UNL     1      -4.448   2.911   3.696  0.00  0.00    +0.229 C 
ATOM     29  O   UNL     1      -3.675   3.056   4.620  0.00  0.00    -0.275 OA
ATOM     30  H   UNL     1      -4.614   2.371   1.761  0.00  0.00    +0.157 HD
ENDBRANCH  20  28
ENDBRANCH  19  20
ENDBRANCH   1  19
TORSDOF 4
