REMARK  Name = ZINC09432901
REMARK  6 active torsions:
REMARK  status: ('A' for Active; 'I' for Inactive)
REMARK    1  A    between atoms: C_1  and  C_2
REMARK    2  A    between atoms: C_2  and  C_3
REMARK    3  A    between atoms: C_2  and  C_4
REMARK    4  A    between atoms: C_4  and  N_5
REMARK    5  A    between atoms: C_6  and  C_30
REMARK    6  A    between atoms: C_8  and  C_18
REMARK                            x       y       z     vdW  Elec       q    Type
REMARK                         _______ _______ _______ _____ _____    ______ ____
ROOT
ATOM      1  N   UNL     1       2.918  -1.881  -0.955  0.00  0.00    -0.289 N 
ATOM      2  C   UNL     1       1.896  -1.278  -0.102  0.00  0.00    +0.129 C 
ATOM      3  C   UNL     1       2.018  -1.778   1.335  0.00  0.00    +0.131 C 
ATOM      4  C   UNL     1       3.438  -1.635   1.815  0.00  0.00    -0.021 A 
ATOM      5  C   UNL     1       3.709  -1.351   3.136  0.00  0.00    +0.005 A 
ATOM      6  C   UNL     1       5.021  -1.237   3.564  0.00  0.00    +0.000 A 
ATOM      7  C   UNL     1       6.066  -1.407   2.673  0.00  0.00    +0.001 A 
ATOM      8  C   UNL     1       5.807  -1.687   1.345  0.00  0.00    +0.013 A 
ATOM      9  C   UNL     1       4.489  -1.794   0.909  0.00  0.00    +0.041 A 
ATOM     10  C   UNL     1       4.178  -2.055  -0.512  0.00  0.00    +0.247 C 
ATOM     11  O   UNL     1       5.050  -2.424  -1.274  0.00  0.00    -0.270 OA
ENDROOT
BRANCH   3  12
ATOM     12  C   UNL     1       1.109  -0.970   2.225  0.00  0.00    +0.228 C 
ATOM     13  O   UNL     1       1.472   0.108   2.643  0.00  0.00    -0.275 OA
ATOM     14  N   UNL     1      -0.108  -1.446   2.555  0.00  0.00    -0.264 N 
ATOM     15  C   UNL     1      -0.984  -0.660   3.286  0.00  0.00    +0.165 A 
ATOM     16  N   UNL     1      -0.810   0.557   3.747  0.00  0.00    -0.225 NA
ATOM     17  C   UNL     1      -1.762   1.211   4.447  0.00  0.00    +0.080 A 
ATOM     18  C   UNL     1      -1.704   2.515   4.991  0.00  0.00    +0.029 A 
ATOM     19  C   UNL     1      -2.766   3.031   5.687  0.00  0.00    +0.002 A 
ATOM     20  C   UNL     1      -3.929   2.300   5.882  0.00  0.00    +0.001 A 
ATOM     21  C   UNL     1      -4.020   1.021   5.364  0.00  0.00    +0.017 A 
ATOM     22  C   UNL     1      -2.961   0.496   4.665  0.00  0.00    +0.041 A 
ATOM     23  S   UNL     1      -2.636  -1.047   3.847  0.00  0.00    -0.052 S 
ATOM     24  H   UNL     1      -0.370  -2.339   2.282  0.00  0.00    +0.157 HD
ENDBRANCH   3  12
BRANCH   2  25
ATOM     25  C   UNL     1       2.057   0.220  -0.119  0.00  0.00    +0.011 A 
ATOM     26  C   UNL     1       1.103   1.181  -0.185  0.00  0.00    +0.013 A 
ATOM     27  C   UNL     1       1.488   2.509  -0.189  0.00  0.00    +0.008 A 
ATOM     28  C   UNL     1       2.808   2.811  -0.127  0.00  0.00    +0.045 A 
ATOM     29  S   UNL     1       3.555   1.190  -0.060  0.00  0.00    -0.100 S 
ENDBRANCH   2  25
BRANCH   1  30
ATOM     30  C   UNL     1       2.566  -2.303  -2.313  0.00  0.00    +0.111 C 
BRANCH  30  32
ATOM     31  C   UNL     1       1.460  -4.089  -3.665  0.00  0.00    +0.009 C 
ATOM     32  C   UNL     1       1.953  -3.704  -2.269  0.00  0.00    +0.000 C 
ATOM     33  C   UNL     1       3.011  -4.709  -1.807  0.00  0.00    +0.009 C 
ENDBRANCH  30  32
ENDBRANCH   1  30
TORSDOF 4
