REMARK  Name = ZINC36022660
REMARK  11 active torsions:
REMARK  status: ('A' for Active; 'I' for Inactive)
REMARK    1  A    between atoms: C_1  and  C_2
REMARK    2  A    between atoms: C_5  and  C_36
REMARK    3  A    between atoms: C_6  and  N_8
REMARK    4  A    between atoms: C_9  and  C_11
REMARK    5  A    between atoms: N_13  and  C_14
REMARK    6  A    between atoms: C_14  and  C_15
REMARK    7  A    between atoms: C_15  and  C_17
REMARK    8  A    between atoms: C_15  and  N_26
REMARK    9  A    between atoms: C_20  and  N_23
REMARK   10  A    between atoms: N_23  and  C_24
REMARK   11  A    between atoms: N_23  and  C_25
REMARK                            x       y       z     vdW  Elec       q    Type
REMARK                         _______ _______ _______ _____ _____    ______ ____
ROOT
ATOM      1  C   UNL     1      -0.139  -2.261   8.659  0.00  0.00    +0.104 C 
ENDROOT
BRANCH   1   2
ATOM      2  N   UNL     1      -1.284  -1.353   8.511  0.00  0.00    -0.289 NA
ATOM      3  C   UNL     1      -1.314  -0.756   7.166  0.00  0.00    +0.090 C 
ATOM      4  C   UNL     1      -2.690  -0.129   6.944  0.00  0.00    +0.051 C 
ATOM      5  C   UNL     1      -3.041   0.765   8.106  0.00  0.00    -0.042 A 
ATOM      6  C   UNL     1      -4.061   1.691   7.943  0.00  0.00    +0.004 A 
ATOM      7  C   UNL     1      -4.416   2.526   8.983  0.00  0.00    +0.000 A 
ATOM      8  C   UNL     1      -3.754   2.438  10.193  0.00  0.00    +0.000 A 
ATOM      9  C   UNL     1      -2.738   1.518  10.356  0.00  0.00    +0.005 A 
ATOM     10  C   UNL     1      -2.377   0.680   9.310  0.00  0.00    -0.030 A 
ATOM     11  C   UNL     1      -1.256  -0.301   9.532  0.00  0.00    +0.120 C 
ENDBRANCH   1   2
BRANCH   1  12
ATOM     12  C   UNL     1      -0.096  -2.790  10.069  0.00  0.00    -0.029 A 
ATOM     13  C   UNL     1      -1.270  -3.143  10.709  0.00  0.00    +0.007 A 
ATOM     14  C   UNL     1      -1.234  -3.628  12.002  0.00  0.00    +0.023 A 
ATOM     15  C   UNL     1      -0.018  -3.761  12.659  0.00  0.00    +0.029 A 
ATOM     16  C   UNL     1       1.159  -3.405  12.013  0.00  0.00    +0.023 A 
ATOM     17  C   UNL     1       1.117  -2.926  10.719  0.00  0.00    +0.007 A 
BRANCH  15  18
ATOM     18  N   UNL     1       0.022  -4.251  13.966  0.00  0.00    -0.336 N 
ATOM     19  C   UNL     1      -1.221  -4.626  14.646  0.00  0.00    +0.129 C 
ATOM     20  C   UNL     1       1.306  -4.391  14.658  0.00  0.00    +0.129 C 
ENDBRANCH  15  18
ENDBRANCH   1  12
BRANCH   1  21
ATOM     21  C   UNL     1      -0.284  -3.428   7.680  0.00  0.00    +0.128 C 
BRANCH  21  24
ATOM     22  C   UNL     1       1.044  -5.319   6.907  0.00  0.00    +0.299 C 
ATOM     23  O   UNL     1       0.162  -5.576   6.113  0.00  0.00    -0.265 OA
ATOM     24  N   UNL     1       0.918  -4.264   7.736  0.00  0.00    -0.306 N 
ATOM     25  H   UNL     1       1.623  -4.059   8.370  0.00  0.00    +0.149 HD
BRANCH  22  27
ATOM     26  N   UNL     1       2.396  -7.226   6.134  0.00  0.00    -0.278 N 
ATOM     27  C   UNL     1       2.269  -6.171   6.963  0.00  0.00    +0.303 C 
ATOM     28  O   UNL     1       3.151  -5.914   7.757  0.00  0.00    -0.265 OA
ATOM     29  H   UNL     1       1.729  -7.386   5.448  0.00  0.00    +0.155 HD
BRANCH  26  35
ATOM     30  C   UNL     1       6.050  -9.047   8.870  0.00  0.00    +0.044 C 
ATOM     31  C   UNL     1       5.277  -8.992   7.577  0.00  0.00    -0.049 A 
ATOM     32  C   UNL     1       5.649  -9.797   6.516  0.00  0.00    +0.004 A 
ATOM     33  C   UNL     1       4.942  -9.750   5.328  0.00  0.00    +0.005 A 
ATOM     34  C   UNL     1       3.863  -8.899   5.198  0.00  0.00    -0.029 A 
ATOM     35  C   UNL     1       3.487  -8.089   6.262  0.00  0.00    +0.037 A 
ATOM     36  C   UNL     1       4.196  -8.143   7.456  0.00  0.00    +0.027 A 
ATOM     37  C   UNL     1       3.094  -8.848   3.903  0.00  0.00    +0.045 C 
ENDBRANCH  26  35
ENDBRANCH  22  27
ENDBRANCH  21  24
ENDBRANCH   1  21
TORSDOF 7
