REMARK  Name = ZINC06822069
REMARK  12 active torsions:
REMARK  status: ('A' for Active; 'I' for Inactive)
REMARK    1  A    between atoms: C_1  and  C_2
REMARK    2  A    between atoms: C_2  and  C_3
REMARK    3  A    between atoms: C_6  and  N_9
REMARK    4  A    between atoms: N_9  and  C_10
REMARK    5  A    between atoms: C_10  and  C_12
REMARK    6  A    between atoms: C_10  and  C_18
REMARK    7  A    between atoms: C_15  and  C_17
REMARK    8  A    between atoms: N_20  and  C_21
REMARK    9  A    between atoms: C_21  and  C_22
REMARK   10  A    between atoms: C_28  and  C_30
REMARK   11  A    between atoms: C_31  and  N_38
REMARK   12  A    between atoms: C_32  and  C_35
REMARK                            x       y       z     vdW  Elec       q    Type
REMARK                         _______ _______ _______ _____ _____    ______ ____
ROOT
ATOM      1  N   UNL     1      -2.955   2.979   4.648  0.00  0.00    -0.248 N 
ATOM      2  C   UNL     1      -3.590   1.923   5.194  0.00  0.00    +0.262 C 
ATOM      3  O   UNL     1      -3.596   0.851   4.618  0.00  0.00    -0.269 OA
ENDROOT
BRANCH   1   7
ATOM      4  C   UNL     1      -0.965   2.559   1.013  0.00  0.00    -0.048 A 
ATOM      5  C   UNL     1      -1.047   3.801   1.615  0.00  0.00    +0.005 A 
ATOM      6  C   UNL     1      -1.711   3.945   2.817  0.00  0.00    +0.024 A 
ATOM      7  C   UNL     1      -2.287   2.838   3.427  0.00  0.00    +0.038 A 
ATOM      8  C   UNL     1      -2.197   1.591   2.823  0.00  0.00    +0.024 A 
ATOM      9  C   UNL     1      -1.537   1.454   1.618  0.00  0.00    +0.005 A 
BRANCH   4  11
ATOM     10  C   UNL     1      -1.233   2.607  -1.452  0.00  0.00    +0.009 C 
ATOM     11  C   UNL     1      -0.244   2.406  -0.302  0.00  0.00    +0.032 C 
ENDBRANCH   4  11
ENDBRANCH   1   7
BRANCH   2  12
ATOM     12  C   UNL     1      -4.272   2.066   6.482  0.00  0.00    +0.116 A 
ATOM     13  C   UNL     1      -5.249   1.253   7.061  0.00  0.00    +0.076 A 
ATOM     14  C   UNL     1      -5.660   1.719   8.309  0.00  0.00    +0.155 A 
ATOM     15  N   UNL     1      -5.121   2.815   8.796  0.00  0.00    -0.203 NA
ATOM     16  S   UNL     1      -4.072   3.317   7.733  0.00  0.00    +0.019 S 
BRANCH  14  17
ATOM     17  C   UNL     1      -6.688   0.990   9.075  0.00  0.00    +0.262 C 
ATOM     18  O   UNL     1      -7.182  -0.022   8.618  0.00  0.00    -0.269 OA
ATOM     19  N   UNL     1      -7.080   1.447  10.281  0.00  0.00    -0.324 N 
ATOM     20  H   UNL     1      -6.686   2.255  10.645  0.00  0.00    +0.145 HD
ATOM     21  H   UNL     1      -7.756   0.968  10.785  0.00  0.00    +0.145 HD
ENDBRANCH  14  17
BRANCH  13  22
ATOM     22  N   UNL     1      -5.754   0.108   6.460  0.00  0.00    -0.355 N 
ATOM     23  H   UNL     1      -5.428  -0.167   5.589  0.00  0.00    +0.142 HD
ATOM     24  H   UNL     1      -6.433  -0.417   6.912  0.00  0.00    +0.142 HD
ENDBRANCH  13  22
ENDBRANCH   2  12
BRANCH   1  25
ATOM     25  C   UNL     1      -2.965   4.274   5.332  0.00  0.00    +0.233 C 
BRANCH  25  26
ATOM     26  C   UNL     1      -1.567   4.618   5.777  0.00  0.00    +0.135 A 
ATOM     27  C   UNL     1      -1.233   5.196   6.945  0.00  0.00    +0.047 A 
ATOM     28  C   UNL     1       0.174   5.331   6.947  0.00  0.00    +0.045 A 
ATOM     29  C   UNL     1       0.615   4.836   5.776  0.00  0.00    +0.102 A 
ATOM     30  O   UNL     1      -0.444   4.406   5.072  0.00  0.00    -0.462 OA
ATOM     31  C   UNL     1       2.054   4.776   5.331  0.00  0.00    +0.086 C 
ENDBRANCH  25  26
BRANCH  25  32
ATOM     32  C   UNL     1      -3.468   5.337   4.388  0.00  0.00    +0.242 C 
ATOM     33  O   UNL     1      -3.786   5.041   3.256  0.00  0.00    -0.273 OA
ATOM     34  N   UNL     1      -3.563   6.616   4.803  0.00  0.00    -0.309 N 
ATOM     35  H   UNL     1      -3.309   6.852   5.709  0.00  0.00    +0.149 HD
BRANCH  34  36
ATOM     36  C   UNL     1      -4.052   7.648   3.886  0.00  0.00    +0.139 C 
BRANCH  36  37
ATOM     37  C   UNL     1      -4.062   8.981   4.590  0.00  0.00    -0.030 A 
ATOM     38  C   UNL     1      -5.190   9.391   5.276  0.00  0.00    +0.005 A 
ATOM     39  C   UNL     1      -5.197  10.611   5.926  0.00  0.00    +0.000 A 
ATOM     40  C   UNL     1      -4.081  11.426   5.880  0.00  0.00    +0.000 A 
ATOM     41  C   UNL     1      -2.956  11.018   5.189  0.00  0.00    +0.000 A 
ATOM     42  C   UNL     1      -2.946   9.795   4.544  0.00  0.00    +0.005 A 
ENDBRANCH  36  37
ENDBRANCH  34  36
ENDBRANCH  25  32
ENDBRANCH   1  25
TORSDOF 10
