REMARK  Name = ZINC48060090
REMARK  7 active torsions:
REMARK  status: ('A' for Active; 'I' for Inactive)
REMARK    1  A    between atoms: C_1  and  C_2
REMARK    2  A    between atoms: C_5  and  C_7
REMARK    3  A    between atoms: C_7  and  C_9
REMARK    4  A    between atoms: C_7  and  N_10
REMARK    5  A    between atoms: N_13  and  C_14
REMARK    6  A    between atoms: C_14  and  C_16
REMARK    7  A    between atoms: C_14  and  C_17
REMARK                            x       y       z     vdW  Elec       q    Type
REMARK                         _______ _______ _______ _____ _____    ______ ____
ROOT
ATOM      1  N   UNL     1       2.819  -2.969   0.861  0.00  0.00    -0.290 N 
ATOM      2  C   UNL     1       3.507  -3.989   1.413  0.00  0.00    +0.301 C 
ATOM      3  O   UNL     1       3.185  -5.137   1.177  0.00  0.00    -0.253 OA
ATOM      4  N   UNL     1       4.551  -3.735   2.226  0.00  0.00    -0.292 N 
ATOM      5  H   UNL     1       3.076  -2.053   1.050  0.00  0.00    +0.151 HD
ATOM      6  H   UNL     1       4.808  -2.819   2.414  0.00  0.00    +0.151 HD
ENDROOT
BRANCH   1   7
ATOM      7  C   UNL     1       1.684  -3.245  -0.023  0.00  0.00    +0.137 C 
ATOM      8  C   UNL     1       2.192  -3.480  -1.447  0.00  0.00    +0.036 C 
BRANCH   7  13
ATOM      9  C   UNL     1      -0.018   1.503   0.010  0.00  0.00    +0.086 C 
ATOM     10  C   UNL     1       0.002  -0.004   0.002  0.00  0.00    +0.102 A 
ATOM     11  C   UNL     1      -1.078  -0.805   0.003  0.00  0.00    +0.045 A 
ATOM     12  C   UNL     1      -0.601  -2.136  -0.007  0.00  0.00    +0.047 A 
ATOM     13  C   UNL     1       0.742  -2.069  -0.013  0.00  0.00    +0.125 A 
ATOM     14  O   UNL     1       1.102  -0.775  -0.013  0.00  0.00    -0.463 OA
ENDBRANCH   7  13
ENDBRANCH   1   7
BRANCH   4  15
ATOM     15  C   UNL     1       5.299  -4.843   2.826  0.00  0.00    +0.108 C 
ATOM     16  C   UNL     1       4.599  -5.296   4.108  0.00  0.00    +0.033 C 
BRANCH  15  17
ATOM     17  C   UNL     1       6.698  -4.388   3.151  0.00  0.00    +0.011 A 
ATOM     18  C   UNL     1       7.868  -5.054   3.004  0.00  0.00    +0.014 A 
ATOM     19  C   UNL     1       9.046  -4.432   3.374  0.00  0.00    +0.028 A 
ATOM     20  C   UNL     1       8.995  -3.171   3.873  0.00  0.00    +0.078 A 
ATOM     21  S   UNL     1       7.244  -2.826   3.823  0.00  0.00    -0.080 S 
ATOM     22 CL   UNL     1      10.294  -2.155   4.413  0.00  0.00    -0.076 Cl
ENDBRANCH  15  17
ENDBRANCH   4  15
TORSDOF 4
