REMARK  Name = ZINC63552618
REMARK  11 active torsions:
REMARK  status: ('A' for Active; 'I' for Inactive)
REMARK    1  A    between atoms: C_1  and  C_2
REMARK    2  A    between atoms: C_2  and  C_3
REMARK    3  A    between atoms: C_2  and  C_4
REMARK    4  A    between atoms: C_4  and  N_5
REMARK    5  A    between atoms: C_9  and  C_20
REMARK    6  A    between atoms: C_20  and  C_21
REMARK    7  A    between atoms: C_21  and  C_22
REMARK    8  A    between atoms: C_22  and  C_23
REMARK    9  A    between atoms: N_25  and  C_26
REMARK   10  A    between atoms: C_26  and  C_27
REMARK   11  A    between atoms: C_27  and  C_28
REMARK                            x       y       z     vdW  Elec       q    Type
REMARK                         _______ _______ _______ _____ _____    ______ ____
ROOT
ATOM      1  C   UNL     1      -5.430   3.125  -2.800  0.00  0.00    +0.077 C 
ENDROOT
BRANCH   1   6
ATOM      2  N   UNL     1      -2.105  -0.148  -1.230  0.00  0.00    -0.239 N 
ATOM      3  C   UNL     1      -2.800   1.058  -1.325  0.00  0.00    +0.227 A 
ATOM      4  N   UNL     1      -2.696   2.173  -0.676  0.00  0.00    -0.113 NA
ATOM      5  N   UNL     1      -3.581   3.012  -1.099  0.00  0.00    -0.133 NA
ATOM      6  C   UNL     1      -4.295   2.472  -2.055  0.00  0.00    +0.135 A 
ATOM      7  N   UNL     1      -3.827   1.229  -2.249  0.00  0.00    -0.290 N 
ATOM      8  C   UNL     1      -4.105   0.134  -3.127  0.00  0.00    +0.137 C 
ATOM      9  C   UNL     1      -4.999   0.185  -4.293  0.00  0.00    +0.006 C 
ATOM     10  C   UNL     1      -4.815  -0.752  -5.237  0.00  0.00    +0.039 C 
ATOM     11  S   UNL     1      -3.397  -1.708  -4.686  0.00  0.00    -0.118 S 
ATOM     12  C   UNL     1      -2.705  -0.421  -3.575  0.00  0.00    +0.164 C 
ATOM     13  C   UNL     1      -2.064  -0.961  -2.334  0.00  0.00    +0.238 C 
ATOM     14  O   UNL     1      -1.542  -2.056  -2.306  0.00  0.00    -0.274 OA
BRANCH   2  15
ATOM     15  C   UNL     1      -1.433  -0.534   0.013  0.00  0.00    +0.119 C 
BRANCH  15  17
ATOM     16  C   UNL     1      -0.019   1.526   0.010  0.00  0.00    +0.009 C 
ATOM     17  C   UNL     1       0.002  -0.004   0.002  0.00  0.00    +0.001 C 
ATOM     18  C   UNL     1       0.742  -0.511   1.242  0.00  0.00    +0.009 C 
ENDBRANCH  15  17
ENDBRANCH   2  15
ENDBRANCH   1   6
BRANCH   1  19
ATOM     19  C   UNL     1      -4.883   3.849  -4.032  0.00  0.00    +0.017 C 
BRANCH  19  20
ATOM     20  C   UNL     1      -6.036   4.512  -4.788  0.00  0.00    +0.096 C 
BRANCH  20  21
ATOM     21  C   UNL     1      -5.497   5.225  -6.001  0.00  0.00    +0.213 C 
ATOM     22  O   UNL     1      -4.308   5.205  -6.238  0.00  0.00    -0.276 OA
ATOM     23  N   UNL     1      -6.337   5.885  -6.823  0.00  0.00    -0.315 N 
ATOM     24  H   UNL     1      -7.288   5.901  -6.634  0.00  0.00    +0.149 HD
BRANCH  23  25
ATOM     25  C   UNL     1      -5.813   6.578  -8.003  0.00  0.00    +0.108 C 
BRANCH  25  26
ATOM     26  C   UNL     1      -6.966   7.241  -8.759  0.00  0.00    +0.052 C 
BRANCH  26  27
ATOM     27  C   UNL     1      -6.427   7.954  -9.972  0.00  0.00    -0.040 C 
ATOM     28  C   UNL     1      -6.360   7.473 -11.235  0.00  0.00    -0.001 A 
ATOM     29  C   UNL     1      -6.752   6.191 -11.833  0.00  0.00    +0.010 A 
ATOM     30  C   UNL     1      -6.556   5.998 -13.157  0.00  0.00    +0.001 A 
ATOM     31  C   UNL     1      -5.988   6.988 -13.970  0.00  0.00    +0.002 A 
ATOM     32  C   UNL     1      -5.602   8.191 -13.493  0.00  0.00    +0.026 A 
ATOM     33  C   UNL     1      -5.763   8.502 -12.115  0.00  0.00    +0.043 A 
ATOM     34  N   UNL     1      -5.472   9.578 -11.424  0.00  0.00    -0.380 N 
ATOM     35  C   UNL     1      -5.858   9.354 -10.026  0.00  0.00    +0.144 C 
ATOM     36  H   UNL     1      -5.072  10.387 -11.778  0.00  0.00    +0.160 HD
ENDBRANCH  26  27
ENDBRANCH  25  26
ENDBRANCH  23  25
ENDBRANCH  20  21
ENDBRANCH  19  20
ENDBRANCH   1  19
TORSDOF 9
