REMARK  Name = ZINC01407947
REMARK  13 active torsions:
REMARK  status: ('A' for Active; 'I' for Inactive)
REMARK    1  A    between atoms: C_1  and  C_2
REMARK    2  A    between atoms: C_4  and  C_43
REMARK    3  A    between atoms: C_6  and  S_8
REMARK    4  A    between atoms: S_8  and  C_9
REMARK    5  A    between atoms: C_9  and  C_10
REMARK    6  A    between atoms: N_12  and  C_13
REMARK    7  A    between atoms: N_12  and  C_22
REMARK    8  A    between atoms: C_13  and  C_14
REMARK    9  A    between atoms: C_17  and  O_20
REMARK   10  A    between atoms: O_20  and  C_21
REMARK   11  A    between atoms: C_22  and  C_24
REMARK   12  A    between atoms: C_22  and  C_31
REMARK   13  A    between atoms: N_33  and  C_34
REMARK                            x       y       z     vdW  Elec       q    Type
REMARK                         _______ _______ _______ _____ _____    ______ ____
ROOT
ATOM      1  C   UNL     1       0.031  -2.969  -1.248  0.00  0.00    +0.227 C 
ATOM      2  O   UNL     1      -0.369  -2.852  -2.387  0.00  0.00    -0.275 OA
ATOM      3  N   UNL     1       1.352  -2.919  -0.989  0.00  0.00    -0.285 N 
ENDROOT
BRANCH   1   4
ATOM      4  C   UNL     1      -0.950  -3.171  -0.122  0.00  0.00    +0.173 C 
BRANCH   4   5
ATOM      5  S   UNL     1      -2.624  -3.310  -0.797  0.00  0.00    -0.077 S 
BRANCH   5  11
ATOM      6  C   UNL     1      -2.807  -3.735   4.300  0.00  0.00    +0.066 C 
ATOM      7  C   UNL     1      -3.548  -3.716   2.988  0.00  0.00    +0.043 A 
ATOM      8  C   UNL     1      -4.925  -3.872   2.958  0.00  0.00    +0.046 A 
ATOM      9  C   UNL     1      -5.568  -3.848   1.730  0.00  0.00    +0.043 A 
ATOM     10  N   UNL     1      -4.853  -3.679   0.630  0.00  0.00    -0.227 NA
ATOM     11  C   UNL     1      -3.537  -3.533   0.694  0.00  0.00    +0.189 A 
ATOM     12  N   UNL     1      -2.892  -3.556   1.851  0.00  0.00    -0.227 NA
ATOM     13  C   UNL     1      -7.064  -4.013   1.649  0.00  0.00    +0.066 C 
ENDBRANCH   5  11
ENDBRANCH   4   5
ENDBRANCH   1   4
BRANCH   3  14
ATOM     14  C   UNL     1       1.830  -2.961   0.395  0.00  0.00    +0.143 C 
BRANCH  14  15
ATOM     15  C   UNL     1       2.079  -1.558   0.883  0.00  0.00    -0.030 A 
ATOM     16  C   UNL     1       1.046  -0.829   1.443  0.00  0.00    +0.009 A 
ATOM     17  C   UNL     1       1.271   0.458   1.892  0.00  0.00    +0.046 A 
ATOM     18  C   UNL     1       2.535   1.019   1.782  0.00  0.00    +0.120 A 
ATOM     19  C   UNL     1       3.570   0.285   1.220  0.00  0.00    +0.046 A 
ATOM     20  C   UNL     1       3.340  -1.001   0.772  0.00  0.00    +0.009 A 
BRANCH  18  21
ATOM     21  O   UNL     1       2.759   2.284   2.223  0.00  0.00    -0.495 OA
ATOM     22  C   UNL     1       4.085   2.797   2.077  0.00  0.00    +0.277 C 
ENDBRANCH  18  21
ENDBRANCH  14  15
ENDBRANCH   3  14
BRANCH   3  23
ATOM     23  C   UNL     1       2.311  -2.822  -2.093  0.00  0.00    +0.166 C 
BRANCH  23  24
ATOM     24  C   UNL     1       1.973  -1.606  -2.957  0.00  0.00    +0.023 C 
ATOM     25  C   UNL     1       1.957  -0.343  -2.086  0.00  0.00    +0.010 C 
ATOM     26  C   UNL     1       1.444   0.823  -2.934  0.00  0.00    +0.027 C 
ATOM     27  C   UNL     1       2.182   0.876  -4.240  0.00  0.00    -0.031 C 
ATOM     28  C   UNL     1       2.872  -0.106  -4.723  0.00  0.00    -0.031 C 
ATOM     29  C   UNL     1       3.039  -1.432  -4.041  0.00  0.00    +0.032 C 
ENDBRANCH  23  24
BRANCH  23  30
ATOM     30  C   UNL     1       2.238  -4.071  -2.933  0.00  0.00    +0.238 C 
ATOM     31  O   UNL     1       1.262  -4.788  -2.870  0.00  0.00    -0.273 OA
ATOM     32  N   UNL     1       3.258  -4.391  -3.754  0.00  0.00    -0.284 N 
ATOM     33  H   UNL     1       4.070  -3.862  -3.748  0.00  0.00    +0.155 HD
BRANCH  32  34
ATOM     34  C   UNL     1       3.144  -5.490  -4.617  0.00  0.00    +0.037 A 
ATOM     35  C   UNL     1       4.269  -6.237  -4.941  0.00  0.00    +0.027 A 
ATOM     36  C   UNL     1       4.157  -7.323  -5.788  0.00  0.00    +0.051 A 
ATOM     37  C   UNL     1       2.926  -7.664  -6.323  0.00  0.00    +0.166 A 
ATOM     38  C   UNL     1       1.797  -6.913  -6.004  0.00  0.00    +0.168 A 
ATOM     39  C   UNL     1       1.909  -5.827  -5.151  0.00  0.00    +0.072 A 
ATOM     40  O   UNL     1       0.720  -7.447  -6.652  0.00  0.00    -0.453 OA
ATOM     41  C   UNL     1       1.270  -8.279  -7.690  0.00  0.00    +0.466 C 
ATOM     42  O   UNL     1       2.555  -8.668  -7.171  0.00  0.00    -0.453 OA
ENDBRANCH  32  34
ENDBRANCH  23  30
ENDBRANCH   3  23
TORSDOF 10
