REMARK  Name = ZINC64201806
REMARK  4 active torsions:
REMARK  status: ('A' for Active; 'I' for Inactive)
REMARK    1  A    between atoms: C_8  and  C_11
REMARK    2  A    between atoms: C_11  and  O_12
REMARK    3  A    between atoms: O_12  and  C_13
REMARK    4  A    between atoms: C_13  and  C_15
REMARK                            x       y       z     vdW  Elec       q    Type
REMARK                         _______ _______ _______ _____ _____    ______ ____
ROOT
ATOM      1  O   UNL     1       2.777  -2.650  -2.454  0.00  0.00    -0.458 OA
ENDROOT
BRANCH   1   2
ATOM      2  C   UNL     1       2.956  -3.225  -3.659  0.00  0.00    +0.339 C 
ATOM      3  O   UNL     1       3.245  -4.403  -3.733  0.00  0.00    -0.245 OA
BRANCH   2   4
ATOM      4  C   UNL     1       2.802  -2.423  -4.891  0.00  0.00    +0.061 A 
ATOM      5  C   UNL     1       2.475  -1.067  -4.802  0.00  0.00    +0.015 A 
ATOM      6  C   UNL     1       2.331  -0.317  -5.955  0.00  0.00    +0.008 A 
ATOM      7  C   UNL     1       2.509  -0.904  -7.181  0.00  0.00    +0.000 A 
ATOM      8  C   UNL     1       2.837  -2.262  -7.297  0.00  0.00    +0.089 A 
ATOM      9  C   UNL     1       2.989  -3.020  -6.135  0.00  0.00    +0.044 A 
ATOM     10  N   UNL     1       2.951  -2.573  -8.620  0.00  0.00    -0.178 NA
ATOM     11  N   UNL     1       2.750  -1.634  -9.391  0.00  0.00    -0.304 N 
ATOM     12  C   UNL     1       2.437  -0.423  -8.612  0.00  0.00    +0.171 C 
ATOM     13  H   UNL     1       2.791  -1.684 -10.359  0.00  0.00    +0.183 HD
ENDBRANCH   2   4
ENDBRANCH   1   2
BRANCH   1  14
ATOM     14  C   UNL     1       2.942  -3.485  -1.306  0.00  0.00    +0.266 C 
BRANCH  14  22
ATOM     15  C   UNL     1      -0.017   1.371   0.010  0.00  0.00    +0.002 A 
ATOM     16  C   UNL     1       1.157   2.102   0.002  0.00  0.00    +0.001 A 
ATOM     17  C   UNL     1       2.367   1.427  -0.013  0.00  0.00    +0.016 A 
ATOM     18  C   UNL     1       2.384   0.051  -0.020  0.00  0.00    +0.031 A 
ATOM     19  C   UNL     1       1.215  -0.716  -0.013  0.00  0.00    +0.042 A 
ATOM     20  C   UNL     1       0.002  -0.004   0.002  0.00  0.00    +0.024 A 
ATOM     21  N   UNL     1       1.341  -2.104  -0.022  0.00  0.00    -0.328 N 
ATOM     22  C   UNL     1       2.700  -2.663  -0.039  0.00  0.00    +0.171 C 
ATOM     23  S   UNL     1       3.714  -1.130  -0.039  0.00  0.00    -0.098 S 
ATOM     24  H   UNL     1       0.560  -2.680  -0.018  0.00  0.00    +0.147 HD
ENDBRANCH  14  22
ENDBRANCH   1  14
TORSDOF 4
