REMARK  Name = ZINC11838302
REMARK  5 active torsions:
REMARK  status: ('A' for Active; 'I' for Inactive)
REMARK    1  A    between atoms: C_1  and  C_2
REMARK    2  A    between atoms: C_8  and  C_26
REMARK    3  A    between atoms: C_9  and  C_11
REMARK    4  A    between atoms: N_13  and  C_14
REMARK    5  A    between atoms: C_14  and  C_15
REMARK                            x       y       z     vdW  Elec       q    Type
REMARK                         _______ _______ _______ _____ _____    ______ ____
ROOT
ATOM      1  C   UNL     1       0.142   9.293   0.533  0.00  0.00    +0.280 C 
ATOM      2  O   UNL     1      -0.561   9.939  -0.220  0.00  0.00    -0.267 OA
ATOM      3  N   UNL     1      -0.099   7.980   0.722  0.00  0.00    -0.305 N 
ATOM      4  H   UNL     1       0.462   7.465   1.322  0.00  0.00    +0.149 HD
ENDROOT
BRANCH   1  13
ATOM      5  C   UNL     1       5.449  13.584   3.547  0.00  0.00    +0.044 C 
ATOM      6  C   UNL     1       4.586  12.400   3.198  0.00  0.00    -0.050 A 
ATOM      7  C   UNL     1       4.849  11.162   3.769  0.00  0.00    +0.007 A 
ATOM      8  C   UNL     1       4.072  10.066   3.464  0.00  0.00    +0.047 A 
ATOM      9  C   UNL     1       3.011  10.195   2.574  0.00  0.00    +0.136 A 
ATOM     10  C   UNL     1       2.749  11.452   1.998  0.00  0.00    +0.024 A 
ATOM     11  C   UNL     1       3.549  12.551   2.321  0.00  0.00    +0.015 A 
ATOM     12  C   UNL     1       1.592  11.255   1.126  0.00  0.00    +0.008 A 
ATOM     13  C   UNL     1       1.256   9.944   1.238  0.00  0.00    +0.193 A 
ATOM     14  O   UNL     1       2.095   9.330   2.098  0.00  0.00    -0.450 OA
ATOM     15  C   UNL     1       0.911  12.295   0.275  0.00  0.00    +0.048 C 
ENDBRANCH   1  13
BRANCH   3  16
ATOM     16  C   UNL     1      -1.209   7.332   0.019  0.00  0.00    +0.152 C 
BRANCH  16  17
ATOM     17  C   UNL     1      -1.263   5.852   0.407  0.00  0.00    +0.228 C 
ATOM     18  C   UNL     1      -2.424   5.167  -0.326  0.00  0.00    +0.275 C 
ATOM     19  O   UNL     1      -2.437   3.785   0.048  0.00  0.00    -0.485 OA
ATOM     20  C   UNL     1      -1.241   3.136   0.030  0.00  0.00    +0.162 A 
ATOM     21  C   UNL     1      -1.219   1.749   0.017  0.00  0.00    +0.049 A 
ATOM     22  C   UNL     1      -0.013   1.076   0.008  0.00  0.00    +0.004 A 
ATOM     23  C   UNL     1       1.176   1.782   0.000  0.00  0.00    +0.004 A 
ATOM     24  C   UNL     1       1.161   3.164   0.007  0.00  0.00    +0.049 A 
ATOM     25  C   UNL     1      -0.046   3.846   0.020  0.00  0.00    +0.163 A 
ATOM     26  O   UNL     1      -0.045   5.207   0.019  0.00  0.00    -0.480 OA
ENDBRANCH  16  17
ENDBRANCH   3  16
TORSDOF 3
