REMARK  Name = ZINC01129451
REMARK  10 active torsions:
REMARK  status: ('A' for Active; 'I' for Inactive)
REMARK    1  A    between atoms: C_1  and  C_2
REMARK    2  A    between atoms: C_2  and  C_3
REMARK    3  A    between atoms: C_3  and  C_4
REMARK    4  A    between atoms: C_11  and  N_28
REMARK    5  A    between atoms: C_12  and  C_26
REMARK    6  A    between atoms: C_13  and  C_15
REMARK    7  A    between atoms: C_17  and  O_24
REMARK    8  A    between atoms: C_18  and  O_22
REMARK    9  A    between atoms: O_22  and  C_23
REMARK   10  A    between atoms: O_24  and  C_25
REMARK                            x       y       z     vdW  Elec       q    Type
REMARK                         _______ _______ _______ _____ _____    ______ ____
ROOT
ATOM      1  C   UNL     1      -0.718   1.572   1.248  0.00  0.00    +0.071 A 
ATOM      2  C   UNL     1      -0.460   2.758   1.921  0.00  0.00    +0.049 A 
ATOM      3  C   UNL     1      -1.310   2.834   2.988  0.00  0.00    +0.222 A 
ATOM      4  N   UNL     1      -2.066   1.725   2.984  0.00  0.00    -0.246 N 
ATOM      5  H   UNL     1      -2.778   1.495   3.647  0.00  0.00    +0.192 HD
ATOM      6  N   UNL     1      -1.680   0.945   1.883  0.00  0.00    -0.176 NA
ATOM      7  O   UNL     1      -1.314   3.883   3.848  0.00  0.00    -0.423 OA
ATOM      8  C   UNL     1      -0.649   4.996   3.479  0.00  0.00    +0.200 C 
ATOM      9  C   UNL     1       0.223   5.044   2.448  0.00  0.00    +0.098 C 
ATOM     10  C   UNL     1       0.544   3.837   1.602  0.00  0.00    +0.102 C 
ENDROOT
BRANCH  10  11
ATOM     11  C   UNL     1       1.932   3.345   1.924  0.00  0.00    -0.017 A 
ATOM     12  C   UNL     1       2.240   2.940   3.210  0.00  0.00    +0.055 A 
ATOM     13  C   UNL     1       3.514   2.487   3.507  0.00  0.00    +0.162 A 
ATOM     14  C   UNL     1       4.484   2.441   2.509  0.00  0.00    +0.163 A 
ATOM     15  C   UNL     1       4.170   2.848   1.223  0.00  0.00    +0.065 A 
ATOM     16  C   UNL     1       2.893   3.294   0.931  0.00  0.00    +0.026 A 
ATOM     17 BR   UNL     1       2.463   3.842  -0.827  0.00  0.00    -0.050 Br
BRANCH  14  18
ATOM     18  O   UNL     1       5.737   1.997   2.796  0.00  0.00    -0.491 OA
ATOM     19  C   UNL     1       6.680   1.977   1.723  0.00  0.00    +0.277 C 
ENDBRANCH  14  18
BRANCH  13  20
ATOM     20  O   UNL     1       3.819   2.089   4.771  0.00  0.00    -0.491 OA
ATOM     21  C   UNL     1       2.775   2.164   5.744  0.00  0.00    +0.277 C 
ENDBRANCH  13  20
ENDBRANCH  10  11
BRANCH   8  22
ATOM     22  N   UNL     1      -0.871   6.148   4.192  0.00  0.00    -0.328 N 
ATOM     23  H   UNL     1      -1.491   6.145   4.938  0.00  0.00    +0.145 HD
ATOM     24  H   UNL     1      -0.407   6.965   3.950  0.00  0.00    +0.145 HD
ENDBRANCH   8  22
BRANCH   9  25
ATOM     25  C   UNL     1       0.868   6.287   2.147  0.00  0.00    +0.101 C 
ATOM     26  N   UNL     1       1.379   7.273   1.909  0.00  0.00    -0.191 NA
ENDBRANCH   9  25
BRANCH   1  27
ATOM     27  C   UNL     1      -0.013   1.086   0.008  0.00  0.00    +0.057 C 
BRANCH  27  29
ATOM     28  C   UNL     1      -0.037   1.099  -2.490  0.00  0.00    +0.004 C 
ATOM     29  C   UNL     1      -0.753   1.593  -1.232  0.00  0.00    +0.003 C 
ENDBRANCH  27  29
ENDBRANCH   1  27
TORSDOF 7
