REMARK  Name = ZINC38683899
REMARK  17 active torsions:
REMARK  status: ('A' for Active; 'I' for Inactive)
REMARK    1  A    between atoms: C_1  and  C_2
REMARK    2  A    between atoms: C_2  and  C_3
REMARK    3  A    between atoms: C_3  and  O_4
REMARK    4  A    between atoms: O_4  and  C_5
REMARK    5  A    between atoms: C_8  and  C_14
REMARK    6  A    between atoms: C_10  and  O_11
REMARK    7  A    between atoms: O_11  and  C_12
REMARK    8  A    between atoms: C_12  and  C_13
REMARK    9  A    between atoms: C_19  and  O_28
REMARK   10  A    between atoms: C_23  and  N_27
REMARK   11  A    between atoms: C_24  and  C_25
REMARK   12  A    between atoms: O_28  and  C_29
REMARK   13  A    between atoms: C_29  and  C_31
REMARK   14  A    between atoms: C_34  and  O_37
REMARK   15  A    between atoms: O_37  and  C_38
REMARK   16  A    between atoms: C_38  and  C_39
REMARK   17  A    between atoms: C_38  and  C_40
REMARK                            x       y       z     vdW  Elec       q    Type
REMARK                         _______ _______ _______ _____ _____    ______ ____
ROOT
ATOM      1  C   UNL     1      -6.037  -4.784  -0.232  0.00  0.00    +0.098 C 
ATOM      2  C   UNL     1      -6.856  -4.365  -1.424  0.00  0.00    +0.008 A 
ATOM      3  C   UNL     1      -6.571  -4.901  -2.668  0.00  0.00    +0.012 A 
ATOM      4  C   UNL     1      -7.311  -4.528  -3.772  0.00  0.00    +0.047 A 
ATOM      5  C   UNL     1      -8.346  -3.613  -3.637  0.00  0.00    +0.135 A 
ATOM      6  C   UNL     1      -8.633  -3.075  -2.393  0.00  0.00    +0.093 A 
ATOM      7  C   UNL     1      -7.888  -3.450  -1.284  0.00  0.00    +0.138 A 
ATOM      8  O   UNL     1      -8.182  -2.915  -0.073  0.00  0.00    -0.441 OA
ATOM      9  C   UNL     1      -7.762  -3.523   1.049  0.00  0.00    +0.199 C 
ATOM     10  C   UNL     1      -6.750  -4.418   1.039  0.00  0.00    +0.098 C 
ENDROOT
BRANCH   1  14
ATOM     11  C   UNL     1      -2.249  -2.802  -0.350  0.00  0.00    +0.162 A 
ATOM     12  C   UNL     1      -3.420  -2.063  -0.285  0.00  0.00    +0.050 A 
ATOM     13  C   UNL     1      -4.643  -2.707  -0.247  0.00  0.00    +0.008 A 
ATOM     14  C   UNL     1      -4.701  -4.088  -0.274  0.00  0.00    -0.031 A 
ATOM     15  C   UNL     1      -3.538  -4.831  -0.338  0.00  0.00    +0.054 A 
ATOM     16  C   UNL     1      -2.309  -4.192  -0.382  0.00  0.00    +0.162 A 
BRANCH  11  17
ATOM     17  O   UNL     1      -1.046  -2.171  -0.387  0.00  0.00    -0.488 OA
BRANCH  17  18
ATOM     18  C   UNL     1      -1.061  -0.742  -0.350  0.00  0.00    +0.229 C 
BRANCH  18  20
ATOM     19  C   UNL     1       0.358   1.314  -0.361  0.00  0.00    +0.007 C 
ATOM     20  C   UNL     1       0.374  -0.215  -0.401  0.00  0.00    +0.038 C 
ENDBRANCH  18  20
ENDBRANCH  17  18
ENDBRANCH  11  17
BRANCH  16  21
ATOM     21  O   UNL     1      -1.163  -4.922  -0.452  0.00  0.00    -0.489 OA
BRANCH  21  22
ATOM     22  C   UNL     1      -1.301  -6.344  -0.481  0.00  0.00    +0.226 C 
ATOM     23  C   UNL     1       0.085  -6.989  -0.559  0.00  0.00    +0.048 C 
ENDBRANCH  21  22
ENDBRANCH  16  21
ENDBRANCH   1  14
BRANCH   9  24
ATOM     24  N   UNL     1      -8.379  -3.225   2.238  0.00  0.00    -0.328 N 
ATOM     25  H   UNL     1      -9.107  -2.584   2.260  0.00  0.00    +0.145 HD
ATOM     26  H   UNL     1      -8.087  -3.656   3.057  0.00  0.00    +0.145 HD
ENDBRANCH   9  24
BRANCH  10  27
ATOM     27  C   UNL     1      -6.350  -5.030   2.270  0.00  0.00    +0.101 C 
ATOM     28  N   UNL     1      -6.032  -5.516   3.247  0.00  0.00    -0.191 NA
ENDBRANCH  10  27
BRANCH   5  29
ATOM     29  O   UNL     1      -9.075  -3.245  -4.723  0.00  0.00    -0.422 OA
BRANCH  29  30
ATOM     30  C   UNL     1      -9.862  -4.174  -5.301  0.00  0.00    +0.344 C 
ATOM     31  O   UNL     1      -9.980  -5.271  -4.793  0.00  0.00    -0.245 OA
BRANCH  30  32
ATOM     32  C   UNL     1     -10.580  -3.858  -6.549  0.00  0.00    +0.060 A 
ATOM     33  C   UNL     1     -10.441  -2.598  -7.139  0.00  0.00    +0.018 A 
ATOM     34  C   UNL     1     -11.113  -2.308  -8.305  0.00  0.00    +0.046 A 
ATOM     35  C   UNL     1     -11.929  -3.266  -8.896  0.00  0.00    +0.121 A 
ATOM     36  C   UNL     1     -12.070  -4.520  -8.313  0.00  0.00    +0.046 A 
ATOM     37  C   UNL     1     -11.398  -4.820  -7.150  0.00  0.00    +0.018 A 
BRANCH  35  38
ATOM     38  O   UNL     1     -12.589  -2.976 -10.046  0.00  0.00    -0.489 OA
BRANCH  38  39
ATOM     39  C   UNL     1     -12.338  -1.698 -10.634  0.00  0.00    +0.167 C 
ATOM     40  C   UNL     1     -11.057  -1.763 -11.467  0.00  0.00    +0.051 C 
ATOM     41  C   UNL     1     -13.513  -1.310 -11.534  0.00  0.00    +0.051 C 
ENDBRANCH  38  39
ENDBRANCH  35  38
ENDBRANCH  30  32
ENDBRANCH  29  30
ENDBRANCH   5  29
TORSDOF 13
