REMARK  Name = ZINC12833285
REMARK  12 active torsions:
REMARK  status: ('A' for Active; 'I' for Inactive)
REMARK    1  A    between atoms: C_1  and  C_2
REMARK    2  A    between atoms: C_4  and  C_36
REMARK    3  A    between atoms: C_7  and  C_14
REMARK    4  A    between atoms: C_14  and  N_64
REMARK    5  A    between atoms: C_15  and  C_16
REMARK    6  A    between atoms: C_15  and  N_64
REMARK    7  A    between atoms: C_21  and  C_22
REMARK    8  A    between atoms: C_21  and  N_64
REMARK    9  A    between atoms: N_26  and  C_27
REMARK   10  A    between atoms: C_27  and  C_28
REMARK   11  A    between atoms: C_31  and  O_34
REMARK   12  A    between atoms: O_34  and  C_35
REMARK                            x       y       z     vdW  Elec       q    Type
REMARK                         _______ _______ _______ _____ _____    ______ ____
ROOT
ATOM      1  N   UNL     1      -0.839   1.556  -0.978  0.00  0.00    +0.390 N 
ATOM      2  H   UNL     1      -1.850   1.380  -0.953  0.00  0.00    -0.080 HD
ENDROOT
BRANCH   1   3
ATOM      3  C   UNL     1      -0.240   0.760  -2.071  0.00  0.00    -0.036 C 
BRANCH   3  10
ATOM      4  C   UNL     1      -4.182  -6.146  -2.696  0.00  0.00    +0.044 C 
ATOM      5  C   UNL     1      -3.592  -4.759  -2.733  0.00  0.00    -0.048 A 
ATOM      6  C   UNL     1      -4.162  -3.792  -3.549  0.00  0.00    +0.007 A 
ATOM      7  C   UNL     1      -3.643  -2.529  -3.597  0.00  0.00    -0.041 A 
ATOM      8  C   UNL     1      -2.527  -2.208  -2.817  0.00  0.00    +0.002 A 
ATOM      9  C   UNL     1      -1.948  -0.863  -2.840  0.00  0.00    +0.017 A 
ATOM     10  C   UNL     1      -0.864  -0.612  -2.067  0.00  0.00    +0.001 A 
ATOM     11  C   UNL     1      -0.319  -1.629  -1.254  0.00  0.00    +0.251 A 
ATOM     12  O   UNL     1       0.654  -1.380  -0.563  0.00  0.00    -0.268 OA
ATOM     13  N   UNL     1      -0.847  -2.865  -1.222  0.00  0.00    -0.322 N 
ATOM     14  H   UNL     1      -0.448  -3.541  -0.651  0.00  0.00    +0.169 HD
ATOM     15  C   UNL     1      -1.947  -3.186  -1.988  0.00  0.00    +0.050 A 
ATOM     16  C   UNL     1      -2.493  -4.465  -1.956  0.00  0.00    +0.029 A 
ATOM     17  C   UNL     1      -4.271  -1.486  -4.486  0.00  0.00    +0.044 C 
ENDBRANCH   3  10
ENDBRANCH   1   3
BRANCH   1  18
ATOM     18  C   UNL     1      -0.608   2.996  -1.217  0.00  0.00    -0.035 C 
BRANCH  18  19
ATOM     19  C   UNL     1      -1.501   3.449  -2.343  0.00  0.00    -0.027 A 
ATOM     20  C   UNL     1      -2.793   3.858  -2.297  0.00  0.00    +0.009 A 
ATOM     21  C   UNL     1      -3.418   4.236  -3.470  0.00  0.00    +0.008 A 
ATOM     22  C   UNL     1      -2.725   4.178  -4.633  0.00  0.00    +0.045 A 
ATOM     23  S   UNL     1      -1.134   3.581  -4.085  0.00  0.00    -0.103 S 
ENDBRANCH  18  19
ENDBRANCH   1  18
BRANCH   1  24
ATOM     24  C   UNL     1      -0.250   1.157   0.317  0.00  0.00    +0.001 C 
BRANCH  24  25
ATOM     25  C   UNL     1      -1.026   1.818   1.428  0.00  0.00    +0.135 A 
ATOM     26  N   UNL     1      -0.769   2.979   1.979  0.00  0.00    -0.115 NA
ATOM     27  N   UNL     1      -1.658   3.194   2.887  0.00  0.00    -0.023 NA
ATOM     28  N   UNL     1      -2.471   2.196   2.934  0.00  0.00    -0.044 NA
ATOM     29  N   UNL     1      -2.115   1.327   2.049  0.00  0.00    -0.227 N 
BRANCH  29  30
ATOM     30  C   UNL     1      -2.772   0.047   1.773  0.00  0.00    +0.182 C 
BRANCH  30  31
ATOM     31  C   UNL     1      -2.163  -1.027   2.638  0.00  0.00    -0.026 A 
ATOM     32  C   UNL     1      -1.080  -1.752   2.177  0.00  0.00    +0.009 A 
ATOM     33  C   UNL     1      -0.516  -2.733   2.970  0.00  0.00    +0.046 A 
ATOM     34  C   UNL     1      -1.045  -2.998   4.225  0.00  0.00    +0.120 A 
ATOM     35  C   UNL     1      -2.135  -2.272   4.683  0.00  0.00    +0.046 A 
ATOM     36  C   UNL     1      -2.691  -1.288   3.888  0.00  0.00    +0.009 A 
BRANCH  34  37
ATOM     37  O   UNL     1      -0.496  -3.966   5.005  0.00  0.00    -0.495 OA
ATOM     38  C   UNL     1       0.625  -4.673   4.469  0.00  0.00    +0.277 C 
ENDBRANCH  34  37
ENDBRANCH  30  31
ENDBRANCH  29  30
ENDBRANCH  24  25
ENDBRANCH   1  24
TORSDOF 9
