REMARK  Name = ZINC58013198
REMARK  16 active torsions:
REMARK  status: ('A' for Active; 'I' for Inactive)
REMARK    1  A    between atoms: C_1  and  C_2
REMARK    2  A    between atoms: C_5  and  C_31
REMARK    3  A    between atoms: C_6  and  O_8
REMARK    4  A    between atoms: O_8  and  C_9
REMARK    5  A    between atoms: C_9  and  C_10
REMARK    6  A    between atoms: C_13  and  S_16
REMARK    7  A    between atoms: N_14  and  N_15
REMARK    8  A    between atoms: S_16  and  C_17
REMARK    9  A    between atoms: C_17  and  C_18
REMARK   10  A    between atoms: C_18  and  C_20
REMARK   11  A    between atoms: C_18  and  O_30
REMARK   12  A    between atoms: C_20  and  O_21
REMARK   13  A    between atoms: O_21  and  C_22
REMARK   14  A    between atoms: C_25  and  C_28
REMARK   15  A    between atoms: C_31  and  C_32
REMARK   16  A    between atoms: C_31  and  C_33
REMARK                            x       y       z     vdW  Elec       q    Type
REMARK                         _______ _______ _______ _____ _____    ______ ____
ROOT
ATOM      1  C   UNL     1       0.063  -2.932   4.751  0.00  0.00    +0.189 A 
ATOM      2  N   UNL     1      -0.977  -3.425   5.361  0.00  0.00    -0.128 NA
ATOM      3  N   UNL     1      -0.603  -4.177   6.334  0.00  0.00    -0.121 NA
ATOM      4  C   UNL     1       0.708  -4.205   6.397  0.00  0.00    +0.209 A 
ATOM      5  N   UNL     1       1.174  -3.415   5.385  0.00  0.00    -0.225 N 
ENDROOT
BRANCH   5   6
ATOM      6  N   UNL     1       2.479  -3.158   5.074  0.00  0.00    -0.295 N 
ATOM      7  H   UNL     1       2.817  -2.348   5.570  0.00  0.00    +0.163 HD
ATOM      8  H   UNL     1       3.059  -3.963   5.257  0.00  0.00    +0.163 HD
ENDBRANCH   5   6
BRANCH   1   9
ATOM      9  C   UNL     1       0.045  -2.006   3.562  0.00  0.00    +0.306 C 
BRANCH   9  10
ATOM     10  O   UNL     1       0.050  -2.776   2.358  0.00  0.00    -0.484 OA
BRANCH  10  16
ATOM     11  C   UNL     1      -0.018   1.503   0.010  0.00  0.00    +0.044 C 
ATOM     12  C   UNL     1       0.002  -0.004   0.002  0.00  0.00    -0.047 A 
ATOM     13  C   UNL     1       0.006  -0.688  -1.200  0.00  0.00    +0.004 A 
ATOM     14  C   UNL     1       0.024  -2.071  -1.211  0.00  0.00    +0.008 A 
ATOM     15  C   UNL     1       0.039  -2.772  -0.020  0.00  0.00    -0.003 A 
ATOM     16  C   UNL     1       0.035  -2.088   1.186  0.00  0.00    +0.125 A 
ATOM     17  C   UNL     1       0.023  -0.700   1.195  0.00  0.00    +0.049 A 
BRANCH  15  18
ATOM     18  C   UNL     1       0.059  -4.279  -0.033  0.00  0.00    +0.016 C 
ATOM     19  C   UNL     1      -1.188  -4.799  -0.753  0.00  0.00    +0.012 C 
ATOM     20  C   UNL     1       1.311  -4.766  -0.764  0.00  0.00    +0.012 C 
ENDBRANCH  15  18
ENDBRANCH  10  16
ENDBRANCH   9  10
ENDBRANCH   1   9
BRANCH   4  21
ATOM     21  S   UNL     1       1.682  -5.098   7.562  0.00  0.00    -0.082 S 
BRANCH  21  22
ATOM     22  C   UNL     1       0.458  -5.935   8.607  0.00  0.00    +0.112 C 
BRANCH  22  23
ATOM     23  C   UNL     1       1.179  -6.758   9.677  0.00  0.00    +0.162 C 
BRANCH  23  24
ATOM     24  O   UNL     1       1.889  -5.882  10.554  0.00  0.00    -0.388 OA
ATOM     25  H   UNL     1       1.326  -5.245  11.015  0.00  0.00    +0.210 HD
ENDBRANCH  23  24
BRANCH  23  26
ATOM     26  C   UNL     1       0.153  -7.561  10.480  0.00  0.00    +0.261 C 
BRANCH  26  27
ATOM     27  O   UNL     1       0.832  -8.417  11.400  0.00  0.00    -0.489 OA
BRANCH  27  28
ATOM     28  C   UNL     1       0.062  -9.203  12.195  0.00  0.00    +0.121 A 
ATOM     29  C   UNL     1      -1.322  -9.154  12.084  0.00  0.00    +0.047 A 
ATOM     30  C   UNL     1      -2.108  -9.951  12.888  0.00  0.00    +0.022 A 
ATOM     31  C   UNL     1      -1.511 -10.809  13.816  0.00  0.00    +0.052 A 
ATOM     32  C   UNL     1      -0.118 -10.855  13.923  0.00  0.00    +0.022 A 
ATOM     33  C   UNL     1       0.660 -10.059  13.112  0.00  0.00    +0.047 A 
BRANCH  31  34
ATOM     34  C   UNL     1      -2.323 -11.638  14.653  0.00  0.00    +0.099 C 
ATOM     35  N   UNL     1      -2.968 -12.296  15.318  0.00  0.00    -0.191 NA
ENDBRANCH  31  34
ENDBRANCH  27  28
ENDBRANCH  26  27
ENDBRANCH  23  26
ENDBRANCH  22  23
ENDBRANCH  21  22
ENDBRANCH   4  21
TORSDOF 13
