REMARK  Name = ZINC00800170
REMARK  10 active torsions:
REMARK  status: ('A' for Active; 'I' for Inactive)
REMARK    1  A    between atoms: C_1  and  C_2
REMARK    2  A    between atoms: C_8  and  C_10
REMARK    3  A    between atoms: C_10  and  C_11
REMARK    4  A    between atoms: C_11  and  C_12
REMARK    5  A    between atoms: N_14  and  C_15
REMARK    6  A    between atoms: N_14  and  C_21
REMARK    7  A    between atoms: C_15  and  C_16
REMARK    8  A    between atoms: C_21  and  C_29
REMARK    9  A    between atoms: C_26  and  C_28
REMARK   10  A    between atoms: N_31  and  C_32
REMARK                            x       y       z     vdW  Elec       q    Type
REMARK                         _______ _______ _______ _____ _____    ______ ____
ROOT
ATOM      1  C   UNL     1       2.037   0.226  -4.027  0.00  0.00    +0.217 C 
ATOM      2  O   UNL     1       1.019   0.874  -3.913  0.00  0.00    -0.276 OA
ATOM      3  N   UNL     1       2.710  -0.171  -2.929  0.00  0.00    -0.282 N 
ENDROOT
BRANCH   3   4
ATOM      4  C   UNL     1       2.161   0.094  -1.597  0.00  0.00    +0.116 C 
ATOM      5  C   UNL     1       0.858  -0.689  -1.418  0.00  0.00    +0.036 C 
ATOM      6  C   UNL     1       0.284  -0.411  -0.027  0.00  0.00    +0.003 C 
ATOM      7  C   UNL     1       0.004   1.086   0.120  0.00  0.00    +0.000 C 
ATOM      8  C   UNL     1       1.306   1.868  -0.059  0.00  0.00    +0.006 C 
ATOM      9  C   UNL     1       1.881   1.591  -1.450  0.00  0.00    +0.019 C 
ATOM     10  C   UNL     1       3.183   2.374  -1.630  0.00  0.00    +0.010 C 
BRANCH   4  11
ATOM     11  C   UNL     1       3.154  -0.336  -0.549  0.00  0.00    +0.237 C 
ATOM     12  O   UNL     1       2.839  -1.160   0.284  0.00  0.00    -0.273 OA
ATOM     13  N   UNL     1       4.393   0.194  -0.537  0.00  0.00    -0.311 N 
ATOM     14  H   UNL     1       4.628   0.892  -1.168  0.00  0.00    +0.149 HD
BRANCH  13  15
ATOM     15  C   UNL     1       5.385  -0.284   0.430  0.00  0.00    +0.073 C 
ATOM     16  C   UNL     1       5.210   0.465   1.752  0.00  0.00    +0.022 C 
ATOM     17  C   UNL     1       6.246  -0.034   2.762  0.00  0.00    +0.002 C 
ATOM     18  C   UNL     1       7.653   0.217   2.216  0.00  0.00    +0.000 C 
ATOM     19  C   UNL     1       7.827  -0.532   0.893  0.00  0.00    +0.002 C 
ATOM     20  C   UNL     1       6.792  -0.033  -0.117  0.00  0.00    +0.022 C 
ENDBRANCH  13  15
ENDBRANCH   4  11
ENDBRANCH   3   4
BRANCH   1  21
ATOM     21  C   UNL     1       2.550  -0.136  -5.397  0.00  0.00    +0.105 C 
BRANCH  21  22
ATOM     22  C   UNL     1       1.609   0.432  -6.461  0.00  0.00    +0.105 C 
BRANCH  22  30
ATOM     23  C   UNL     1       4.140  -1.341 -12.717  0.00  0.00    +0.089 C 
ATOM     24  C   UNL     1       3.108  -0.664 -11.851  0.00  0.00    +0.136 A 
ATOM     25  C   UNL     1       3.095  -0.612 -10.500  0.00  0.00    +0.091 A 
ATOM     26  C   UNL     1       1.923   0.131 -10.197  0.00  0.00    +0.168 A 
ATOM     27  N   UNL     1       1.382   0.444 -11.346  0.00  0.00    -0.063 NA
ATOM     28  O   UNL     1       2.028   0.010 -12.271  0.00  0.00    -0.358 OA
ATOM     29  N   UNL     1       1.448   0.467  -8.929  0.00  0.00    -0.268 N 
ATOM     30  C   UNL     1       2.121   0.070  -7.831  0.00  0.00    +0.219 C 
ATOM     31  O   UNL     1       3.140  -0.579  -7.945  0.00  0.00    -0.275 OA
ATOM     32  H   UNL     1       0.634   0.985  -8.838  0.00  0.00    +0.156 HD
ENDBRANCH  22  30
ENDBRANCH  21  22
ENDBRANCH   1  21
BRANCH   3  33
ATOM     33  C   UNL     1       3.991  -0.868  -3.067  0.00  0.00    +0.151 C 
BRANCH  33  34
ATOM     34  C   UNL     1       3.762  -2.357  -3.011  0.00  0.00    +0.007 A 
ATOM     35  C   UNL     1       3.509  -3.220  -4.025  0.00  0.00    +0.013 A 
ATOM     36  C   UNL     1       3.331  -4.560  -3.736  0.00  0.00    +0.008 A 
ATOM     37  C   UNL     1       3.415  -4.971  -2.447  0.00  0.00    +0.045 A 
ATOM     38  S   UNL     1       3.762  -3.442  -1.594  0.00  0.00    -0.100 S 
ENDBRANCH  33  34
ENDBRANCH   3  33
TORSDOF 8
