REMARK  Name = ZINC08214823
REMARK  13 active torsions:
REMARK  status: ('A' for Active; 'I' for Inactive)
REMARK    1  A    between atoms: C_1  and  C_2
REMARK    2  A    between atoms: C_2  and  O_4
REMARK    3  A    between atoms: O_4  and  C_5
REMARK    4  A    between atoms: C_8  and  O_43
REMARK    5  A    between atoms: C_10  and  C_41
REMARK    6  A    between atoms: C_10  and  C_42
REMARK    7  A    between atoms: C_13  and  C_40
REMARK    8  A    between atoms: C_18  and  C_39
REMARK    9  A    between atoms: C_19  and  C_34
REMARK   10  A    between atoms: C_27  and  C_32
REMARK   11  A    between atoms: C_28  and  O_31
REMARK   12  A    between atoms: O_43  and  C_44
REMARK   13  A    between atoms: C_44  and  C_46
REMARK                            x       y       z     vdW  Elec       q    Type
REMARK                         _______ _______ _______ _____ _____    ______ ____
ROOT
ATOM      1  C   UNL     1      -0.111  -1.738  -1.960  0.00  0.00    +0.186 C 
ATOM      2  C   UNL     1       0.856  -2.257  -0.901  0.00  0.00    +0.090 C 
ATOM      3  C   UNL     1       0.281  -2.105   0.497  0.00  0.00    +0.186 C 
ATOM      4  C   UNL     1      -1.108  -2.720   0.645  0.00  0.00    +0.006 C 
ATOM      5  C   UNL     1      -2.023  -2.379  -0.508  0.00  0.00    +0.010 C 
ATOM      6  C   UNL     1      -1.423  -2.540  -1.900  0.00  0.00    +0.012 C 
ATOM      7  C   UNL     1      -2.404  -1.921  -2.902  0.00  0.00    +0.010 C 
ATOM      8  C   UNL     1      -1.869  -1.927  -4.318  0.00  0.00    +0.005 C 
ATOM      9  C   UNL     1      -2.793  -1.233  -5.315  0.00  0.00    +0.014 C 
ATOM     10  C   UNL     1      -4.057  -0.671  -4.707  0.00  0.00    +0.042 C 
ATOM     11  C   UNL     1      -5.076  -0.269  -5.775  0.00  0.00    +0.218 C 
ATOM     12  O   UNL     1      -6.236   0.305  -5.200  0.00  0.00    -0.454 OA
ATOM     13  C   UNL     1      -6.848  -0.237  -4.146  0.00  0.00    +0.340 C 
ATOM     14  O   UNL     1      -7.923   0.175  -3.778  0.00  0.00    -0.248 OA
ATOM     15  C   UNL     1      -6.183  -1.388  -3.407  0.00  0.00    +0.260 C 
ATOM     16  C   UNL     1      -4.721  -1.649  -3.750  0.00  0.00    +0.124 C 
ATOM     17  C   UNL     1      -3.813  -2.477  -2.827  0.00  0.00    +0.030 C 
ATOM     18  C   UNL     1      -4.350  -2.411  -1.397  0.00  0.00    +0.124 C 
ATOM     19  C   UNL     1      -3.371  -3.092  -0.431  0.00  0.00    +0.036 C 
ATOM     20  C   UNL     1      -3.919  -3.926  -3.330  0.00  0.00    +0.017 C 
ATOM     21  O   UNL     1      -5.796  -2.453  -4.294  0.00  0.00    -0.352 OA
ATOM     22  C   UNL     1      -3.734   0.633  -3.974  0.00  0.00    +0.018 C 
ATOM     23  C   UNL     1      -1.099  -3.986  -2.249  0.00  0.00    +0.015 C 
ATOM     24  C   UNL     1      -0.989  -4.226   0.881  0.00  0.00    +0.015 C 
ATOM     25  C   UNL     1      -1.716  -2.111   1.935  0.00  0.00    +0.015 C 
ENDROOT
BRANCH  11  26
ATOM     26  C   UNL     1      -4.440   0.746  -6.689  0.00  0.00    +0.031 A 
ATOM     27  C   UNL     1      -3.889   0.501  -7.968  0.00  0.00    +0.048 A 
ATOM     28  C   UNL     1      -3.434   1.679  -8.429  0.00  0.00    +0.195 A 
ATOM     29  O   UNL     1      -3.678   2.621  -7.503  0.00  0.00    -0.471 OA
ATOM     30  C   UNL     1      -4.293   2.062  -6.448  0.00  0.00    +0.202 A 
ENDBRANCH  11  26
BRANCH  18  31
ATOM     31  O   UNL     1      -4.527  -1.048  -1.008  0.00  0.00    -0.391 OA
ATOM     32  H   UNL     1      -4.866  -0.936  -0.109  0.00  0.00    +0.210 HD
ENDBRANCH  18  31
BRANCH   1  33
ATOM     33  O   UNL     1      -0.380  -0.354  -1.747  0.00  0.00    -0.461 OA
BRANCH  33  35
ATOM     34  C   UNL     1       0.206   2.004  -2.182  0.00  0.00    +0.136 C 
ATOM     35  C   UNL     1       0.429   0.525  -2.360  0.00  0.00    +0.304 C 
ATOM     36  O   UNL     1       1.335   0.129  -3.054  0.00  0.00    -0.251 OA
ENDBRANCH  33  35
ENDBRANCH   1  33
BRANCH   3  37
ATOM     37  O   UNL     1       0.228  -0.720   0.856  0.00  0.00    -0.461 OA
BRANCH  37  38
ATOM     38  C   UNL     1       1.306  -0.207   1.470  0.00  0.00    +0.304 C 
ATOM     39  O   UNL     1       2.263  -0.909   1.695  0.00  0.00    -0.251 OA
ATOM     40  C   UNL     1       1.322   1.244   1.877  0.00  0.00    +0.136 C 
ENDBRANCH  37  38
ENDBRANCH   3  37
TORSDOF 6
