REMARK  Name = ZINC34923480
REMARK  10 active torsions:
REMARK  status: ('A' for Active; 'I' for Inactive)
REMARK    1  A    between atoms: C_1  and  C_2
REMARK    2  A    between atoms: N_8  and  C_9
REMARK    3  A    between atoms: C_11  and  C_12
REMARK    4  A    between atoms: C_17  and  C_34
REMARK    5  A    between atoms: C_18  and  C_30
REMARK    6  A    between atoms: C_19  and  C_22
REMARK    7  A    between atoms: C_25  and  O_28
REMARK    8  A    between atoms: O_28  and  C_29
REMARK    9  A    between atoms: C_30  and  O_32
REMARK   10  A    between atoms: O_32  and  C_33
REMARK                            x       y       z     vdW  Elec       q    Type
REMARK                         _______ _______ _______ _____ _____    ______ ____
ROOT
ATOM      1  C   UNL     1       2.293   0.957   4.105  0.00  0.00    +0.048 C 
ATOM      2  C   UNL     1       3.064   0.536   5.132  0.00  0.00    +0.072 C 
ATOM      3  S   UNL     1       3.623   2.078   5.829  0.00  0.00    -0.060 S 
ATOM      4  C   UNL     1       2.846   3.132   4.780  0.00  0.00    +0.166 C 
ATOM      5  N   UNL     1       2.826   4.447   4.721  0.00  0.00    -0.230 NA
ATOM      6  C   UNL     1       2.158   5.153   3.823  0.00  0.00    +0.053 C 
ATOM      7  C   UNL     1       1.408   4.518   2.851  0.00  0.00    +0.082 C 
ATOM      8  C   UNL     1       1.382   3.006   2.855  0.00  0.00    +0.150 C 
ATOM      9  N   UNL     1       2.176   2.319   3.909  0.00  0.00    -0.267 N 
ATOM     10  C   UNL     1       2.214   6.658   3.861  0.00  0.00    +0.066 C 
ENDROOT
BRANCH   8  11
ATOM     11  C   UNL     1      -0.053   2.567   2.990  0.00  0.00    -0.022 A 
ATOM     12  C   UNL     1      -0.702   2.691   4.204  0.00  0.00    +0.009 A 
ATOM     13  C   UNL     1      -2.017   2.288   4.330  0.00  0.00    +0.046 A 
ATOM     14  C   UNL     1      -2.688   1.760   3.236  0.00  0.00    +0.120 A 
ATOM     15  C   UNL     1      -2.035   1.637   2.019  0.00  0.00    +0.046 A 
ATOM     16  C   UNL     1      -0.721   2.046   1.897  0.00  0.00    +0.009 A 
BRANCH  14  17
ATOM     17  O   UNL     1      -3.982   1.363   3.358  0.00  0.00    -0.495 OA
ATOM     18  C   UNL     1      -4.609   0.829   2.190  0.00  0.00    +0.277 C 
ENDBRANCH  14  17
ENDBRANCH   8  11
BRANCH   1  21
ATOM     19  C   UNL     1       1.839  -1.321   3.357  0.00  0.00    +0.241 C 
ATOM     20  O   UNL     1       2.615  -1.775   4.371  0.00  0.00    -0.271 OA
ATOM     21  C   UNL     1       1.607  -0.000   3.226  0.00  0.00    +0.091 C 
BRANCH  19  28
ATOM     22  C   UNL     1       1.073  -3.696   4.397  0.00  0.00    +0.028 C 
ATOM     23  C   UNL     1       0.751  -3.505   2.914  0.00  0.00    +0.073 C 
ATOM     24  C   UNL     1       1.401  -4.627   2.098  0.00  0.00    +0.022 C 
ATOM     25  C   UNL     1       1.194  -4.354   0.607  0.00  0.00    +0.003 C 
ATOM     26  C   UNL     1       1.866  -3.032   0.230  0.00  0.00    +0.019 C 
ATOM     27  C   UNL     1       1.221  -1.891   1.024  0.00  0.00    +0.108 C 
ATOM     28  N   UNL     1       1.284  -2.214   2.456  0.00  0.00    -0.295 N 
ENDBRANCH  19  28
ENDBRANCH   1  21
BRANCH   7  29
ATOM     29  C   UNL     1       0.695   5.251   1.895  0.00  0.00    +0.339 C 
ATOM     30  O   UNL     1       0.729   6.469   1.910  0.00  0.00    -0.245 OA
BRANCH  29  31
ATOM     31  O   UNL     1      -0.032   4.608   0.954  0.00  0.00    -0.465 OA
ATOM     32  C   UNL     1      -0.734   5.418   0.009  0.00  0.00    +0.280 C 
ENDBRANCH  29  31
ENDBRANCH   7  29
TORSDOF 6
