REMARK  Name = ZINC11661320
REMARK  8 active torsions:
REMARK  status: ('A' for Active; 'I' for Inactive)
REMARK    1  A    between atoms: C_1  and  O_2
REMARK    2  A    between atoms: O_2  and  C_3
REMARK    3  A    between atoms: C_8  and  C_9
REMARK    4  A    between atoms: C_10  and  C_11
REMARK    5  A    between atoms: C_11  and  N_66
REMARK    6  A    between atoms: C_17  and  C_19
REMARK    7  A    between atoms: C_19  and  C_20
REMARK    8  A    between atoms: C_25  and  C_28
REMARK                            x       y       z     vdW  Elec       q    Type
REMARK                         _______ _______ _______ _____ _____    ______ ____
ROOT
ATOM      1  C   UNL     1       4.672   6.183   0.806  0.00  0.00    -0.058 C 
ATOM      2  C   UNL     1       5.498   6.894   1.880  0.00  0.00    +0.085 C 
ATOM      3  N   UNL     1       4.972   6.578   3.206  0.00  0.00    -0.318 N 
ATOM      4  C   UNL     1       3.745   6.086   3.403  0.00  0.00    +0.200 C 
ATOM      5  O   UNL     1       3.377   5.881   4.540  0.00  0.00    -0.278 OA
ATOM      6  C   UNL     1       2.802   5.777   2.274  0.00  0.00    +0.028 C 
ATOM      7  H   UNL     1       5.539   6.732   3.978  0.00  0.00    +0.149 HD
ATOM      8  N   UNL     1       3.247   6.479   1.055  0.00  0.00    +0.391 N 
ATOM      9  H   UNL     1       3.132   7.490   1.190  0.00  0.00    -0.080 HD
ENDROOT
BRANCH   8  10
ATOM     10  C   UNL     1       2.429   6.050  -0.102  0.00  0.00    -0.050 C 
BRANCH  10  12
ATOM     11  C   UNL     1       1.346   3.853  -0.263  0.00  0.00    +0.005 C 
ATOM     12  C   UNL     1       2.473   4.551  -0.247  0.00  0.00    -0.045 C 
BRANCH  11  18
ATOM     13  C   UNL     1       0.192   1.659  -0.541  0.00  0.00    +0.127 A 
ATOM     14  C   UNL     1       0.235   0.296  -0.786  0.00  0.00    +0.046 A 
ATOM     15  C   UNL     1       1.447  -0.329  -1.013  0.00  0.00    +0.004 A 
ATOM     16  C   UNL     1       2.624   0.400  -0.997  0.00  0.00    +0.001 A 
ATOM     17  C   UNL     1       2.597   1.757  -0.754  0.00  0.00    +0.011 A 
ATOM     18  C   UNL     1       1.380   2.399  -0.524  0.00  0.00    +0.016 A 
BRANCH  13  20
ATOM     19  C   UNL     1      -2.169   1.457  -0.362  0.00  0.00    +0.277 C 
ATOM     20  O   UNL     1      -0.998   2.275  -0.324  0.00  0.00    -0.495 OA
ENDBRANCH  13  20
ENDBRANCH  11  18
ENDBRANCH  10  12
ENDBRANCH   8  10
BRANCH   6  21
ATOM     21  C   UNL     1       1.397   6.257   2.640  0.00  0.00    +0.090 C 
BRANCH  21  22
ATOM     22  C   UNL     1       1.405   7.755   2.804  0.00  0.00    +0.214 C 
ATOM     23  O   UNL     1       2.409   8.387   2.554  0.00  0.00    -0.276 OA
ATOM     24  N   UNL     1       0.296   8.393   3.230  0.00  0.00    -0.301 N 
ATOM     25  C   UNL     1      -0.930   7.641   3.532  0.00  0.00    +0.108 C 
ATOM     26  C   UNL     1      -1.384   7.999   4.955  0.00  0.00    +0.027 C 
ATOM     27  C   UNL     1      -1.534   9.517   5.071  0.00  0.00    +0.022 C 
ATOM     28  C   UNL     1      -0.181  10.186   4.815  0.00  0.00    +0.027 C 
ATOM     29  C   UNL     1       0.289   9.852   3.395  0.00  0.00    +0.108 C 
BRANCH  27  30
ATOM     30  C   UNL     1      -2.014   9.871   6.455  0.00  0.00    -0.044 A 
ATOM     31  C   UNL     1      -1.260   9.521   7.559  0.00  0.00    +0.004 A 
ATOM     32  C   UNL     1      -1.699   9.849   8.828  0.00  0.00    +0.000 A 
ATOM     33  C   UNL     1      -2.897  10.518   8.993  0.00  0.00    +0.000 A 
ATOM     34  C   UNL     1      -3.654  10.864   7.889  0.00  0.00    +0.000 A 
ATOM     35  C   UNL     1      -3.213  10.540   6.620  0.00  0.00    +0.004 A 
ENDBRANCH  27  30
ENDBRANCH  21  22
ENDBRANCH   6  21
TORSDOF 7
