REMARK  Name = ZINC59831899
REMARK  7 active torsions:
REMARK  status: ('A' for Active; 'I' for Inactive)
REMARK    1  A    between atoms: C_1  and  C_2
REMARK    2  A    between atoms: C_2  and  C_4
REMARK    3  A    between atoms: C_2  and  N_11
REMARK    4  A    between atoms: N_11  and  C_12
REMARK    5  A    between atoms: N_11  and  C_13
REMARK    6  A    between atoms: C_13  and  C_14
REMARK    7  A    between atoms: C_16  and  C_19
REMARK                            x       y       z     vdW  Elec       q    Type
REMARK                         _______ _______ _______ _____ _____    ______ ____
ROOT
ATOM      1  N   UNL     1      -1.376  -0.512   0.012  0.00  0.00    +0.388 N 
ATOM      2  C   UNL     1      -1.356  -1.981   0.004  0.00  0.00    -0.095 C 
ATOM      3  H   UNL     1      -1.864  -0.178  -0.805  0.00  0.00    -0.081 HD
ENDROOT
BRANCH   1   5
ATOM      4  C   UNL     1      -0.019   1.526   0.010  0.00  0.00    -0.008 C 
ATOM      5  C   UNL     1       0.002  -0.004   0.002  0.00  0.00    -0.041 C 
BRANCH   5   6
ATOM      6  C   UNL     1       0.707  -0.490  -1.238  0.00  0.00    -0.061 A 
ATOM      7  C   UNL     1       0.037  -0.521  -2.446  0.00  0.00    +0.005 A 
ATOM      8  C   UNL     1       0.683  -0.966  -3.584  0.00  0.00    +0.038 A 
ATOM      9  C   UNL     1       2.002  -1.381  -3.513  0.00  0.00    +0.123 A 
ATOM     10  C   UNL     1       2.673  -1.349  -2.302  0.00  0.00    +0.038 A 
ATOM     11  C   UNL     1       2.026  -0.899  -1.167  0.00  0.00    +0.005 A 
ATOM     12  F   UNL     1       2.635  -1.817  -4.625  0.00  0.00    -0.205 F 
ENDBRANCH   5   6
ENDBRANCH   1   5
BRANCH   1  13
ATOM     13  C   UNL     1      -2.064  -0.039   1.221  0.00  0.00    +0.022 C 
BRANCH  13  14
ATOM     14  C   UNL     1      -3.511  -0.457   1.172  0.00  0.00    +0.211 A 
ATOM     15  N   UNL     1      -3.997  -1.568   1.645  0.00  0.00    -0.192 NA
ATOM     16  C   UNL     1      -5.326  -1.617   1.432  0.00  0.00    +0.209 A 
ATOM     17  N   UNL     1      -5.691  -0.518   0.814  0.00  0.00    -0.056 NA
ATOM     18  O   UNL     1      -4.513   0.255   0.640  0.00  0.00    -0.340 OA
BRANCH  16  19
ATOM     19  C   UNL     1      -6.223  -2.722   1.829  0.00  0.00    +0.061 A 
ATOM     20  C   UNL     1      -7.575  -2.845   1.643  0.00  0.00    +0.034 A 
ATOM     21  C   UNL     1      -8.205  -3.980   2.103  0.00  0.00    +0.026 A 
ATOM     22  C   UNL     1      -7.471  -4.939   2.724  0.00  0.00    +0.061 A 
ATOM     23  S   UNL     1      -5.826  -4.247   2.667  0.00  0.00    -0.092 S 
ATOM     24 BR   UNL     1     -10.069  -4.199   1.872  0.00  0.00    -0.050 Br
ENDBRANCH  16  19
ENDBRANCH  13  14
ENDBRANCH   1  13
TORSDOF 5
