REMARK  Name = ZINC25671612
REMARK  14 active torsions:
REMARK  status: ('A' for Active; 'I' for Inactive)
REMARK    1  A    between atoms: C_1  and  C_2
REMARK    2  A    between atoms: C_2  and  O_3
REMARK    3  A    between atoms: O_3  and  C_4
REMARK    4  A    between atoms: C_4  and  C_6
REMARK    5  A    between atoms: C_7  and  C_20
REMARK    6  A    between atoms: C_12  and  C_14
REMARK    7  A    between atoms: C_17  and  C_19
REMARK    8  A    between atoms: C_20  and  O_21
REMARK    9  A    between atoms: O_21  and  C_22
REMARK   10  A    between atoms: C_22  and  C_24
REMARK   11  A    between atoms: C_24  and  C_25
REMARK   12  A    between atoms: C_25  and  C_26
REMARK   13  A    between atoms: C_29  and  C_31
REMARK   14  A    between atoms: C_34  and  C_37
REMARK                            x       y       z     vdW  Elec       q    Type
REMARK                         _______ _______ _______ _____ _____    ______ ____
ROOT
ATOM      1  C   UNL     1       5.950  -7.187   4.282  0.00  0.00    +0.084 C 
ATOM      2  C   UNL     1       6.792  -6.266   3.767  0.00  0.00    +0.061 C 
ATOM      3  N   UNL     1       7.761  -5.688   4.536  0.00  0.00    -0.269 N 
ATOM      4  C   UNL     1       7.947  -5.970   5.831  0.00  0.00    +0.305 C 
ATOM      5  O   UNL     1       8.834  -5.400   6.436  0.00  0.00    -0.252 OA
ATOM      6  N   UNL     1       7.186  -6.869   6.486  0.00  0.00    -0.285 N 
ATOM      7  C   UNL     1       6.114  -7.553   5.743  0.00  0.00    +0.179 C 
ATOM      8  H   UNL     1       8.444  -4.947   4.095  0.00  0.00    +0.156 HD
ATOM      9  H   UNL     1       7.350  -7.097   7.550  0.00  0.00    +0.151 HD
ENDROOT
BRANCH   7  10
ATOM     10  C   UNL     1       4.810  -7.270   6.443  0.00  0.00    +0.130 A 
ATOM     11  C   UNL     1       3.872  -8.181   6.758  0.00  0.00    +0.047 A 
ATOM     12  C   UNL     1       2.823  -7.483   7.400  0.00  0.00    +0.045 A 
ATOM     13  C   UNL     1       3.182  -6.188   7.438  0.00  0.00    +0.102 A 
ATOM     14  O   UNL     1       4.389  -6.065   6.862  0.00  0.00    -0.463 OA
ATOM     15  C   UNL     1       2.371  -5.065   8.033  0.00  0.00    +0.086 C 
ENDBRANCH   7  10
BRANCH   1  16
ATOM     16  C   UNL     1       4.949  -7.790   3.485  0.00  0.00    +0.339 C 
ATOM     17  O   UNL     1       5.116  -8.911   3.042  0.00  0.00    -0.245 OA
BRANCH  16  18
ATOM     18  O   UNL     1       3.808  -7.122   3.216  0.00  0.00    -0.462 OA
BRANCH  18  20
ATOM     19  C   UNL     1       1.623  -6.884   2.209  0.00  0.00    +0.048 C 
ATOM     20  C   UNL     1       2.840  -7.791   2.405  0.00  0.00    +0.229 C 
ENDBRANCH  18  20
ENDBRANCH  16  18
ENDBRANCH   1  16
BRANCH   2  21
ATOM     21  C   UNL     1       6.663  -5.872   2.317  0.00  0.00    +0.283 C 
BRANCH  21  22
ATOM     22  O   UNL     1       6.270  -4.478   2.228  0.00  0.00    -0.459 OA
BRANCH  22  23
ATOM     23  C   UNL     1       6.111  -3.967   0.996  0.00  0.00    +0.308 C 
ATOM     24  O   UNL     1       6.294  -4.663   0.026  0.00  0.00    -0.251 OA
BRANCH  23  25
ATOM     25  C   UNL     1       5.704  -2.527   0.824  0.00  0.00    +0.130 C 
BRANCH  25  26
ATOM     26  C   UNL     1       5.594  -2.202  -0.667  0.00  0.00    +0.107 C 
BRANCH  26  27
ATOM     27  C   UNL     1       5.186  -0.761  -0.839  0.00  0.00    +0.197 A 
ATOM     28  N   UNL     1       6.004   0.249  -0.938  0.00  0.00    -0.221 NA
ATOM     29  C   UNL     1       5.288   1.374  -1.086  0.00  0.00    +0.161 A 
ATOM     30  C   UNL     1       3.975   1.028  -1.066  0.00  0.00    +0.155 A 
ATOM     31  O   UNL     1       3.926  -0.313  -0.914  0.00  0.00    -0.440 OA
BRANCH  30  32
ATOM     32  C   UNL     1       2.821   1.944  -1.193  0.00  0.00    +0.019 A 
ATOM     33  C   UNL     1       1.520   1.440  -1.160  0.00  0.00    +0.012 A 
ATOM     34  C   UNL     1       0.448   2.299  -1.285  0.00  0.00    +0.004 A 
ATOM     35  C   UNL     1       0.660   3.658  -1.431  0.00  0.00    -0.050 A 
ATOM     36  C   UNL     1       1.947   4.164  -1.464  0.00  0.00    +0.004 A 
ATOM     37  C   UNL     1       3.028   3.316  -1.346  0.00  0.00    +0.012 A 
ATOM     38  C   UNL     1      -0.517   4.591  -1.561  0.00  0.00    +0.044 C 
ENDBRANCH  30  32
ENDBRANCH  26  27
ENDBRANCH  25  26
ENDBRANCH  23  25
ENDBRANCH  22  23
ENDBRANCH  21  22
ENDBRANCH   2  21
TORSDOF 11
