REMARK  Name = ZINC06193590
REMARK  11 active torsions:
REMARK  status: ('A' for Active; 'I' for Inactive)
REMARK    1  A    between atoms: C_1  and  C_2
REMARK    2  A    between atoms: C_2  and  N_66
REMARK    3  A    between atoms: C_3  and  C_4
REMARK    4  A    between atoms: C_3  and  N_66
REMARK    5  A    between atoms: C_10  and  C_12
REMARK    6  A    between atoms: C_10  and  C_26
REMARK    7  A    between atoms: C_10  and  N_66
REMARK    8  A    between atoms: C_16  and  C_25
REMARK    9  A    between atoms: C_17  and  C_24
REMARK   10  A    between atoms: N_30  and  C_31
REMARK   11  A    between atoms: C_31  and  C_32
REMARK                            x       y       z     vdW  Elec       q    Type
REMARK                         _______ _______ _______ _____ _____    ______ ____
ROOT
ATOM      1  C   UNL     1       2.345   6.689  -2.276  0.00  0.00    +0.039 C 
ENDROOT
BRANCH   1   2
ATOM      2  C   UNL     1       0.881   6.496  -2.577  0.00  0.00    +0.011 A 
ATOM      3  C   UNL     1      -0.014   6.429  -1.561  0.00  0.00    +0.017 A 
ATOM      4  C   UNL     1      -1.430   6.247  -1.887  0.00  0.00    -0.001 A 
ATOM      5  C   UNL     1      -2.401   6.176  -0.883  0.00  0.00    +0.013 A 
ATOM      6  C   UNL     1      -3.713   6.001  -1.220  0.00  0.00    -0.047 A 
ATOM      7  C   UNL     1      -4.091   5.893  -2.552  0.00  0.00    -0.046 A 
ATOM      8  C   UNL     1      -3.152   5.959  -3.558  0.00  0.00    +0.030 A 
ATOM      9  C   UNL     1      -1.810   6.137  -3.238  0.00  0.00    +0.049 A 
ATOM     10  N   UNL     1      -0.849   6.207  -4.224  0.00  0.00    -0.322 N 
ATOM     11  H   UNL     1      -1.121   6.129  -5.184  0.00  0.00    +0.169 HD
ATOM     12  C   UNL     1       0.448   6.380  -3.915  0.00  0.00    +0.251 A 
ATOM     13  O   UNL     1       1.270   6.439  -4.813  0.00  0.00    -0.268 OA
ATOM     14  C   UNL     1      -5.545   5.700  -2.900  0.00  0.00    +0.044 C 
ATOM     15  C   UNL     1      -4.758   5.925  -0.138  0.00  0.00    +0.044 C 
ENDBRANCH   1   2
BRANCH   1  16
ATOM     16  C   UNL     1       3.133   5.546  -2.863  0.00  0.00    +0.143 A 
ATOM     17  N   UNL     1       3.421   5.362  -4.128  0.00  0.00    -0.115 NA
ATOM     18  N   UNL     1       4.108   4.277  -4.227  0.00  0.00    -0.023 NA
ATOM     19  N   UNL     1       4.270   3.766  -3.057  0.00  0.00    -0.044 NA
ATOM     20  N   UNL     1       3.679   4.516  -2.189  0.00  0.00    -0.226 N 
BRANCH  20  21
ATOM     21  C   UNL     1       3.618   4.293  -0.743  0.00  0.00    +0.182 C 
BRANCH  21  22
ATOM     22  C   UNL     1       2.492   3.342  -0.428  0.00  0.00    -0.026 A 
ATOM     23  C   UNL     1       2.691   1.978  -0.528  0.00  0.00    +0.005 A 
ATOM     24  C   UNL     1       1.659   1.105  -0.240  0.00  0.00    +0.000 A 
ATOM     25  C   UNL     1       0.425   1.597   0.144  0.00  0.00    +0.000 A 
ATOM     26  C   UNL     1       0.227   2.961   0.249  0.00  0.00    +0.000 A 
ATOM     27  C   UNL     1       1.260   3.834  -0.039  0.00  0.00    +0.005 A 
ENDBRANCH  21  22
ENDBRANCH  20  21
ENDBRANCH   1  16
BRANCH   1  28
ATOM     28  N   UNL     1       2.804   7.951  -2.893  0.00  0.00    +0.392 N 
ATOM     29  H   UNL     1       2.780   7.850  -3.915  0.00  0.00    -0.080 HD
BRANCH  28  31
ATOM     30  C   UNL     1       0.689   9.054  -3.423  0.00  0.00    -0.017 C 
ATOM     31  C   UNL     1       1.909   9.060  -2.500  0.00  0.00    -0.080 C 
ENDBRANCH  28  31
BRANCH  28  32
ATOM     32  C   UNL     1       4.189   8.245  -2.472  0.00  0.00    -0.042 C 
BRANCH  32  33
ATOM     33  C   UNL     1       5.134   7.433  -3.320  0.00  0.00    -0.064 A 
ATOM     34  C   UNL     1       5.671   6.259  -2.826  0.00  0.00    +0.002 A 
ATOM     35  C   UNL     1       6.533   5.511  -3.606  0.00  0.00    +0.000 A 
ATOM     36  C   UNL     1       6.867   5.943  -4.876  0.00  0.00    +0.000 A 
ATOM     37  C   UNL     1       6.335   7.120  -5.368  0.00  0.00    +0.000 A 
ATOM     38  C   UNL     1       5.468   7.865  -4.590  0.00  0.00    +0.002 A 
ENDBRANCH  32  33
ENDBRANCH  28  32
ENDBRANCH   1  28
TORSDOF 8
