REMARK  Name = ZINC04889004
REMARK  7 active torsions:
REMARK  status: ('A' for Active; 'I' for Inactive)
REMARK    1  A    between atoms: C_1  and  N_2
REMARK    2  A    between atoms: N_2  and  C_3
REMARK    3  A    between atoms: N_2  and  C_4
REMARK    4  A    between atoms: C_7  and  C_10
REMARK    5  A    between atoms: C_13  and  C_19
REMARK    6  A    between atoms: C_14  and  N_18
REMARK    7  A    between atoms: C_15  and  C_16
REMARK                            x       y       z     vdW  Elec       q    Type
REMARK                         _______ _______ _______ _____ _____    ______ ____
ROOT
ATOM      1  C   UNL     1      -4.208   0.658  -0.009  0.00  0.00    +0.005 A 
ATOM      2  C   UNL     1      -2.834   0.937   0.002  0.00  0.00    -0.034 A 
ATOM      3  C   UNL     1      -2.209   1.258   1.180  0.00  0.00    -0.024 A 
ATOM      4  C   UNL     1      -2.944   1.300   2.378  0.00  0.00    +0.077 A 
ATOM      5  C   UNL     1      -4.316   1.023   2.384  0.00  0.00    +0.061 A 
ATOM      6  C   UNL     1      -4.957   0.700   1.179  0.00  0.00    +0.082 A 
ATOM      7  C   UNL     1      -0.739   1.584   1.256  0.00  0.00    +0.037 C 
ATOM      8  C   UNL     1      -0.013   1.086   0.008  0.00  0.00    +0.005 C 
ATOM      9  C   UNL     1      -0.765   1.599  -1.225  0.00  0.00    +0.005 C 
ATOM     10  C   UNL     1      -2.102   0.865  -1.312  0.00  0.00    +0.036 C 
ENDROOT
BRANCH   1  14
ATOM     11  C   UNL     1      -6.127  -0.322  -3.673  0.00  0.00    +0.029 A 
ATOM     12  C   UNL     1      -6.044  -1.269  -2.658  0.00  0.00    +0.024 A 
ATOM     13  C   UNL     1      -5.423  -0.954  -1.469  0.00  0.00    +0.010 A 
ATOM     14  C   UNL     1      -4.876   0.317  -1.284  0.00  0.00    -0.016 A 
ATOM     15  C   UNL     1      -4.966   1.268  -2.302  0.00  0.00    +0.010 A 
ATOM     16  C   UNL     1      -5.583   0.946  -3.491  0.00  0.00    +0.024 A 
BRANCH  11  18
ATOM     17  C   UNL     1      -7.329  -1.977  -5.067  0.00  0.00    +0.129 C 
ATOM     18  N   UNL     1      -6.756  -0.643  -4.874  0.00  0.00    -0.336 N 
ATOM     19  C   UNL     1      -6.844   0.354  -5.944  0.00  0.00    +0.129 C 
ENDBRANCH  11  18
ENDBRANCH   1  14
BRANCH   5  20
ATOM     20  N   UNL     1      -5.033   1.067   3.567  0.00  0.00    -0.356 N 
ATOM     21  H   UNL     1      -4.585   1.291   4.398  0.00  0.00    +0.142 HD
ATOM     22  H   UNL     1      -5.984   0.874   3.566  0.00  0.00    +0.142 HD
ENDBRANCH   5  20
BRANCH   6  23
ATOM     23  C   UNL     1      -6.360   0.415   1.160  0.00  0.00    +0.102 C 
ATOM     24  N   UNL     1      -7.473   0.190   1.145  0.00  0.00    -0.191 NA
ENDBRANCH   6  23
BRANCH   4  25
ATOM     25  C   UNL     1      -2.282   1.631   3.604  0.00  0.00    +0.101 C 
ATOM     26  N   UNL     1      -1.757   1.893   4.577  0.00  0.00    -0.191 NA
ENDBRANCH   4  25
TORSDOF 5
