REMARK  Name = ZINC19891863
REMARK  11 active torsions:
REMARK  status: ('A' for Active; 'I' for Inactive)
REMARK    1  A    between atoms: C_1  and  C_2
REMARK    2  A    between atoms: C_2  and  C_3
REMARK    3  A    between atoms: C_3  and  C_4
REMARK    4  A    between atoms: C_3  and  C_20
REMARK    5  A    between atoms: C_3  and  C_36
REMARK    6  A    between atoms: C_6  and  C_9
REMARK    7  A    between atoms: N_10  and  N_11
REMARK    8  A    between atoms: C_12  and  C_14
REMARK    9  A    between atoms: C_22  and  C_25
REMARK   10  A    between atoms: N_26  and  N_27
REMARK   11  A    between atoms: C_28  and  C_30
REMARK                            x       y       z     vdW  Elec       q    Type
REMARK                         _______ _______ _______ _____ _____    ______ ____
ROOT
ATOM      1  C   UNL     1       0.704  -0.406   1.301  0.00  0.00    +0.030 C 
ATOM      2  C   UNL     1       0.868  -1.925   1.386  0.00  0.00    +0.022 C 
ENDROOT
BRANCH   1   3
ATOM      3  C   UNL     1       2.061   0.248   1.331  0.00  0.00    +0.001 A 
ATOM      4  S   UNL     1       2.771   1.407   0.174  0.00  0.00    -0.091 S 
ATOM      5  C   UNL     1       4.349   1.634   0.978  0.00  0.00    +0.032 A 
ATOM      6  C   UNL     1       4.228   0.805   2.081  0.00  0.00    +0.017 A 
ATOM      7  C   UNL     1       3.053   0.111   2.250  0.00  0.00    +0.013 A 
BRANCH   5   8
ATOM      8  C   UNL     1       5.480   2.476   0.575  0.00  0.00    +0.145 C 
ATOM      9  N   UNL     1       6.559   2.508   1.301  0.00  0.00    -0.187 NA
BRANCH   9  10
ATOM     10  N   UNL     1       7.639   3.313   0.916  0.00  0.00    -0.203 N 
ATOM     11  C   UNL     1       8.757   3.346   1.668  0.00  0.00    +0.263 C 
ATOM     12  O   UNL     1       8.828   2.678   2.681  0.00  0.00    -0.268 OA
ATOM     13  H   UNL     1       7.582   3.847   0.108  0.00  0.00    +0.178 HD
BRANCH  11  14
ATOM     14  C   UNL     1       9.898   4.197   1.261  0.00  0.00    +0.041 A 
ATOM     15  C   UNL     1       9.835   4.979   0.103  0.00  0.00    +0.033 A 
ATOM     16  C   UNL     1      10.923   5.758  -0.239  0.00  0.00    +0.111 A 
ATOM     17  N   UNL     1      12.008   5.771   0.508  0.00  0.00    -0.263 NA
ATOM     18  C   UNL     1      12.109   5.050   1.607  0.00  0.00    +0.111 A 
ATOM     19  C   UNL     1      11.067   4.246   2.027  0.00  0.00    +0.033 A 
ENDBRANCH  11  14
ENDBRANCH   9  10
ENDBRANCH   5   8
ENDBRANCH   1   3
BRANCH   1  20
ATOM     20  C   UNL     1      -0.113   0.077   2.471  0.00  0.00    +0.001 A 
ATOM     21  S   UNL     1      -1.597   1.070   2.466  0.00  0.00    -0.091 S 
ATOM     22  C   UNL     1      -1.856   1.148   4.231  0.00  0.00    +0.032 A 
ATOM     23  C   UNL     1      -0.788   0.407   4.707  0.00  0.00    +0.017 A 
ATOM     24  C   UNL     1       0.088  -0.137   3.797  0.00  0.00    +0.013 A 
BRANCH  22  25
ATOM     25  C   UNL     1      -2.922   1.821   4.980  0.00  0.00    +0.145 C 
ATOM     26  N   UNL     1      -2.940   1.763   6.279  0.00  0.00    -0.187 NA
BRANCH  26  27
ATOM     27  N   UNL     1      -3.958   2.406   6.995  0.00  0.00    -0.203 N 
ATOM     28  C   UNL     1      -3.978   2.345   8.341  0.00  0.00    +0.263 C 
ATOM     29  O   UNL     1      -3.111   1.732   8.935  0.00  0.00    -0.268 OA
ATOM     30  H   UNL     1      -4.649   2.895   6.522  0.00  0.00    +0.178 HD
BRANCH  28  31
ATOM     31  C   UNL     1      -5.054   3.025   9.098  0.00  0.00    +0.041 A 
ATOM     32  C   UNL     1      -6.063   3.731   8.435  0.00  0.00    +0.033 A 
ATOM     33  C   UNL     1      -7.047   4.351   9.180  0.00  0.00    +0.111 A 
ATOM     34  N   UNL     1      -7.043   4.283  10.496  0.00  0.00    -0.263 NA
ATOM     35  C   UNL     1      -6.111   3.628  11.160  0.00  0.00    +0.111 A 
ATOM     36  C   UNL     1      -5.092   2.975  10.495  0.00  0.00    +0.033 A 
ENDBRANCH  28  31
ENDBRANCH  26  27
ENDBRANCH  22  25
ENDBRANCH   1  20
BRANCH   1  38
ATOM     37  C   UNL     1      -1.323  -0.820  -0.101  0.00  0.00    +0.005 C 
ATOM     38  C   UNL     1      -0.008  -0.043  -0.004  0.00  0.00    +0.013 C 
ENDBRANCH   1  38
TORSDOF 9
