REMARK  Name = ZINC39354847
REMARK  10 active torsions:
REMARK  status: ('A' for Active; 'I' for Inactive)
REMARK    1  A    between atoms: C_1  and  C_2
REMARK    2  A    between atoms: C_4  and  C_9
REMARK    3  A    between atoms: C_5  and  C_8
REMARK    4  A    between atoms: C_9  and  C_10
REMARK    5  A    between atoms: C_10  and  N_11
REMARK    6  A    between atoms: N_11  and  C_12
REMARK    7  A    between atoms: C_13  and  C_15
REMARK    8  A    between atoms: C_15  and  C_16
REMARK    9  A    between atoms: N_23  and  C_24
REMARK   10  A    between atoms: C_24  and  C_25
REMARK                            x       y       z     vdW  Elec       q    Type
REMARK                         _______ _______ _______ _____ _____    ______ ____
ROOT
ATOM      1  C   UNL     1      -4.787   2.683  -4.514  0.00  0.00    +0.152 C 
ATOM      2  C   UNL     1      -3.687   1.811  -5.051  0.00  0.00    +0.231 C 
ATOM      3  O   UNL     1      -3.885   0.618  -5.143  0.00  0.00    -0.274 OA
ATOM      4  N   UNL     1      -2.500   2.294  -5.431  0.00  0.00    -0.313 N 
ATOM      5  C   UNL     1      -2.149   3.708  -5.328  0.00  0.00    +0.119 C 
ATOM      6  C   UNL     1      -3.415   4.553  -5.177  0.00  0.00    +0.104 C 
ATOM      7  N   UNL     1      -4.237   3.981  -4.099  0.00  0.00    -0.285 NA
ATOM      8  H   UNL     1      -1.843   1.679  -5.792  0.00  0.00    +0.149 HD
ENDROOT
BRANCH   1   9
ATOM      9  C   UNL     1      -5.437   1.998  -3.310  0.00  0.00    +0.124 C 
BRANCH   9  12
ATOM     10  N   UNL     1      -4.799   1.374  -1.003  0.00  0.00    -0.304 N 
ATOM     11  C   UNL     1      -6.191   0.978  -0.776  0.00  0.00    +0.132 C 
ATOM     12  C   UNL     1      -4.424   1.861  -2.203  0.00  0.00    +0.217 C 
ATOM     13  O   UNL     1      -3.272   2.190  -2.391  0.00  0.00    -0.276 OA
BRANCH  10  14
ATOM     14  C   UNL     1      -3.814   1.241   0.073  0.00  0.00    +0.112 C 
BRANCH  14  15
ATOM     15  C   UNL     1      -3.164  -0.142   0.002  0.00  0.00    +0.053 C 
BRANCH  15  18
ATOM     16  C   UNL     1      -0.600   1.684   0.930  0.00  0.00    +0.039 C 
ATOM     17  C   UNL     1      -0.700   0.168   1.110  0.00  0.00    +0.153 C 
ATOM     18  C   UNL     1      -2.151  -0.279   1.109  0.00  0.00    -0.020 C 
ATOM     19  C   UNL     1      -2.321  -0.820   2.317  0.00  0.00    +0.061 C 
ATOM     20  N   UNL     1      -1.179  -0.759   3.036  0.00  0.00    -0.159 NA
ATOM     21  N   UNL     1      -0.228  -0.231   2.447  0.00  0.00    -0.180 NA
ATOM     22  C   UNL     1      -3.613  -1.418   2.812  0.00  0.00    +0.067 C 
ENDBRANCH  15  18
ENDBRANCH  14  15
ENDBRANCH  10  14
ENDBRANCH   9  12
ENDBRANCH   1   9
BRANCH   7  23
ATOM     23  C   UNL     1      -5.309   4.906  -3.709  0.00  0.00    +0.123 C 
BRANCH  23  24
ATOM     24  C   UNL     1      -4.708   6.130  -3.068  0.00  0.00    +0.002 A 
ATOM     25  C   UNL     1      -4.569   6.194  -1.694  0.00  0.00    +0.008 A 
ATOM     26  C   UNL     1      -4.017   7.317  -1.106  0.00  0.00    +0.000 A 
ATOM     27  C   UNL     1      -3.604   8.377  -1.891  0.00  0.00    +0.003 A 
ATOM     28  C   UNL     1      -3.741   8.316  -3.264  0.00  0.00    +0.038 A 
ATOM     29  C   UNL     1      -4.289   7.189  -3.855  0.00  0.00    +0.128 A 
ATOM     30  F   UNL     1      -4.419   7.127  -5.199  0.00  0.00    -0.205 F 
ENDBRANCH  23  24
ENDBRANCH   7  23
TORSDOF 7
