REMARK  Name = ZINC67634035
REMARK  9 active torsions:
REMARK  status: ('A' for Active; 'I' for Inactive)
REMARK    1  A    between atoms: C_1  and  C_2
REMARK    2  A    between atoms: N_5  and  C_8
REMARK    3  A    between atoms: C_8  and  C_9
REMARK    4  A    between atoms: C_9  and  C_11
REMARK    5  A    between atoms: C_9  and  O_30
REMARK    6  A    between atoms: C_11  and  N_12
REMARK    7  A    between atoms: N_15  and  C_16
REMARK    8  A    between atoms: C_16  and  C_17
REMARK    9  A    between atoms: N_21  and  C_23
REMARK                            x       y       z     vdW  Elec       q    Type
REMARK                         _______ _______ _______ _____ _____    ______ ____
ROOT
ATOM      1  N   UNL     1       3.964  -6.214   1.958  0.00  0.00    -0.297 N 
ATOM      2  C   UNL     1       4.412  -7.484   2.013  0.00  0.00    +0.300 C 
ATOM      3  O   UNL     1       4.039  -8.296   1.188  0.00  0.00    -0.253 OA
ATOM      4  N   UNL     1       5.272  -7.854   2.982  0.00  0.00    -0.299 N 
ATOM      5  H   UNL     1       4.261  -5.566   2.617  0.00  0.00    +0.150 HD
ATOM      6  H   UNL     1       5.570  -7.207   3.640  0.00  0.00    +0.150 HD
ENDROOT
BRANCH   1   7
ATOM      7  C   UNL     1       3.028  -5.812   0.905  0.00  0.00    +0.135 C 
BRANCH   7   8
ATOM      8  C   UNL     1       2.681  -4.331   1.070  0.00  0.00    +0.115 C 
BRANCH   8   9
ATOM      9  O   UNL     1       2.077  -4.123   2.349  0.00  0.00    -0.392 OA
ATOM     10  H   UNL     1       1.262  -4.624   2.485  0.00  0.00    +0.210 HD
ENDBRANCH   8   9
BRANCH   8  11
ATOM     11  C   UNL     1       1.704  -3.911  -0.029  0.00  0.00    -0.046 C 
BRANCH  11  16
ATOM     12  C   UNL     1       0.801   1.694  -0.579  0.00  0.00    +0.007 C 
ATOM     13  C   UNL     1       1.167   0.235  -0.859  0.00  0.00    -0.018 C 
ATOM     14  C   UNL     1       2.284  -0.205   0.093  0.00  0.00    -0.016 C 
ATOM     15  C   UNL     1       2.590  -1.686  -0.138  0.00  0.00    -0.078 C 
ATOM     16  N   UNL     1       1.385  -2.484   0.118  0.00  0.00    +0.381 N 
ATOM     17  C   UNL     1       0.333  -2.118  -0.839  0.00  0.00    -0.078 C 
ATOM     18  C   UNL     1      -0.060  -0.654  -0.635  0.00  0.00    -0.016 C 
ATOM     19  H   UNL     1       1.060  -2.309   1.057  0.00  0.00    -0.082 HD
ENDBRANCH  11  16
ENDBRANCH   8  11
ENDBRANCH   7   8
ENDBRANCH   1   7
BRANCH   4  20
ATOM     20  C   UNL     1       5.759  -9.235   3.041  0.00  0.00    +0.110 C 
BRANCH  20  21
ATOM     21  C   UNL     1       6.716  -9.388   4.225  0.00  0.00    +0.025 C 
ATOM     22  C   UNL     1       8.041  -8.622   3.972  0.00  0.00    +0.025 C 
ATOM     23  C   UNL     1       9.059  -9.399   4.834  0.00  0.00    +0.105 C 
ATOM     24  N   UNL     1       8.509 -10.745   5.052  0.00  0.00    -0.330 N 
ATOM     25  C   UNL     1       7.218 -10.848   4.348  0.00  0.00    +0.110 C 
BRANCH  24  26
ATOM     26  C   UNL     1       9.112 -11.760   5.801  0.00  0.00    +0.030 A 
ATOM     27  C   UNL     1       8.491 -12.995   5.926  0.00  0.00    +0.026 A 
ATOM     28  C   UNL     1       9.088 -13.996   6.666  0.00  0.00    +0.040 A 
ATOM     29  C   UNL     1      10.306 -13.769   7.284  0.00  0.00    +0.124 A 
ATOM     30  C   UNL     1      10.928 -12.538   7.162  0.00  0.00    +0.040 A 
ATOM     31  C   UNL     1      10.336 -11.536   6.418  0.00  0.00    +0.026 A 
ATOM     32  F   UNL     1      10.888 -14.750   8.008  0.00  0.00    -0.205 F 
ENDBRANCH  24  26
ENDBRANCH  20  21
ENDBRANCH   4  20
TORSDOF 8
