REMARK  Name = ZINC42806475
REMARK  11 active torsions:
REMARK  status: ('A' for Active; 'I' for Inactive)
REMARK    1  A    between atoms: CD1_1  and  CG_2
REMARK    2  A    between atoms: CG_2  and  CD2_3
REMARK    3  A    between atoms: CG_2  and  CB_4
REMARK    4  A    between atoms: CB_4  and  CA_5
REMARK    5  A    between atoms: CA_5  and  C_7
REMARK    6  A    between atoms: CA_5  and  N_9
REMARK    7  A    between atoms: C_7  and  O_8
REMARK    8  A    between atoms: C_10  and  C_12
REMARK    9  A    between atoms: C_14  and  N_22
REMARK   10  A    between atoms: C_16  and  S_18
REMARK   11  A    between atoms: S_18  and  C_21
REMARK                            x       y       z     vdW  Elec       q    Type
REMARK                         _______ _______ _______ _____ _____    ______ ____
ROOT
ATOM      1  C   UNK A   0       0.120  -4.265   2.678  0.00  0.00    +0.040 A 
ATOM      2  C   UNK A   0      -0.005  -3.478   3.822  0.00  0.00    +0.036 A 
ATOM      3  C   UNK A   0       0.458  -3.954   5.039  0.00  0.00    +0.027 A 
ATOM      4  C   UNK A   0       1.045  -5.212   5.115  0.00  0.00    +0.049 A 
ATOM      5  C   UNK A   0       1.169  -5.991   3.981  0.00  0.00    +0.090 A 
ATOM      6  C   UNK A   0       0.706  -5.529   2.766  0.00  0.00    +0.040 A 
ENDROOT
BRANCH   1   8
ATOM      7  N   LEU A   1      -0.936  -2.544   1.293  0.00  0.00    -0.306 N 
ATOM      8  C   UNK A   0      -0.371  -3.765   1.376  0.00  0.00    +0.244 C 
ATOM      9  O   UNK A   0      -0.265  -4.455   0.381  0.00  0.00    -0.270 OA
ATOM     10  H   LEU A   1      -1.021  -1.994   2.087  0.00  0.00    +0.149 HD
BRANCH   7  11
ATOM     11  CA  LEU A   1      -1.424  -2.049   0.003  0.00  0.00    +0.099 C 
BRANCH  11  12
ATOM     12  CB  LEU A   1      -1.429  -0.519   0.014  0.00  0.00    +0.027 C 
BRANCH  12  14
ATOM     13  CD1 LEU A   1       0.798  -0.381  -1.110  0.00  0.00    +0.007 C 
ATOM     14  CG  LEU A   1       0.006  -0.005   0.144  0.00  0.00    -0.015 C 
ATOM     15  CD2 LEU A   1      -0.009   1.517   0.299  0.00  0.00    +0.007 C 
ENDBRANCH  12  14
ENDBRANCH  11  12
BRANCH  11  16
ATOM     16  C   LEU A   1      -2.845  -2.562  -0.237  0.00  0.00    +0.178 C 
BRANCH  16  17
ATOM     17  O   LEU A   1      -3.725  -2.002   0.740  0.00  0.00    -0.393 OA
ATOM     18  H   LEU A   1      -4.645  -2.284   0.649  0.00  0.00    +0.209 HD
ENDBRANCH  16  17
ENDBRANCH  11  16
ENDBRANCH   7  11
ENDBRANCH   1   8
BRANCH   5  19
ATOM     19  S   UNK A   0       1.916  -7.584   4.088  0.00  0.00    -0.006 S 
ATOM     20  O   UNK A   0       2.436  -7.828   2.788  0.00  0.00    -0.170 OA
ATOM     21  O   UNK A   0       2.781  -7.504   5.212  0.00  0.00    -0.170 OA
ATOM     22  C   UNK A   0       0.544  -8.719   4.435  0.00  0.00    +0.200 C 
ENDBRANCH   5  19
BRANCH   3  23
ATOM     23  N   UNK A   0       0.336  -3.169   6.189  0.00  0.00    -0.358 N 
ATOM     24  H   UNK A   0      -0.074  -2.292   6.135  0.00  0.00    +0.142 HD
ATOM     25  H   UNK A   0       0.660  -3.502   7.040  0.00  0.00    +0.142 HD
ENDBRANCH   3  23
TORSDOF 8
