REMARK  Name = ZINC13501160
REMARK  9 active torsions:
REMARK  status: ('A' for Active; 'I' for Inactive)
REMARK    1  A    between atoms: C_1  and  C_2
REMARK    2  A    between atoms: C_2  and  C_3
REMARK    3  A    between atoms: C_3  and  C_5
REMARK    4  A    between atoms: C_3  and  N_72
REMARK    5  A    between atoms: N_9  and  C_10
REMARK    6  A    between atoms: C_16  and  C_17
REMARK    7  A    between atoms: C_16  and  N_72
REMARK    8  A    between atoms: C_21  and  C_29
REMARK    9  A    between atoms: C_30  and  N_72
REMARK                            x       y       z     vdW  Elec       q    Type
REMARK                         _______ _______ _______ _____ _____    ______ ____
ROOT
ATOM      1  N   UNL     1       0.506  -1.956  -1.453  0.00  0.00    +0.391 N 
ATOM      2  H   UNL     1      -0.520  -1.989  -1.411  0.00  0.00    -0.080 HD
ENDROOT
BRANCH   1   3
ATOM      3  C   UNL     1       0.942  -0.544  -1.413  0.00  0.00    -0.067 C 
ATOM      4  C   UNL     1       2.453  -0.443  -1.633  0.00  0.00    -0.015 C 
ATOM      5  C   UNL     1       2.878   1.026  -1.590  0.00  0.00    -0.002 C 
ATOM      6  C   UNL     1       2.148   1.800  -2.690  0.00  0.00    -0.000 C 
ATOM      7  C   UNL     1       0.638   1.700  -2.469  0.00  0.00    -0.002 C 
ATOM      8  C   UNL     1       0.213   0.231  -2.512  0.00  0.00    -0.015 C 
ENDBRANCH   1   3
BRANCH   1   9
ATOM      9  C   UNL     1       0.956  -2.587  -2.711  0.00  0.00    +0.003 C 
BRANCH   9  10
ATOM     10  C   UNL     1       2.433  -2.881  -2.655  0.00  0.00    +0.138 A 
ATOM     11  N   UNL     1       3.092  -3.389  -1.643  0.00  0.00    -0.115 NA
ATOM     12  N   UNL     1       4.330  -3.489  -1.984  0.00  0.00    -0.023 NA
ATOM     13  N   UNL     1       4.480  -3.051  -3.185  0.00  0.00    -0.044 NA
ATOM     14  N   UNL     1       3.333  -2.666  -3.633  0.00  0.00    -0.228 N 
BRANCH  14  15
ATOM     15  C   UNL     1       3.060  -2.103  -4.957  0.00  0.00    +0.111 C 
ATOM     16  C   UNL     1       3.454  -3.117  -6.034  0.00  0.00    +0.027 C 
ATOM     17  C   UNL     1       3.169  -2.528  -7.417  0.00  0.00    +0.002 C 
ATOM     18  C   UNL     1       3.983  -1.246  -7.603  0.00  0.00    +0.000 C 
ATOM     19  C   UNL     1       3.590  -0.232  -6.527  0.00  0.00    +0.002 C 
ATOM     20  C   UNL     1       3.874  -0.820  -5.143  0.00  0.00    +0.027 C 
ENDBRANCH  14  15
ENDBRANCH   9  10
BRANCH   9  22
ATOM     21  C   UNL     1      -1.302  -3.583  -3.099  0.00  0.00    +0.002 C 
ATOM     22  C   UNL     1       0.184  -3.893  -2.909  0.00  0.00    -0.011 C 
ENDBRANCH   9  22
ENDBRANCH   1   9
BRANCH   1  23
ATOM     23  C   UNL     1       1.057  -2.688  -0.294  0.00  0.00    -0.036 C 
BRANCH  23  24
ATOM     24  C   UNL     1       0.231  -2.359   0.922  0.00  0.00    +0.001 A 
ATOM     25  C   UNL     1      -0.807  -3.159   1.271  0.00  0.00    +0.017 A 
ATOM     26  C   UNL     1      -1.590  -2.812   2.458  0.00  0.00    -0.001 A 
ATOM     27  C   UNL     1      -2.671  -3.599   2.868  0.00  0.00    +0.013 A 
ATOM     28  C   UNL     1      -3.381  -3.248   3.980  0.00  0.00    -0.050 A 
ATOM     29  C   UNL     1      -3.040  -2.117   4.709  0.00  0.00    +0.005 A 
ATOM     30  C   UNL     1      -1.978  -1.327   4.324  0.00  0.00    +0.026 A 
ATOM     31  C   UNL     1      -1.240  -1.664   3.194  0.00  0.00    +0.049 A 
ATOM     32  N   UNL     1      -0.173  -0.892   2.787  0.00  0.00    -0.322 N 
ATOM     33  H   UNL     1       0.067  -0.102   3.296  0.00  0.00    +0.169 HD
ATOM     34  C   UNL     1       0.543  -1.222   1.698  0.00  0.00    +0.251 A 
ATOM     35  O   UNL     1       1.484  -0.519   1.370  0.00  0.00    -0.268 OA
ATOM     36  C   UNL     1      -4.547  -4.096   4.421  0.00  0.00    +0.044 C 
ENDBRANCH  23  24
ENDBRANCH   1  23
TORSDOF 7
