REMARK  Name = ZINC66464941
REMARK  8 active torsions:
REMARK  status: ('A' for Active; 'I' for Inactive)
REMARK    1  A    between atoms: C_1  and  C_2
REMARK    2  A    between atoms: C_6  and  O_8
REMARK    3  A    between atoms: O_8  and  C_9
REMARK    4  A    between atoms: C_9  and  C_10
REMARK    5  A    between atoms: C_10  and  C_12
REMARK    6  A    between atoms: C_10  and  O_26
REMARK    7  A    between atoms: C_12  and  N_13
REMARK    8  A    between atoms: C_19  and  N_23
REMARK                            x       y       z     vdW  Elec       q    Type
REMARK                         _______ _______ _______ _____ _____    ______ ____
ROOT
ATOM      1  N   UNL     1       0.242  -6.886   4.944  0.00  0.00    -0.321 N 
ATOM      2  C   UNL     1       0.365  -8.250   5.117  0.00  0.00    +0.159 A 
ATOM      3  N   UNL     1       0.486  -9.188   4.205  0.00  0.00    -0.225 NA
ATOM      4  C   UNL     1       0.600 -10.496   4.522  0.00  0.00    +0.080 A 
ATOM      5  C   UNL     1       0.734 -11.598   3.646  0.00  0.00    +0.031 A 
ATOM      6  C   UNL     1       0.838 -12.874   4.136  0.00  0.00    +0.035 A 
ATOM      7  C   UNL     1       0.815 -13.131   5.498  0.00  0.00    +0.127 A 
ATOM      8  C   UNL     1       0.684 -12.077   6.384  0.00  0.00    +0.050 A 
ATOM      9  C   UNL     1       0.580 -10.796   5.903  0.00  0.00    +0.043 A 
ATOM     10  S   UNL     1       0.408  -9.188   6.637  0.00  0.00    -0.052 S 
ATOM     11  H   UNL     1       0.165  -6.304   5.717  0.00  0.00    +0.148 HD
ENDROOT
BRANCH   7  12
ATOM     12  N   UNL     1       0.928 -14.519   6.000  0.00  0.00    +0.056 N 
ATOM     13  O   UNL     1       1.042 -15.436   5.220  0.00  0.00    -0.126 OA
ATOM     14  O   UNL     1       0.907 -14.736   7.189  0.00  0.00    -0.126 OA
ENDBRANCH   7  12
BRANCH   1  15
ATOM     15  C   UNL     1       0.228  -6.317   3.594  0.00  0.00    +0.138 C 
BRANCH  15  16
ATOM     16  C   UNL     1       0.083  -4.796   3.683  0.00  0.00    +0.169 C 
BRANCH  16  17
ATOM     17  O   UNL     1      -1.140  -4.473   4.349  0.00  0.00    -0.387 OA
ATOM     18  H   UNL     1      -1.930  -4.810   3.905  0.00  0.00    +0.210 HD
ENDBRANCH  16  17
BRANCH  16  19
ATOM     19  C   UNL     1       0.069  -4.202   2.274  0.00  0.00    +0.261 C 
BRANCH  19  20
ATOM     20  O   UNL     1       0.050  -2.776   2.358  0.00  0.00    -0.489 OA
BRANCH  20  26
ATOM     21  C   UNL     1      -0.018   1.503   0.010  0.00  0.00    +0.044 C 
ATOM     22  C   UNL     1       0.002  -0.004   0.002  0.00  0.00    -0.047 A 
ATOM     23  C   UNL     1       0.006  -0.688  -1.200  0.00  0.00    +0.003 A 
ATOM     24  C   UNL     1       0.024  -2.071  -1.211  0.00  0.00    +0.004 A 
ATOM     25  C   UNL     1       0.039  -2.772  -0.020  0.00  0.00    +0.045 A 
ATOM     26  C   UNL     1       0.035  -2.088   1.186  0.00  0.00    +0.121 A 
ATOM     27  C   UNL     1       0.023  -0.700   1.195  0.00  0.00    +0.049 A 
ENDBRANCH  20  26
ENDBRANCH  19  20
ENDBRANCH  16  19
ENDBRANCH  15  16
ENDBRANCH   1  15
TORSDOF 7
