REMARK  Name = ZINC58354717
REMARK  3 active torsions:
REMARK  status: ('A' for Active; 'I' for Inactive)
REMARK    1  A    between atoms: C_8  and  C_11
REMARK    2  A    between atoms: N_13  and  C_14
REMARK    3  A    between atoms: C_14  and  C_15
REMARK                            x       y       z     vdW  Elec       q    Type
REMARK                         _______ _______ _______ _____ _____    ______ ____
ROOT
ATOM      1  C   UNL     1       2.599  -4.184   0.321  0.00  0.00    +0.244 C 
ATOM      2  O   UNL     1       1.650  -4.879   0.006  0.00  0.00    -0.270 OA
ATOM      3  N   UNL     1       3.779  -4.755   0.632  0.00  0.00    -0.307 N 
ATOM      4  H   UNL     1       4.535  -4.202   0.883  0.00  0.00    +0.149 HD
ENDROOT
BRANCH   1  12
ATOM      5  C   UNL     1      -0.064   1.358   0.140  0.00  0.00    +0.001 A 
ATOM      6  C   UNL     1       1.118   2.082   0.154  0.00  0.00    +0.004 A 
ATOM      7  C   UNL     1       2.340   1.436   0.132  0.00  0.00    +0.046 A 
ATOM      8  C   UNL     1       2.388   0.054   0.096  0.00  0.00    +0.128 A 
ATOM      9  C   UNL     1       1.191  -0.683   0.083  0.00  0.00    +0.017 A 
ATOM     10  C   UNL     1      -0.036  -0.021   0.105  0.00  0.00    +0.011 A 
ATOM     11  C   UNL     1       1.272  -2.151   0.046  0.00  0.00    +0.023 C 
ATOM     12  C   UNL     1       2.458  -2.729   0.360  0.00  0.00    +0.052 C 
ATOM     13  C   UNL     1       3.629  -1.866   0.749  0.00  0.00    +0.269 C 
ATOM     14  O   UNL     1       3.570  -0.609   0.073  0.00  0.00    -0.487 OA
ENDBRANCH   1  12
BRANCH   3  15
ATOM     15  C   UNL     1       3.920  -6.213   0.593  0.00  0.00    +0.141 C 
BRANCH  15  16
ATOM     16  C   UNL     1       5.326  -6.592   0.981  0.00  0.00    -0.014 A 
ATOM     17  C   UNL     1       6.316  -6.700   0.013  0.00  0.00    +0.010 A 
ATOM     18  C   UNL     1       7.594  -7.050   0.412  0.00  0.00    +0.042 A 
ATOM     19  C   UNL     1       7.842  -7.281   1.761  0.00  0.00    +0.099 A 
ATOM     20  N   UNL     1       6.871  -7.169   2.654  0.00  0.00    -0.349 N 
ATOM     21  C   UNL     1       5.644  -6.831   2.303  0.00  0.00    +0.089 A 
ATOM     22  N   UNL     1       9.121  -7.635   2.176  0.00  0.00    -0.317 N 
ATOM     23  C   UNL     1       9.438  -7.756   3.605  0.00  0.00    +0.106 C 
ATOM     24  C   UNL     1      10.052  -9.136   3.858  0.00  0.00    +0.019 C 
ATOM     25  C   UNL     1      11.252  -9.334   2.929  0.00  0.00    +0.003 C 
ATOM     26  C   UNL     1      10.788  -9.272   1.472  0.00  0.00    +0.019 C 
ATOM     27  C   UNL     1      10.180  -7.899   1.192  0.00  0.00    +0.106 C 
ATOM     28  H   UNL     1       7.066  -7.335   3.589  0.00  0.00    +0.167 HD
ENDBRANCH  15  16
ENDBRANCH   3  15
TORSDOF 3
