REMARK  Name = ZINC02718453
REMARK  11 active torsions:
REMARK  status: ('A' for Active; 'I' for Inactive)
REMARK    1  A    between atoms: C_1  and  C_2
REMARK    2  A    between atoms: C_2  and  O_3
REMARK    3  A    between atoms: O_3  and  C_4
REMARK    4  A    between atoms: C_4  and  C_6
REMARK    5  A    between atoms: C_10  and  N_11
REMARK    6  A    between atoms: C_12  and  C_14
REMARK    7  A    between atoms: C_14  and  S_15
REMARK    8  A    between atoms: S_15  and  C_16
REMARK    9  A    between atoms: N_23  and  C_26
REMARK   10  A    between atoms: C_29  and  C_33
REMARK   11  A    between atoms: C_30  and  C_32
REMARK                            x       y       z     vdW  Elec       q    Type
REMARK                         _______ _______ _______ _____ _____    ______ ____
ROOT
ATOM      1  S   UNL     1      -4.566  -3.218   6.129  0.00  0.00    -0.077 S 
ENDROOT
BRANCH   1   2
ATOM      2  C   UNL     1      -3.837  -2.921   7.705  0.00  0.00    +0.194 A 
ATOM      3  N   UNL     1      -2.619  -2.393   7.758  0.00  0.00    -0.183 NA
ATOM      4  C   UNL     1      -2.027  -2.150   8.918  0.00  0.00    +0.285 A 
ATOM      5  O   UNL     1      -0.786  -1.611   8.963  0.00  0.00    -0.265 OA
ATOM      6  C   UNL     1      -2.716  -2.464  10.104  0.00  0.00    +0.105 A 
ATOM      7  C   UNL     1      -2.422  -2.354  11.481  0.00  0.00    +0.150 A 
ATOM      8  N   UNL     1      -3.440  -2.804  12.159  0.00  0.00    -0.172 NA
ATOM      9  N   UNL     1      -4.443  -3.229  11.279  0.00  0.00    -0.214 N 
ATOM     10  C   UNL     1      -4.006  -3.023  10.001  0.00  0.00    +0.171 A 
ATOM     11  N   UNL     1      -4.525  -3.227   8.793  0.00  0.00    -0.202 NA
BRANCH   9  12
ATOM     12  C   UNL     1      -5.681  -3.771  11.646  0.00  0.00    +0.068 A 
ATOM     13  C   UNL     1      -6.811  -3.506  10.883  0.00  0.00    +0.028 A 
ATOM     14  C   UNL     1      -8.030  -4.042  11.247  0.00  0.00    +0.006 A 
ATOM     15  C   UNL     1      -8.127  -4.843  12.371  0.00  0.00    -0.047 A 
ATOM     16  C   UNL     1      -7.005  -5.108  13.133  0.00  0.00    -0.046 A 
ATOM     17  C   UNL     1      -5.781  -4.579  12.771  0.00  0.00    +0.031 A 
ATOM     18  C   UNL     1      -7.115  -5.980  14.357  0.00  0.00    +0.044 C 
ATOM     19  C   UNL     1      -9.459  -5.426  12.765  0.00  0.00    +0.044 C 
ENDBRANCH   9  12
ENDBRANCH   1   2
BRANCH   1  20
ATOM     20  C   UNL     1      -3.303  -2.664   4.950  0.00  0.00    +0.173 C 
BRANCH  20  22
ATOM     21  N   UNL     1      -3.031  -2.522   2.496  0.00  0.00    -0.279 N 
ATOM     22  C   UNL     1      -3.805  -2.865   3.544  0.00  0.00    +0.228 C 
ATOM     23  O   UNL     1      -4.907  -3.336   3.355  0.00  0.00    -0.275 OA
ATOM     24  H   UNL     1      -2.150  -2.146   2.647  0.00  0.00    +0.155 HD
BRANCH  21  29
ATOM     25  C   UNL     1      -2.842  -2.416   0.016  0.00  0.00    +0.091 A 
ATOM     26  C   UNL     1      -3.552  -2.715  -1.227  0.00  0.00    -0.021 A 
ATOM     27  C   UNL     1      -4.777  -3.241  -1.047  0.00  0.00    -0.004 A 
ATOM     28  S   UNL     1      -4.970  -3.333   0.715  0.00  0.00    -0.077 S 
ATOM     29  C   UNL     1      -3.493  -2.707   1.202  0.00  0.00    +0.086 A 
ATOM     30  C   UNL     1      -5.463  -3.525  -2.356  0.00  0.00    +0.043 C 
ATOM     31  C   UNL     1      -4.669  -2.707  -3.399  0.00  0.00    +0.010 C 
ATOM     32  C   UNL     1      -3.285  -2.598  -2.726  0.00  0.00    +0.037 C 
BRANCH  25  33
ATOM     33  C   UNL     1      -1.497  -1.838   0.006  0.00  0.00    +0.342 C 
ATOM     34  O   UNL     1      -0.523  -2.566  -0.007  0.00  0.00    -0.245 OA
BRANCH  33  35
ATOM     35  O   UNL     1      -1.339  -0.499   0.012  0.00  0.00    -0.461 OA
BRANCH  35  37
ATOM     36  C   UNL     1      -0.019   1.526   0.010  0.00  0.00    +0.048 C 
ATOM     37  C   UNL     1       0.002  -0.004   0.002  0.00  0.00    +0.229 C 
ENDBRANCH  35  37
ENDBRANCH  33  35
ENDBRANCH  25  33
ENDBRANCH  21  29
ENDBRANCH  20  22
ENDBRANCH   1  20
TORSDOF 8
