REMARK  Name = ZINC04571498
REMARK  10 active torsions:
REMARK  status: ('A' for Active; 'I' for Inactive)
REMARK    1  A    between atoms: C_1  and  C_2
REMARK    2  A    between atoms: C_2  and  C_3
REMARK    3  A    between atoms: C_3  and  C_4
REMARK    4  A    between atoms: C_3  and  C_5
REMARK    5  A    between atoms: C_3  and  N_14
REMARK    6  A    between atoms: N_7  and  C_8
REMARK    7  A    between atoms: N_14  and  C_15
REMARK    8  A    between atoms: C_18  and  C_21
REMARK    9  A    between atoms: C_22  and  C_24
REMARK   10  A    between atoms: C_24  and  C_25
REMARK                            x       y       z     vdW  Elec       q    Type
REMARK                         _______ _______ _______ _____ _____    ______ ____
ROOT
ATOM      1  N   UNL     1       1.260   3.581  -0.245  0.00  0.00    -0.257 N 
ATOM      2  C   UNL     1       0.139   4.328  -0.265  0.00  0.00    +0.223 C 
ATOM      3  O   UNL     1       0.208   5.531  -0.126  0.00  0.00    -0.275 OA
ENDROOT
BRANCH   1   4
ATOM      4  C   UNL     1       1.192   2.209  -0.508  0.00  0.00    +0.037 A 
ATOM      5  C   UNL     1       0.561   1.359   0.390  0.00  0.00    +0.024 A 
ATOM      6  C   UNL     1       0.495   0.004   0.127  0.00  0.00    +0.005 A 
ATOM      7  C   UNL     1       1.056  -0.505  -1.030  0.00  0.00    -0.050 A 
ATOM      8  C   UNL     1       1.685   0.339  -1.926  0.00  0.00    +0.005 A 
ATOM      9  C   UNL     1       1.755   1.694  -1.669  0.00  0.00    +0.024 A 
ATOM     10  C   UNL     1       0.982  -1.983  -1.313  0.00  0.00    +0.044 C 
ENDBRANCH   1   4
BRANCH   1  11
ATOM     11  C   UNL     1       2.552   4.207   0.052  0.00  0.00    +0.115 C 
ATOM     12  C   UNL     1       2.488   4.881   1.424  0.00  0.00    +0.042 C 
BRANCH  11  13
ATOM     13  C   UNL     1       3.630   3.154   0.059  0.00  0.00    +0.237 C 
ATOM     14  O   UNL     1       4.666   3.343  -0.542  0.00  0.00    -0.273 OA
ATOM     15  N   UNL     1       3.443   2.002   0.733  0.00  0.00    -0.311 N 
ATOM     16  H   UNL     1       2.590   1.822   1.158  0.00  0.00    +0.149 HD
BRANCH  15  17
ATOM     17  C   UNL     1       4.528   1.022   0.824  0.00  0.00    +0.073 C 
ATOM     18  C   UNL     1       4.594   0.213  -0.473  0.00  0.00    +0.022 C 
ATOM     19  C   UNL     1       5.727  -0.811  -0.378  0.00  0.00    +0.002 C 
ATOM     20  C   UNL     1       5.465  -1.754   0.798  0.00  0.00    +0.000 C 
ATOM     21  C   UNL     1       5.399  -0.945   2.095  0.00  0.00    +0.002 C 
ATOM     22  C   UNL     1       4.266   0.079   2.000  0.00  0.00    +0.022 C 
ENDBRANCH  15  17
ENDBRANCH  11  13
BRANCH  11  24
ATOM     23  C   UNL     1       2.809   4.605  -2.401  0.00  0.00    +0.006 C 
ATOM     24  C   UNL     1       2.869   5.255  -1.017  0.00  0.00    +0.032 C 
ENDBRANCH  11  24
ENDBRANCH   1  11
BRANCH   2  25
ATOM     25  C   UNL     1      -1.202   3.669  -0.459  0.00  0.00    +0.128 C 
BRANCH  25  26
ATOM     26  C   UNL     1      -2.287   4.742  -0.571  0.00  0.00    +0.169 C 
ATOM     27  C   UNL     1      -3.661   4.106  -0.644  0.00  0.00    +0.241 C 
ATOM     28  O   UNL     1      -4.191   3.410   0.195  0.00  0.00    -0.273 OA
ATOM     29  N   UNL     1      -4.171   4.475  -1.836  0.00  0.00    -0.239 N 
ATOM     30  C   UNL     1      -3.318   5.248  -2.519  0.00  0.00    +0.307 C 
ATOM     31  O   UNL     1      -3.555   5.705  -3.620  0.00  0.00    -0.252 OA
ATOM     32  N   UNL     1      -2.171   5.463  -1.850  0.00  0.00    -0.287 N 
ATOM     33  H   UNL     1      -5.047   4.213  -2.159  0.00  0.00    +0.159 HD
ATOM     34  H   UNL     1      -1.415   5.991  -2.152  0.00  0.00    +0.151 HD
ENDBRANCH  25  26
ENDBRANCH   2  25
TORSDOF 7
