REMARK  Name = ZINC12485717
REMARK  10 active torsions:
REMARK  status: ('A' for Active; 'I' for Inactive)
REMARK    1  A    between atoms: C_4  and  C_7
REMARK    2  A    between atoms: C_7  and  C_9
REMARK    3  A    between atoms: C_7  and  N_19
REMARK    4  A    between atoms: N_11  and  C_12
REMARK    5  A    between atoms: C_12  and  C_13
REMARK    6  A    between atoms: N_19  and  C_20
REMARK    7  A    between atoms: C_20  and  C_21
REMARK    8  A    between atoms: C_28  and  C_30
REMARK    9  A    between atoms: C_30  and  N_31
REMARK   10  A    between atoms: C_32  and  C_34
REMARK                            x       y       z     vdW  Elec       q    Type
REMARK                         _______ _______ _______ _____ _____    ______ ____
ROOT
ATOM      1  N   UNL     1       4.336  -1.963   0.415  0.00  0.00    -0.280 N 
ATOM      2  C   UNL     1       5.412  -1.613   1.148  0.00  0.00    +0.234 C 
ATOM      3  O   UNL     1       5.606  -0.448   1.421  0.00  0.00    -0.274 OA
ENDROOT
BRANCH   1   4
ATOM      4  C   UNL     1       3.434  -0.930  -0.101  0.00  0.00    +0.193 C 
BRANCH   4   8
ATOM      5  C   UNL     1       1.516   1.049   3.163  0.00  0.00    +0.000 A 
ATOM      6  C   UNL     1       2.053   1.788   2.126  0.00  0.00    +0.000 A 
ATOM      7  C   UNL     1       2.674   1.148   1.069  0.00  0.00    +0.006 A 
ATOM      8  C   UNL     1       2.758  -0.232   1.051  0.00  0.00    -0.018 A 
ATOM      9  C   UNL     1       2.221  -0.971   2.088  0.00  0.00    +0.006 A 
ATOM     10  C   UNL     1       1.599  -0.331   3.144  0.00  0.00    +0.000 A 
ENDBRANCH   4   8
BRANCH   4  11
ATOM     11  C   UNL     1       2.392  -1.569  -0.983  0.00  0.00    +0.238 C 
ATOM     12  O   UNL     1       1.929  -2.650  -0.689  0.00  0.00    -0.273 OA
ATOM     13  N   UNL     1       1.974  -0.938  -2.098  0.00  0.00    -0.311 N 
ATOM     14  H   UNL     1       2.345  -0.072  -2.333  0.00  0.00    +0.149 HD
BRANCH  13  15
ATOM     15  C   UNL     1       0.961  -1.558  -2.955  0.00  0.00    +0.135 C 
BRANCH  15  16
ATOM     16  C   UNL     1       0.669  -0.641  -4.145  0.00  0.00    +0.135 C 
ATOM     17  C   UNL     1      -0.427  -1.264  -5.047  0.00  0.00    +0.035 C 
ATOM     18  C   UNL     1      -1.003   0.007  -5.730  0.00  0.00    +0.031 C 
ATOM     19  C   UNL     1      -0.877   1.065  -4.612  0.00  0.00    +0.160 C 
ATOM     20  O   UNL     1       0.120   0.606  -3.690  0.00  0.00    -0.375 OA
ENDBRANCH  15  16
ENDBRANCH  13  15
ENDBRANCH   4  11
ENDBRANCH   1   4
BRANCH   1  21
ATOM     21  C   UNL     1       4.068  -3.376   0.136  0.00  0.00    +0.144 C 
BRANCH  21  22
ATOM     22  C   UNL     1       4.501  -3.701  -1.271  0.00  0.00    -0.030 A 
ATOM     23  C   UNL     1       3.712  -3.324  -2.341  0.00  0.00    +0.008 A 
ATOM     24  C   UNL     1       4.108  -3.621  -3.631  0.00  0.00    +0.038 A 
ATOM     25  C   UNL     1       5.297  -4.295  -3.851  0.00  0.00    +0.123 A 
ATOM     26  C   UNL     1       6.088  -4.672  -2.779  0.00  0.00    +0.038 A 
ATOM     27  C   UNL     1       5.691  -4.369  -1.490  0.00  0.00    +0.008 A 
ATOM     28  F   UNL     1       5.686  -4.587  -5.112  0.00  0.00    -0.205 F 
ENDBRANCH  21  22
ENDBRANCH   1  21
BRANCH   2  29
ATOM     29  C   UNL     1       6.373  -2.670   1.627  0.00  0.00    +0.200 C 
BRANCH  29  30
ATOM     30  N   UNL     1       7.364  -2.061   2.518  0.00  0.00    -0.300 N 
ATOM     31  C   UNL     1       8.330  -2.821   3.071  0.00  0.00    +0.280 C 
ATOM     32  O   UNL     1       8.379  -4.013   2.830  0.00  0.00    -0.267 OA
ATOM     33  H   UNL     1       7.325  -1.111   2.710  0.00  0.00    +0.150 HD
BRANCH  31  34
ATOM     34  C   UNL     1       9.322  -2.212   3.962  0.00  0.00    +0.189 A 
ATOM     35  C   UNL     1      10.351  -2.861   4.581  0.00  0.00    +0.054 A 
ATOM     36  C   UNL     1      11.044  -1.898   5.331  0.00  0.00    +0.042 A 
ATOM     37  C   UNL     1      10.415  -0.718   5.139  0.00  0.00    +0.196 A 
ATOM     38  O   UNL     1       9.382  -0.909   4.310  0.00  0.00    -0.458 OA
ENDBRANCH  31  34
ENDBRANCH  29  30
ENDBRANCH   2  29
TORSDOF 10
