REMARK  Name = ZINC35835099
REMARK  9 active torsions:
REMARK  status: ('A' for Active; 'I' for Inactive)
REMARK    1  A    between atoms: C_1  and  C_2
REMARK    2  A    between atoms: C_6  and  C_8
REMARK    3  A    between atoms: C_8  and  N_9
REMARK    4  A    between atoms: C_16  and  C_18
REMARK    5  A    between atoms: N_20  and  C_21
REMARK    6  A    between atoms: C_21  and  C_23
REMARK    7  A    between atoms: C_21  and  C_24
REMARK    8  A    between atoms: N_26  and  C_27
REMARK    9  A    between atoms: C_27  and  C_28
REMARK                            x       y       z     vdW  Elec       q    Type
REMARK                         _______ _______ _______ _____ _____    ______ ____
ROOT
ATOM      1  C   UNL     1       6.913  -2.531   5.134  0.00  0.00    +0.265 C 
ATOM      2  O   UNL     1       6.885  -2.352   6.336  0.00  0.00    -0.268 OA
ATOM      3  N   UNL     1       8.088  -2.757   4.514  0.00  0.00    -0.299 N 
ATOM      4  H   UNL     1       8.111  -2.900   3.555  0.00  0.00    +0.150 HD
ENDROOT
BRANCH   1  12
ATOM      5  N   UNL     1       1.440  -3.073   2.903  0.00  0.00    -0.292 N 
ATOM      6  C   UNL     1       2.150  -4.268   2.473  0.00  0.00    +0.110 C 
ATOM      7  C   UNL     1       2.997  -4.056   1.219  0.00  0.00    +0.042 C 
ATOM      8  C   UNL     1       3.773  -2.739   1.333  0.00  0.00    +0.146 C 
ATOM      9  N   UNL     1       4.320  -2.594   2.684  0.00  0.00    -0.258 N 
ATOM     10  C   UNL     1       3.545  -2.339   3.786  0.00  0.00    +0.124 A 
ATOM     11  C   UNL     1       4.362  -2.276   4.865  0.00  0.00    +0.067 A 
ATOM     12  C   UNL     1       5.660  -2.500   4.353  0.00  0.00    +0.148 A 
ATOM     13  N   UNL     1       5.547  -2.679   3.048  0.00  0.00    -0.166 NA
ATOM     14  C   UNL     1       2.080  -2.171   3.687  0.00  0.00    +0.265 C 
ATOM     15  O   UNL     1       1.488  -1.285   4.274  0.00  0.00    -0.268 OA
BRANCH   5  16
ATOM     16  C   UNL     1       0.054  -2.845   2.489  0.00  0.00    +0.143 C 
BRANCH  16  22
ATOM     17  C   UNL     1      -0.018   1.503   0.010  0.00  0.00    +0.044 C 
ATOM     18  C   UNL     1       0.002  -0.004   0.002  0.00  0.00    -0.050 A 
ATOM     19  C   UNL     1       0.006  -0.689  -1.199  0.00  0.00    +0.003 A 
ATOM     20  C   UNL     1       0.025  -2.071  -1.207  0.00  0.00    +0.001 A 
ATOM     21  C   UNL     1       0.040  -2.768  -0.013  0.00  0.00    +0.005 A 
ATOM     22  C   UNL     1       0.037  -2.084   1.188  0.00  0.00    -0.030 A 
ATOM     23  C   UNL     1       0.023  -0.702   1.195  0.00  0.00    +0.008 A 
ENDBRANCH  16  22
ENDBRANCH   5  16
ENDBRANCH   1  12
BRANCH   3  24
ATOM     24  C   UNL     1       9.331  -2.787   5.289  0.00  0.00    +0.156 C 
ATOM     25  C   UNL     1       9.536  -4.188   5.870  0.00  0.00    +0.038 C 
BRANCH  24  26
ATOM     26  C   UNL     1      10.491  -2.442   4.391  0.00  0.00    +0.233 C 
ATOM     27  O   UNL     1      10.299  -2.195   3.219  0.00  0.00    -0.274 OA
ATOM     28  N   UNL     1      11.743  -2.407   4.890  0.00  0.00    -0.310 N 
ATOM     29  H   UNL     1      11.897  -2.605   5.827  0.00  0.00    +0.149 HD
BRANCH  28  30
ATOM     30  C   UNL     1      12.870  -2.071   4.017  0.00  0.00    +0.139 C 
BRANCH  30  31
ATOM     31  C   UNL     1      14.149  -2.102   4.814  0.00  0.00    -0.027 A 
ATOM     32  C   UNL     1      14.593  -0.958   5.450  0.00  0.00    +0.009 A 
ATOM     33  C   UNL     1      15.765  -0.982   6.183  0.00  0.00    +0.050 A 
ATOM     34  C   UNL     1      16.499  -2.153   6.280  0.00  0.00    +0.166 A 
ATOM     35  C   UNL     1      16.052  -3.305   5.639  0.00  0.00    +0.167 A 
ATOM     36  C   UNL     1      14.873  -3.276   4.911  0.00  0.00    +0.054 A 
ATOM     37  O   UNL     1      16.939  -4.313   5.884  0.00  0.00    -0.453 OA
ATOM     38  C   UNL     1      18.141  -3.665   6.340  0.00  0.00    +0.466 C 
ATOM     39  O   UNL     1      17.666  -2.439   6.927  0.00  0.00    -0.453 OA
ENDBRANCH  30  31
ENDBRANCH  28  30
ENDBRANCH  24  26
ENDBRANCH   3  24
TORSDOF 7
