REMARK  Name = ZINC42016488
REMARK  3 active torsions:
REMARK  status: ('A' for Active; 'I' for Inactive)
REMARK    1  A    between atoms: C_5  and  N_7
REMARK    2  A    between atoms: C_8  and  C_12
REMARK    3  A    between atoms: C_16  and  N_18
REMARK                            x       y       z     vdW  Elec       q    Type
REMARK                         _______ _______ _______ _____ _____    ______ ____
ROOT
ATOM      1  N   UNL     1       1.216  -2.096  -0.202  0.00  0.00    -0.191 N 
ATOM      2  C   UNL     1       0.172  -2.929   0.073  0.00  0.00    +0.187 A 
ATOM      3  N   UNL     1       0.671  -4.141   0.195  0.00  0.00    -0.108 NA
ATOM      4  N   UNL     1       1.943  -4.124   0.018  0.00  0.00    -0.022 NA
ATOM      5  N   UNL     1       2.349  -2.927  -0.232  0.00  0.00    -0.039 NA
ENDROOT
BRANCH   1  10
ATOM      6  C   UNL     1       0.317   1.177  -1.621  0.00  0.00    +0.002 A 
ATOM      7  C   UNL     1       1.075   2.023  -0.833  0.00  0.00    +0.002 A 
ATOM      8  C   UNL     1       1.881   1.506   0.165  0.00  0.00    +0.022 A 
ATOM      9  C   UNL     1       1.930   0.141   0.377  0.00  0.00    +0.066 A 
ATOM     10  C   UNL     1       1.168  -0.711  -0.413  0.00  0.00    +0.088 A 
ATOM     11  C   UNL     1       0.361  -0.188  -1.414  0.00  0.00    +0.029 A 
ATOM     12 CL   UNL     1       2.943  -0.508   1.629  0.00  0.00    -0.081 Cl
ENDBRANCH   1  10
BRANCH   2  13
ATOM     13  C   UNL     1      -1.251  -2.545   0.207  0.00  0.00    +0.023 A 
ATOM     14  C   UNL     1      -1.596  -1.215   0.451  0.00  0.00    +0.013 A 
ATOM     15  C   UNL     1      -2.924  -0.859   0.577  0.00  0.00    +0.018 A 
ATOM     16  C   UNL     1      -3.915  -1.816   0.462  0.00  0.00    +0.039 A 
ATOM     17  C   UNL     1      -3.581  -3.143   0.219  0.00  0.00    +0.039 A 
ATOM     18  C   UNL     1      -2.250  -3.509   0.085  0.00  0.00    +0.035 A 
ATOM     19 BR   UNL     1      -5.731  -1.318   0.636  0.00  0.00    -0.048 Br
BRANCH  17  20
ATOM     20  N   UNL     1      -4.586  -4.108   0.103  0.00  0.00    -0.357 N 
ATOM     21  H   UNL     1      -5.517  -3.851   0.193  0.00  0.00    +0.142 HD
ATOM     22  H   UNL     1      -4.352  -5.034  -0.066  0.00  0.00    +0.142 HD
ENDBRANCH  17  20
ENDBRANCH   2  13
TORSDOF 3
