REMARK  Name = ZINC20324732
REMARK  5 active torsions:
REMARK  status: ('A' for Active; 'I' for Inactive)
REMARK    1  A    between atoms: C_3  and  C_7
REMARK    2  A    between atoms: C_13  and  C_14
REMARK    3  A    between atoms: C_17  and  S_19
REMARK    4  A    between atoms: S_19  and  C_20
REMARK    5  A    between atoms: C_20  and  C_21
REMARK                            x       y       z     vdW  Elec       q    Type
REMARK                         _______ _______ _______ _____ _____    ______ ____
ROOT
ATOM      1  C   UNL     1       3.634   2.208   1.675  0.00  0.00    +0.131 C 
ATOM      2  N   UNL     1       4.766   1.655   1.313  0.00  0.00    -0.164 NA
ATOM      3  N   UNL     1       5.859   2.427   0.981  0.00  0.00    -0.152 N 
ATOM      4  C   UNL     1       7.092   1.944   0.492  0.00  0.00    +0.153 C 
ATOM      5  N   UNL     1       7.226   0.783  -0.100  0.00  0.00    -0.283 NA
ATOM      6  C   UNL     1       8.222   2.882   0.714  0.00  0.00    +0.084 C 
ATOM      7  C   UNL     1       9.515   2.425   0.956  0.00  0.00    +0.063 C 
ATOM      8  C   UNL     1       7.903   4.324   0.662  0.00  0.00    +0.273 C 
ATOM      9  O   UNL     1       8.760   5.146   0.376  0.00  0.00    -0.268 OA
ATOM     10  N   UNL     1       6.640   4.707   0.940  0.00  0.00    -0.152 NA
ATOM     11  C   UNL     1       5.720   3.793   1.115  0.00  0.00    +0.181 C 
ATOM     12  S   UNL     1       4.017   3.952   1.584  0.00  0.00    -0.033 S 
ATOM     13  H   UNL     1       6.454   0.208  -0.219  0.00  0.00    +0.188 HD
ENDROOT
BRANCH   1  16
ATOM     14  C   UNL     1       0.080   1.664   2.756  0.00  0.00    +0.020 A 
ATOM     15  C   UNL     1       1.246   2.323   2.409  0.00  0.00    +0.013 A 
ATOM     16  C   UNL     1       2.361   1.556   2.055  0.00  0.00    +0.027 A 
ATOM     17  C   UNL     1       2.253   0.165   2.066  0.00  0.00    +0.121 A 
ATOM     18  N   UNL     1       1.120  -0.416   2.403  0.00  0.00    -0.263 NA
ATOM     19  C   UNL     1       0.053   0.282   2.742  0.00  0.00    +0.111 A 
ENDBRANCH   1  16
BRANCH   7  20
ATOM     20  C   UNL     1       9.746   1.065   1.177  0.00  0.00    +0.130 A 
ATOM     21  C   UNL     1      10.992   0.457   1.296  0.00  0.00    +0.050 A 
ATOM     22  C   UNL     1      10.758  -0.898   1.508  0.00  0.00    +0.057 A 
ATOM     23  C   UNL     1       9.389  -1.079   1.511  0.00  0.00    +0.162 A 
ATOM     24  O   UNL     1       8.798   0.110   1.316  0.00  0.00    -0.449 OA
BRANCH  23  25
ATOM     25  S   UNL     1       8.557  -2.615   1.740  0.00  0.00    -0.083 S 
BRANCH  25  26
ATOM     26  C   UNL     1       6.798  -2.180   1.638  0.00  0.00    +0.112 C 
BRANCH  26  27
ATOM     27  C   UNL     1       5.963  -3.421   1.820  0.00  0.00    -0.037 A 
ATOM     28  C   UNL     1       5.607  -4.182   0.722  0.00  0.00    +0.006 A 
ATOM     29  C   UNL     1       4.841  -5.320   0.888  0.00  0.00    +0.020 A 
ATOM     30  C   UNL     1       4.430  -5.699   2.154  0.00  0.00    +0.041 A 
ATOM     31  C   UNL     1       4.787  -4.938   3.252  0.00  0.00    +0.020 A 
ATOM     32  C   UNL     1       5.558  -3.803   3.086  0.00  0.00    +0.006 A 
ATOM     33 CL   UNL     1       3.468  -7.128   2.363  0.00  0.00    -0.084 Cl
ENDBRANCH  26  27
ENDBRANCH  25  26
ENDBRANCH  23  25
ENDBRANCH   7  20
TORSDOF 5
