REMARK  Name = ZINC44791354
REMARK  10 active torsions:
REMARK  status: ('A' for Active; 'I' for Inactive)
REMARK    1  A    between atoms: C_1  and  C_2
REMARK    2  A    between atoms: C_2  and  C_3
REMARK    3  A    between atoms: C_3  and  C_4
REMARK    4  A    between atoms: C_3  and  C_6
REMARK    5  A    between atoms: C_3  and  C_10
REMARK    6  A    between atoms: C_4  and  C_5
REMARK    7  A    between atoms: N_7  and  O_8
REMARK    8  A    between atoms: N_12  and  C_13
REMARK    9  A    between atoms: N_12  and  C_14
REMARK   10  A    between atoms: C_14  and  C_15
REMARK                            x       y       z     vdW  Elec       q    Type
REMARK                         _______ _______ _______ _____ _____    ______ ____
ROOT
ATOM      1  C   UNL     1       0.350  -0.791  -1.282  0.00  0.00    +0.105 C 
ENDROOT
BRANCH   1   2
ATOM      2  C   UNL     1      -0.536  -0.839  -2.500  0.00  0.00    +0.147 C 
ATOM      3  N   UNL     1      -1.710  -0.302  -2.466  0.00  0.00    -0.076 NA
ATOM      4  N   UNL     1      -0.094  -1.456  -3.649  0.00  0.00    -0.343 N 
ATOM      5  H   UNL     1       0.757  -1.922  -3.653  0.00  0.00    +0.144 HD
ATOM      6  H   UNL     1      -0.633  -1.424  -4.455  0.00  0.00    +0.144 HD
BRANCH   3   7
ATOM      7  O   UNL     1      -2.543  -0.347  -3.611  0.00  0.00    -0.408 OA
ATOM      8  H   UNL     1      -3.401   0.081  -3.490  0.00  0.00    +0.328 HD
ENDBRANCH   3   7
ENDBRANCH   1   2
BRANCH   1   9
ATOM      9  C   UNL     1       1.587   0.012  -1.592  0.00  0.00    +0.229 C 
ATOM     10  O   UNL     1       1.700   0.560  -2.668  0.00  0.00    -0.275 OA
ATOM     11  N   UNL     1       2.568   0.120  -0.674  0.00  0.00    -0.299 N 
ATOM     12  C   UNL     1       2.484  -0.633   0.580  0.00  0.00    +0.132 C 
BRANCH  11  13
ATOM     13  C   UNL     1       3.718   0.990  -0.930  0.00  0.00    +0.143 C 
BRANCH  13  14
ATOM     14  C   UNL     1       3.425   2.375  -0.411  0.00  0.00    -0.022 A 
ATOM     15  C   UNL     1       2.824   3.316  -1.226  0.00  0.00    +0.028 A 
ATOM     16  C   UNL     1       2.574   4.553  -0.728  0.00  0.00    +0.055 A 
ATOM     17  S   UNL     1       3.198   4.412   0.939  0.00  0.00    -0.090 S 
ATOM     18  C   UNL     1       3.743   2.714   0.862  0.00  0.00    +0.051 A 
ATOM     19 BR   UNL     1       1.774   6.040  -1.578  0.00  0.00    -0.043 Br
ENDBRANCH  13  14
ENDBRANCH  11  13
ENDBRANCH   1   9
BRANCH   1  21
ATOM     20  C   UNL     1      -0.682   1.333  -0.464  0.00  0.00    +0.005 C 
ATOM     21  C   UNL     1      -0.408  -0.134  -0.126  0.00  0.00    +0.020 C 
ENDBRANCH   1  21
BRANCH   1  22
ATOM     22  C   UNL     1       0.750  -2.213  -0.886  0.00  0.00    +0.020 C 
ATOM     23  C   UNL     1      -0.506  -3.072  -0.729  0.00  0.00    +0.005 C 
ENDBRANCH   1  22
TORSDOF 7
