REMARK  Name = ZINC59167285
REMARK  10 active torsions:
REMARK  status: ('A' for Active; 'I' for Inactive)
REMARK    1  A    between atoms: C_1  and  C_2
REMARK    2  A    between atoms: C_5  and  N_9
REMARK    3  A    between atoms: N_9  and  C_10
REMARK    4  A    between atoms: C_10  and  N_12
REMARK    5  A    between atoms: N_12  and  N_13
REMARK    6  A    between atoms: C_14  and  C_15
REMARK    7  A    between atoms: C_16  and  C_30
REMARK    8  A    between atoms: N_18  and  C_21
REMARK    9  A    between atoms: C_19  and  C_20
REMARK   10  A    between atoms: C_24  and  N_27
REMARK                            x       y       z     vdW  Elec       q    Type
REMARK                         _______ _______ _______ _____ _____    ______ ____
ROOT
ATOM      1  N   UNL     1       0.857  -6.843  -0.185  0.00  0.00    -0.188 NA
ATOM      2  C   UNL     1       0.762  -8.137  -0.165  0.00  0.00    +0.141 C 
ENDROOT
BRANCH   2   3
ATOM      3  C   UNL     1       0.571  -8.882  -1.424  0.00  0.00    +0.038 A 
ATOM      4  C   UNL     1       0.480  -8.328  -2.720  0.00  0.00    +0.069 A 
ATOM      5  N   UNL     1       0.314  -9.305  -3.570  0.00  0.00    -0.171 NA
ATOM      6  N   UNL     1       0.292 -10.516  -2.869  0.00  0.00    -0.236 N 
ATOM      7  C   UNL     1       0.455 -10.250  -1.555  0.00  0.00    +0.051 A 
ATOM      8  C   UNL     1       0.499 -11.260  -0.438  0.00  0.00    +0.066 C 
ATOM      9  C   UNL     1       0.559  -6.862  -3.062  0.00  0.00    +0.068 C 
BRANCH   6  10
ATOM     10  C   UNL     1       0.132 -11.789  -3.434  0.00  0.00    +0.066 A 
ATOM     11  C   UNL     1      -0.674 -12.731  -2.809  0.00  0.00    +0.030 A 
ATOM     12  C   UNL     1      -0.830 -13.984  -3.369  0.00  0.00    +0.035 A 
ATOM     13  C   UNL     1      -0.184 -14.300  -4.550  0.00  0.00    +0.126 A 
ATOM     14  C   UNL     1       0.620 -13.364  -5.174  0.00  0.00    +0.035 A 
ATOM     15  C   UNL     1       0.775 -12.108  -4.622  0.00  0.00    +0.030 A 
BRANCH  13  16
ATOM     16  N   UNL     1      -0.352 -15.645  -5.147  0.00  0.00    +0.056 N 
ATOM     17  O   UNL     1      -1.054 -16.464  -4.602  0.00  0.00    -0.126 OA
ATOM     18  O   UNL     1       0.212 -15.923  -6.179  0.00  0.00    -0.126 OA
ENDBRANCH  13  16
ENDBRANCH   6  10
ENDBRANCH   2   3
BRANCH   1  19
ATOM     19  N   UNL     1       1.038  -6.136   1.011  0.00  0.00    -0.218 N 
ATOM     20  H   UNL     1       1.093  -6.613   1.853  0.00  0.00    +0.176 HD
BRANCH  19  21
ATOM     21  C   UNL     1       1.136  -4.792   0.990  0.00  0.00    +0.154 C 
ATOM     22  S   UNL     1       1.358  -3.927   2.451  0.00  0.00    -0.017 S 
BRANCH  21  23
ATOM     23  N   UNL     1       1.060  -4.128  -0.181  0.00  0.00    -0.296 N 
ATOM     24  H   UNL     1       0.854  -4.609  -0.998  0.00  0.00    +0.154 HD
BRANCH  23  29
ATOM     25  C   UNL     1       1.953   1.473  -0.328  0.00  0.00    +0.047 C 
ATOM     26  C   UNL     1       1.715  -0.015  -0.290  0.00  0.00    -0.015 A 
ATOM     27  C   UNL     1       2.517  -0.821   0.497  0.00  0.00    +0.008 A 
ATOM     28  C   UNL     1       2.302  -2.185   0.535  0.00  0.00    +0.024 A 
ATOM     29  C   UNL     1       1.279  -2.748  -0.218  0.00  0.00    +0.035 A 
ATOM     30  C   UNL     1       0.475  -1.937  -1.008  0.00  0.00    +0.062 A 
ATOM     31  C   UNL     1       0.692  -0.571  -1.038  0.00  0.00    +0.128 A 
ATOM     32  F   UNL     1      -0.093   0.220  -1.803  0.00  0.00    -0.205 F 
ENDBRANCH  23  29
ENDBRANCH  21  23
ENDBRANCH  19  21
ENDBRANCH   1  19
TORSDOF 7
