REMARK  Name = ZINC04652846
REMARK  6 active torsions:
REMARK  status: ('A' for Active; 'I' for Inactive)
REMARK    1  A    between atoms: C_5  and  N_7
REMARK    2  A    between atoms: N_7  and  C_8
REMARK    3  A    between atoms: C_9  and  C_23
REMARK    4  A    between atoms: C_10  and  N_22
REMARK    5  A    between atoms: C_11  and  C_13
REMARK    6  A    between atoms: C_13  and  C_15
REMARK                            x       y       z     vdW  Elec       q    Type
REMARK                         _______ _______ _______ _____ _____    ______ ____
ROOT
ATOM      1  C   UNL     1      -3.622   2.025  -0.596  0.00  0.00    +0.090 A 
ATOM      2  C   UNL     1      -2.501   1.251  -0.914  0.00  0.00    +0.101 A 
ATOM      3  C   UNL     1      -1.245   1.784  -0.643  0.00  0.00    +0.062 A 
ATOM      4  C   UNL     1      -1.208   3.052  -0.067  0.00  0.00    +0.083 A 
ATOM      5  S   UNL     1      -2.935   3.470   0.069  0.00  0.00    -0.067 S 
ENDROOT
BRANCH   3   6
ATOM      6  N   UNL     1      -0.084   1.082  -0.927  0.00  0.00    -0.356 N 
ATOM      7  H   UNL     1      -0.136   0.199  -1.325  0.00  0.00    +0.142 HD
ATOM      8  H   UNL     1       0.781   1.476  -0.732  0.00  0.00    +0.142 HD
ENDBRANCH   3   6
BRANCH   1   9
ATOM      9  N   UNL     1      -4.950   1.713  -0.770  0.00  0.00    -0.306 N 
ATOM     10  H   UNL     1      -5.206   0.824  -1.060  0.00  0.00    +0.153 HD
BRANCH   9  15
ATOM     11  C   UNL     1      -6.660   4.964  -0.594  0.00  0.00    +0.002 A 
ATOM     12  C   UNL     1      -7.876   4.592  -0.051  0.00  0.00    +0.003 A 
ATOM     13  C   UNL     1      -8.126   3.266   0.253  0.00  0.00    +0.040 A 
ATOM     14  C   UNL     1      -7.159   2.307   0.011  0.00  0.00    +0.144 A 
ATOM     15  C   UNL     1      -5.933   2.679  -0.529  0.00  0.00    +0.067 A 
ATOM     16  C   UNL     1      -5.688   4.012  -0.833  0.00  0.00    +0.026 A 
ATOM     17  F   UNL     1      -7.404   1.011   0.303  0.00  0.00    -0.204 F 
ENDBRANCH   9  15
ENDBRANCH   1   9
BRANCH   4  18
ATOM     18  C   UNL     1      -0.086   3.815   0.310  0.00  0.00    +0.202 C 
ATOM     19  O   UNL     1       1.030   3.326   0.254  0.00  0.00    -0.286 OA
BRANCH  18  20
ATOM     20  C   UNL     1      -0.261   5.208   0.776  0.00  0.00    +0.023 A 
ATOM     21  C   UNL     1      -1.396   5.932   0.407  0.00  0.00    +0.014 A 
ATOM     22  C   UNL     1      -1.558   7.228   0.849  0.00  0.00    +0.039 A 
ATOM     23  C   UNL     1      -0.589   7.816   1.647  0.00  0.00    +0.123 A 
ATOM     24  C   UNL     1       0.544   7.104   2.011  0.00  0.00    +0.039 A 
ATOM     25  C   UNL     1       0.712   5.805   1.580  0.00  0.00    +0.014 A 
ATOM     26  F   UNL     1      -0.749   9.089   2.072  0.00  0.00    -0.205 F 
ENDBRANCH  18  20
ENDBRANCH   4  18
BRANCH   2  27
ATOM     27  C   UNL     1      -2.642  -0.048  -1.500  0.00  0.00    +0.103 C 
ATOM     28  N   UNL     1      -2.754  -1.078  -1.965  0.00  0.00    -0.191 NA
ENDBRANCH   2  27
TORSDOF 6
