REMARK  Name = ZINC20113652
REMARK  11 active torsions:
REMARK  status: ('A' for Active; 'I' for Inactive)
REMARK    1  A    between atoms: C_1  and  N_2
REMARK    2  A    between atoms: C_9  and  O_34
REMARK    3  A    between atoms: C_11  and  C_13
REMARK    4  A    between atoms: N_17  and  C_20
REMARK    5  A    between atoms: C_20  and  C_21
REMARK    6  A    between atoms: C_21  and  C_22
REMARK    7  A    between atoms: C_25  and  O_30
REMARK    8  A    between atoms: C_26  and  O_28
REMARK    9  A    between atoms: O_28  and  C_29
REMARK   10  A    between atoms: O_30  and  C_31
REMARK   11  A    between atoms: O_34  and  C_35
REMARK                            x       y       z     vdW  Elec       q    Type
REMARK                         _______ _______ _______ _____ _____    ______ ____
ROOT
ATOM      1  C   UNL     1      -0.077  -0.129   2.421  0.00  0.00    +0.072 A 
ATOM      2  C   UNL     1       0.505   0.583   3.428  0.00  0.00    +0.260 A 
ATOM      3  N   UNL     1      -0.231   0.903   4.542  0.00  0.00    -0.275 N 
ATOM      4  C   UNL     1      -1.516   0.518   4.643  0.00  0.00    +0.332 A 
ATOM      5  N   UNL     1      -2.108  -0.185   3.660  0.00  0.00    -0.260 N 
ATOM      6  C   UNL     1      -1.423  -0.514   2.547  0.00  0.00    +0.262 A 
ATOM      7  O   UNL     1      -1.966  -1.147   1.657  0.00  0.00    -0.267 OA
ATOM      8  O   UNL     1      -2.152   0.810   5.637  0.00  0.00    -0.246 OA
ATOM      9  O   UNL     1       1.794   0.970   3.331  0.00  0.00    -0.267 OA
ATOM     10  H   UNL     1       0.179   1.409   5.261  0.00  0.00    +0.173 HD
ENDROOT
BRANCH   1  21
ATOM     11  C   UNL     1      -0.018   1.465   0.010  0.00  0.00    -0.095 C 
ATOM     12  N   UNL     1       0.002  -0.004   0.002  0.00  0.00    +0.386 N 
ATOM     13  C   UNL     1       0.701  -0.480  -1.202  0.00  0.00    -0.073 C 
ATOM     14  C   UNL     1       0.446  -1.981  -1.351  0.00  0.00    +0.017 C 
ATOM     15  C   UNL     1       0.760  -2.683  -0.055  0.00  0.00    -0.040 A 
ATOM     16  C   UNL     1       0.930  -4.059  -0.071  0.00  0.00    +0.053 A 
ATOM     17  C   UNL     1       1.217  -4.745   1.097  0.00  0.00    +0.170 A 
ATOM     18  C   UNL     1       1.333  -4.047   2.295  0.00  0.00    +0.208 A 
ATOM     19  C   UNL     1       1.163  -2.670   2.307  0.00  0.00    +0.167 A 
ATOM     20  C   UNL     1       0.878  -1.987   1.129  0.00  0.00    -0.008 A 
ATOM     21  C   UNL     1       0.711  -0.491   1.189  0.00  0.00    +0.008 C 
ATOM     22  O   UNL     1       1.614  -4.937   3.293  0.00  0.00    -0.449 OA
ATOM     23  C   UNL     1       1.266  -6.230   2.764  0.00  0.00    +0.467 C 
ATOM     24  O   UNL     1       1.426  -6.072   1.342  0.00  0.00    -0.452 OA
ATOM     25  H   UNL     1      -0.944  -0.355   0.006  0.00  0.00    -0.081 HD
BRANCH  19  26
ATOM     26  O   UNL     1       1.277  -1.985   3.477  0.00  0.00    -0.491 OA
ATOM     27  C   UNL     1       2.576  -1.502   3.822  0.00  0.00    +0.277 C 
ENDBRANCH  19  26
ENDBRANCH   1  21
BRANCH   5  28
ATOM     28  C   UNL     1      -3.509  -0.591   3.799  0.00  0.00    +0.134 C 
BRANCH  28  29
ATOM     29  C   UNL     1      -4.415   0.497   3.219  0.00  0.00    +0.057 C 
BRANCH  29  30
ATOM     30  C   UNL     1      -5.856   0.080   3.361  0.00  0.00    -0.042 A 
ATOM     31  C   UNL     1      -6.466  -0.648   2.356  0.00  0.00    +0.007 A 
ATOM     32  C   UNL     1      -7.787  -1.033   2.482  0.00  0.00    +0.049 A 
ATOM     33  C   UNL     1      -8.504  -0.691   3.618  0.00  0.00    +0.161 A 
ATOM     34  C   UNL     1      -7.889   0.041   4.630  0.00  0.00    +0.162 A 
ATOM     35  C   UNL     1      -6.563   0.420   4.499  0.00  0.00    +0.053 A 
BRANCH  34  36
ATOM     36  O   UNL     1      -8.588   0.380   5.746  0.00  0.00    -0.491 OA
ATOM     37  C   UNL     1      -7.894   1.132   6.743  0.00  0.00    +0.277 C 
ENDBRANCH  34  36
BRANCH  33  38
ATOM     38  O   UNL     1      -9.804  -1.069   3.743  0.00  0.00    -0.491 OA
ATOM     39  C   UNL     1     -10.369  -1.817   2.665  0.00  0.00    +0.277 C 
ENDBRANCH  33  38
ENDBRANCH  29  30
ENDBRANCH  28  29
ENDBRANCH   5  28
TORSDOF 7
