REMARK  Name = ZINC44942325
REMARK  5 active torsions:
REMARK  status: ('A' for Active; 'I' for Inactive)
REMARK    1  A    between atoms: C_4  and  C_7
REMARK    2  A    between atoms: C_7  and  C_8
REMARK    3  A    between atoms: C_8  and  O_38
REMARK    4  A    between atoms: C_14  and  C_16
REMARK    5  A    between atoms: C_22  and  C_24
REMARK                            x       y       z     vdW  Elec       q    Type
REMARK                         _______ _______ _______ _____ _____    ______ ____
ROOT
ATOM      1  C   UNL     1       6.514  -4.375   4.157  0.00  0.00    +0.087 C 
ATOM      2  C   UNL     1       6.817  -4.605   2.675  0.00  0.00    +0.013 C 
ATOM      3  C   UNL     1       8.178  -5.289   2.533  0.00  0.00    +0.001 C 
ATOM      4  C   UNL     1       8.151  -6.634   3.263  0.00  0.00    +0.001 C 
ATOM      5  C   UNL     1       7.848  -6.404   4.745  0.00  0.00    +0.013 C 
ATOM      6  C   UNL     1       6.487  -5.719   4.887  0.00  0.00    +0.087 C 
ENDROOT
BRANCH   6   7
ATOM      7  C   UNL     1       6.189  -5.493   6.346  0.00  0.00    +0.219 C 
ATOM      8  O   UNL     1       6.448  -4.425   6.860  0.00  0.00    -0.275 OA
ATOM      9  N   UNL     1       5.633  -6.477   7.081  0.00  0.00    -0.298 N 
ATOM     10  C   UNL     1       5.220  -7.739   6.451  0.00  0.00    +0.126 C 
ATOM     11  C   UNL     1       5.907  -8.899   7.182  0.00  0.00    +0.125 C 
ATOM     12  N   UNL     1       5.704  -8.730   8.627  0.00  0.00    -0.314 N 
ATOM     13  C   UNL     1       6.118  -7.468   9.258  0.00  0.00    +0.125 C 
ATOM     14  C   UNL     1       5.436  -6.309   8.528  0.00  0.00    +0.126 C 
ATOM     15  C   UNL     1       5.131  -9.744   9.385  0.00  0.00    +0.099 A 
ATOM     16  C   UNL     1       4.874 -10.980   8.801  0.00  0.00    +0.042 A 
ATOM     17  C   UNL     1       4.304 -11.981   9.566  0.00  0.00    +0.005 A 
ATOM     18  C   UNL     1       4.009 -11.711  10.896  0.00  0.00    +0.018 A 
ATOM     19  C   UNL     1       4.291 -10.462  11.412  0.00  0.00    +0.084 A 
ATOM     20  N   UNL     1       4.840  -9.528  10.659  0.00  0.00    -0.350 N 
ATOM     21  H   UNL     1       5.032  -8.660  11.047  0.00  0.00    +0.166 HD
ENDBRANCH   6   7
BRANCH   1  28
ATOM     22  C   UNL     1       4.913   0.389   4.019  0.00  0.00    +0.073 C 
ATOM     23  C   UNL     1       6.253  -0.346   4.087  0.00  0.00    +0.054 C 
ATOM     24  C   UNL     1       6.143  -1.672   3.328  0.00  0.00    +0.110 C 
ATOM     25  N   UNL     1       5.008  -2.434   3.869  0.00  0.00    -0.301 N 
ATOM     26  C   UNL     1       3.690  -1.787   3.933  0.00  0.00    +0.110 C 
ATOM     27  C   UNL     1       3.828  -0.460   4.686  0.00  0.00    +0.054 C 
ATOM     28  C   UNL     1       5.173  -3.701   4.297  0.00  0.00    +0.219 C 
ATOM     29  O   UNL     1       4.243  -4.299   4.795  0.00  0.00    -0.275 OA
BRANCH  22  30
ATOM     30  O   UNL     1       4.565   0.618   2.652  0.00  0.00    -0.388 OA
ATOM     31  H   UNL     1       5.209   1.152   2.166  0.00  0.00    +0.210 HD
ENDBRANCH  22  30
BRANCH  22  32
ATOM     32  C   UNL     1       5.030   1.730   4.747  0.00  0.00    +0.070 C 
BRANCH  32  36
ATOM     33  C   UNL     1       8.057   4.103   2.888  0.00  0.00    +0.000 A 
ATOM     34  C   UNL     1       6.747   4.188   2.453  0.00  0.00    +0.000 A 
ATOM     35  C   UNL     1       5.768   3.420   3.054  0.00  0.00    +0.004 A 
ATOM     36  C   UNL     1       6.098   2.567   4.090  0.00  0.00    -0.045 A 
ATOM     37  C   UNL     1       7.407   2.480   4.524  0.00  0.00    +0.004 A 
ATOM     38  C   UNL     1       8.386   3.249   3.924  0.00  0.00    +0.000 A 
ENDBRANCH  32  36
ENDBRANCH  22  32
ENDBRANCH   1  28
TORSDOF 5
