REMARK  Name = ZINC08712807
REMARK  10 active torsions:
REMARK  status: ('A' for Active; 'I' for Inactive)
REMARK    1  A    between atoms: C_1  and  C_2
REMARK    2  A    between atoms: C_2  and  C_3
REMARK    3  A    between atoms: C_2  and  C_4
REMARK    4  A    between atoms: C_4  and  C_6
REMARK    5  A    between atoms: C_4  and  N_18
REMARK    6  A    between atoms: N_8  and  C_9
REMARK    7  A    between atoms: N_18  and  C_19
REMARK    8  A    between atoms: C_19  and  C_20
REMARK    9  A    between atoms: C_26  and  C_28
REMARK   10  A    between atoms: C_28  and  N_29
REMARK                            x       y       z     vdW  Elec       q    Type
REMARK                         _______ _______ _______ _____ _____    ______ ____
ROOT
ATOM      1  N   UNL     1       5.190  -0.595  -1.939  0.00  0.00    -0.284 N 
ATOM      2  C   UNL     1       5.299  -1.482  -2.948  0.00  0.00    +0.234 C 
ATOM      3  O   UNL     1       5.489  -1.092  -4.081  0.00  0.00    -0.274 OA
ENDROOT
BRANCH   1   4
ATOM      4  C   UNL     1       5.330   0.839  -2.207  0.00  0.00    +0.165 C 
BRANCH   4   5
ATOM      5  C   UNL     1       6.351   1.427  -1.267  0.00  0.00    +0.238 C 
ATOM      6  O   UNL     1       6.756   0.777  -0.327  0.00  0.00    -0.273 OA
ATOM      7  N   UNL     1       6.815   2.676  -1.472  0.00  0.00    -0.284 N 
ATOM      8  H   UNL     1       6.426   3.229  -2.168  0.00  0.00    +0.155 HD
BRANCH   7   9
ATOM      9  C   UNL     1       7.857   3.175  -0.681  0.00  0.00    +0.037 A 
ATOM     10  C   UNL     1       7.916   4.531  -0.385  0.00  0.00    +0.027 A 
ATOM     11  C   UNL     1       8.942   5.024   0.399  0.00  0.00    +0.051 A 
ATOM     12  C   UNL     1       9.919   4.169   0.884  0.00  0.00    +0.166 A 
ATOM     13  C   UNL     1       9.865   2.810   0.584  0.00  0.00    +0.168 A 
ATOM     14  C   UNL     1       8.834   2.316  -0.198  0.00  0.00    +0.072 A 
ATOM     15  O   UNL     1      10.930   2.191   1.173  0.00  0.00    -0.453 OA
ATOM     16  C   UNL     1      11.858   3.244   1.494  0.00  0.00    +0.466 C 
ATOM     17  O   UNL     1      11.018   4.401   1.662  0.00  0.00    -0.453 OA
ENDBRANCH   7   9
ENDBRANCH   4   5
BRANCH   4  19
ATOM     18  C   UNL     1       2.952   0.950  -2.964  0.00  0.00    +0.009 C 
ATOM     19  C   UNL     1       3.983   1.531  -1.994  0.00  0.00    +0.012 C 
ATOM     20  C   UNL     1       3.514   1.304  -0.555  0.00  0.00    +0.009 C 
ENDBRANCH   4  19
ENDBRANCH   1   4
BRANCH   1  21
ATOM     21  C   UNL     1       4.933  -1.064  -0.576  0.00  0.00    +0.143 C 
BRANCH  21  22
ATOM     22  C   UNL     1       5.894  -2.174  -0.236  0.00  0.00    -0.030 A 
ATOM     23  C   UNL     1       7.223  -1.885   0.013  0.00  0.00    +0.005 A 
ATOM     24  C   UNL     1       8.105  -2.903   0.324  0.00  0.00    +0.000 A 
ATOM     25  C   UNL     1       7.658  -4.209   0.387  0.00  0.00    +0.000 A 
ATOM     26  C   UNL     1       6.330  -4.498   0.138  0.00  0.00    +0.000 A 
ATOM     27  C   UNL     1       5.448  -3.481  -0.173  0.00  0.00    +0.005 A 
ENDBRANCH  21  22
ENDBRANCH   1  21
BRANCH   2  28
ATOM     28  C   UNL     1       5.183  -2.959  -2.669  0.00  0.00    +0.210 C 
BRANCH  28  29
ATOM     29  N   UNL     1       5.198  -3.698  -3.934  0.00  0.00    -0.255 N 
ATOM     30  C   UNL     1       6.352  -4.172  -4.552  0.00  0.00    +0.048 A 
ATOM     31  C   UNL     1       7.690  -4.090  -4.186  0.00  0.00    +0.024 A 
ATOM     32  C   UNL     1       8.665  -4.652  -4.988  0.00  0.00    +0.002 A 
ATOM     33  C   UNL     1       8.327  -5.304  -6.162  0.00  0.00    +0.001 A 
ATOM     34  C   UNL     1       7.004  -5.398  -6.544  0.00  0.00    +0.014 A 
ATOM     35  C   UNL     1       6.012  -4.833  -5.744  0.00  0.00    +0.048 A 
ATOM     36  C   UNL     1       4.544  -4.758  -5.862  0.00  0.00    +0.250 C 
ATOM     37  O   UNL     1       3.849  -5.207  -6.750  0.00  0.00    -0.282 OA
ATOM     38  C   UNL     1       4.098  -4.009  -4.641  0.00  0.00    +0.292 C 
ATOM     39  O   UNL     1       2.954  -3.732  -4.348  0.00  0.00    -0.266 OA
ENDBRANCH  28  29
ENDBRANCH   2  28
TORSDOF 8
