REMARK  Name = ZINC34737147
REMARK  7 active torsions:
REMARK  status: ('A' for Active; 'I' for Inactive)
REMARK    1  A    between atoms: C_1  and  C_2
REMARK    2  A    between atoms: C_2  and  C_33
REMARK    3  A    between atoms: C_5  and  C_31
REMARK    4  A    between atoms: C_6  and  N_13
REMARK    5  A    between atoms: C_9  and  C_11
REMARK    6  A    between atoms: C_9  and  C_12
REMARK    7  A    between atoms: C_14  and  C_16
REMARK                            x       y       z     vdW  Elec       q    Type
REMARK                         _______ _______ _______ _____ _____    ______ ____
ROOT
ATOM      1  N   UNL     1      -5.263   0.795   3.043  0.00  0.00    -0.275 N 
ATOM      2  C   UNL     1      -5.503   1.102   4.333  0.00  0.00    +0.256 C 
ATOM      3  O   UNL     1      -4.590   1.101   5.138  0.00  0.00    -0.270 OA
ATOM      4  H   UNL     1      -5.990   0.796   2.401  0.00  0.00    +0.156 HD
ENDROOT
BRANCH   1  10
ATOM      5  C   UNL     1      -0.019   1.526   0.010  0.00  0.00    -0.010 C 
ATOM      6  C   UNL     1       0.002  -0.004   0.002  0.00  0.00    -0.069 C 
ATOM      7  C   UNL     1      -1.434  -0.533  -0.098  0.00  0.00    +0.024 C 
ATOM      8  C   UNL     1      -2.143  -0.147   1.191  0.00  0.00    -0.021 A 
ATOM      9  C   UNL     1      -3.550   0.141   1.356  0.00  0.00    +0.084 A 
ATOM     10  C   UNL     1      -3.977   0.479   2.633  0.00  0.00    +0.090 A 
ATOM     11  S   UNL     1      -2.581   0.416   3.565  0.00  0.00    -0.078 S 
ATOM     12  C   UNL     1      -1.413  -0.062   2.328  0.00  0.00    -0.015 A 
ATOM     13  C   UNL     1       0.049  -0.331   2.463  0.00  0.00    -0.041 C 
ATOM     14  N   UNL     1       0.700  -0.526   1.169  0.00  0.00    +0.389 N 
ATOM     15  C   UNL     1       0.714   0.824   3.224  0.00  0.00    -0.005 C 
ATOM     16  C   UNL     1       0.227  -1.613   3.302  0.00  0.00    -0.005 C 
ATOM     17  C   UNL     1       0.761  -0.459  -1.260  0.00  0.00    -0.010 C 
ATOM     18  H   UNL     1       0.857  -1.527   1.032  0.00  0.00    -0.084 HD
ATOM     19  H   UNL     1       1.630  -0.106   1.207  0.00  0.00    -0.084 HD
BRANCH   9  20
ATOM     20  C   UNL     1      -4.471   0.082   0.261  0.00  0.00    +0.102 C 
ATOM     21  N   UNL     1      -5.201   0.035  -0.608  0.00  0.00    -0.191 NA
ENDBRANCH   9  20
ENDBRANCH   1  10
BRANCH   2  22
ATOM     22  C   UNL     1      -6.867   1.437   4.768  0.00  0.00    +0.122 A 
ATOM     23  C   UNL     1      -7.148   1.765   6.094  0.00  0.00    +0.032 A 
ATOM     24  C   UNL     1      -8.485   2.044   6.438  0.00  0.00    +0.026 A 
ATOM     25  C   UNL     1      -8.823   2.604   7.748  0.00  0.00    -0.007 A 
ATOM     26  C   UNL     1      -7.843   2.862   8.709  0.00  0.00    +0.009 A 
ATOM     27  C   UNL     1      -8.202   3.384   9.918  0.00  0.00    +0.001 A 
ATOM     28  C   UNL     1      -9.534   3.663  10.206  0.00  0.00    +0.001 A 
ATOM     29  C   UNL     1     -10.515   3.423   9.290  0.00  0.00    +0.008 A 
ATOM     30  C   UNL     1     -10.179   2.887   8.037  0.00  0.00    -0.017 A 
ATOM     31  C   UNL     1     -11.166   2.627   7.065  0.00  0.00    +0.012 A 
ATOM     32  C   UNL     1     -10.840   2.099   5.859  0.00  0.00    +0.047 A 
ATOM     33  C   UNL     1      -9.518   1.793   5.522  0.00  0.00    +0.140 A 
ATOM     34  O   UNL     1      -9.235   1.232   4.322  0.00  0.00    -0.422 OA
ATOM     35  C   UNL     1      -7.995   1.448   3.821  0.00  0.00    +0.350 A 
ATOM     36  O   UNL     1      -7.817   1.640   2.632  0.00  0.00    -0.244 OA
ENDBRANCH   2  22
TORSDOF 3
