REMARK  Name = ZINC13723485
REMARK  10 active torsions:
REMARK  status: ('A' for Active; 'I' for Inactive)
REMARK    1  A    between atoms: C_1  and  O_2
REMARK    2  A    between atoms: O_2  and  C_3
REMARK    3  A    between atoms: C_5  and  C_20
REMARK    4  A    between atoms: C_8  and  O_9
REMARK    5  A    between atoms: O_9  and  C_10
REMARK    6  A    between atoms: C_10  and  C_11
REMARK    7  A    between atoms: C_20  and  N_54
REMARK    8  A    between atoms: C_21  and  C_22
REMARK    9  A    between atoms: C_21  and  N_54
REMARK   10  A    between atoms: C_22  and  C_23
REMARK                            x       y       z     vdW  Elec       q    Type
REMARK                         _______ _______ _______ _____ _____    ______ ____
ROOT
ATOM      1  C   UNL     1      -0.148   1.182   2.380  0.00  0.00    +0.163 A 
ATOM      2  C   UNL     1       0.990   0.393   2.422  0.00  0.00    +0.051 A 
ATOM      3  C   UNL     1       1.534   0.027   3.639  0.00  0.00    -0.060 A 
ATOM      4  C   UNL     1       0.939   0.438   4.817  0.00  0.00    +0.021 A 
ATOM      5  C   UNL     1      -0.201   1.221   4.783  0.00  0.00    +0.063 A 
ATOM      6  C   UNL     1      -0.748   1.595   3.566  0.00  0.00    +0.176 A 
ATOM      7 BR   UNL     1      -1.012   1.780   6.397  0.00  0.00    -0.046 Br
ENDROOT
BRANCH   1   9
ATOM      8  C   UNL     1      -0.013   1.086   0.008  0.00  0.00    +0.277 C 
ATOM      9  O   UNL     1      -0.682   1.547   1.184  0.00  0.00    -0.491 OA
ENDBRANCH   1   9
BRANCH   6  10
ATOM     10  O   UNL     1      -1.869   2.365   3.530  0.00  0.00    -0.483 OA
BRANCH  10  11
ATOM     11  C   UNL     1      -3.124   1.683   3.514  0.00  0.00    +0.266 C 
BRANCH  11  12
ATOM     12  C   UNL     1      -4.243   2.692   3.475  0.00  0.00    +0.008 A 
ATOM     13  C   UNL     1      -3.955   4.044   3.460  0.00  0.00    +0.010 A 
ATOM     14  C   UNL     1      -4.981   4.970   3.424  0.00  0.00    +0.020 A 
ATOM     15  C   UNL     1      -6.297   4.544   3.402  0.00  0.00    +0.042 A 
ATOM     16  C   UNL     1      -6.586   3.191   3.417  0.00  0.00    +0.040 A 
ATOM     17  C   UNL     1      -5.559   2.265   3.448  0.00  0.00    +0.049 A 
ATOM     18 CL   UNL     1      -5.921   0.567   3.460  0.00  0.00    -0.083 Cl
ATOM     19 CL   UNL     1      -7.585   5.706   3.357  0.00  0.00    -0.083 Cl
ENDBRANCH  11  12
ENDBRANCH  10  11
ENDBRANCH   6  10
BRANCH   3  20
ATOM     20  C   UNL     1       2.776  -0.826   3.681  0.00  0.00    -0.047 C 
BRANCH  20  21
ATOM     21  N   UNL     1       2.384  -2.248   3.696  0.00  0.00    +0.382 N 
ATOM     22  H   UNL     1       1.845  -2.460   2.849  0.00  0.00    -0.085 HD
ATOM     23  H   UNL     1       1.807  -2.432   4.525  0.00  0.00    -0.085 HD
BRANCH  21  24
ATOM     24  C   UNL     1       3.582  -3.108   3.738  0.00  0.00    -0.078 C 
BRANCH  24  25
ATOM     25  C   UNL     1       3.146  -4.575   3.753  0.00  0.00    +0.011 C 
BRANCH  25  26
ATOM     26  C   UNL     1       4.364  -5.461   3.796  0.00  0.00    -0.075 C 
ATOM     27  C   UNL     1       4.770  -5.879   4.951  0.00  0.00    -0.028 C 
ATOM     28  C   UNL     1       5.970  -6.757   5.154  0.00  0.00    +0.027 C 
ATOM     29  C   UNL     1       6.370  -7.417   3.832  0.00  0.00    +0.004 C 
ATOM     30  C   UNL     1       6.444  -6.331   2.751  0.00  0.00    +0.005 C 
ATOM     31  C   UNL     1       5.027  -5.809   2.495  0.00  0.00    +0.030 C 
ENDBRANCH  25  26
ENDBRANCH  24  25
ENDBRANCH  21  24
ENDBRANCH  20  21
ENDBRANCH   3  20
TORSDOF 9
