REMARK  Name = ZINC09379249
REMARK  8 active torsions:
REMARK  status: ('A' for Active; 'I' for Inactive)
REMARK    1  A    between atoms: C_3  and  C_6
REMARK    2  A    between atoms: C_6  and  C_8
REMARK    3  A    between atoms: C_6  and  N_59
REMARK    4  A    between atoms: C_8  and  N_9
REMARK    5  A    between atoms: C_10  and  C_12
REMARK    6  A    between atoms: C_14  and  S_24
REMARK    7  A    between atoms: C_17  and  N_18
REMARK    8  A    between atoms: S_24  and  N_27
REMARK                            x       y       z     vdW  Elec       q    Type
REMARK                         _______ _______ _______ _____ _____    ______ ____
ROOT
ATOM      1  C   UNL     1      -1.707   2.610   3.564  0.00  0.00    +0.060 A 
ATOM      2  C   UNL     1      -2.285   3.092   4.742  0.00  0.00    +0.043 A 
ATOM      3  C   UNL     1      -2.204   4.432   5.049  0.00  0.00    +0.106 A 
ATOM      4  C   UNL     1      -1.547   5.307   4.198  0.00  0.00    +0.030 A 
ATOM      5  C   UNL     1      -0.966   4.847   3.034  0.00  0.00    +0.026 A 
ATOM      6  C   UNL     1      -1.038   3.498   2.708  0.00  0.00    +0.042 A 
ENDROOT
BRANCH   6   7
ATOM      7  N   UNL     1      -0.455   3.032   1.537  0.00  0.00    -0.325 N 
ATOM      8  C   UNL     1      -1.028   3.701   0.360  0.00  0.00    +0.133 C 
ATOM      9  C   UNL     1      -0.401   3.118  -0.909  0.00  0.00    +0.178 C 
ATOM     10  O   UNL     1       1.021   3.260  -0.842  0.00  0.00    -0.377 OA
ATOM     11  C   UNL     1       1.612   2.619   0.291  0.00  0.00    +0.178 C 
ATOM     12  C   UNL     1       1.006   3.199   1.572  0.00  0.00    +0.133 C 
ENDBRANCH   6   7
BRANCH   1  14
ATOM     13  N   UNL     1      -2.518   0.346   4.002  0.00  0.00    -0.312 N 
ATOM     14  C   UNL     1      -1.794   1.178   3.227  0.00  0.00    +0.246 C 
ATOM     15  O   UNL     1      -1.214   0.747   2.249  0.00  0.00    -0.270 OA
ATOM     16  H   UNL     1      -2.982   0.690   4.782  0.00  0.00    +0.149 HD
BRANCH  13  17
ATOM     17  C   UNL     1      -2.606  -1.077   3.667  0.00  0.00    +0.097 C 
BRANCH  17  18
ATOM     18  C   UNL     1      -3.584  -1.767   4.620  0.00  0.00    +0.016 C 
BRANCH  18  23
ATOM     19  C   UNL     1      -2.221  -3.784   4.564  0.00  0.00    -0.078 C 
ATOM     20  C   UNL     1      -2.499  -5.293   4.779  0.00  0.00    -0.020 C 
ATOM     21  C   UNL     1      -3.807  -5.290   5.603  0.00  0.00    -0.020 C 
ATOM     22  C   UNL     1      -4.458  -3.923   5.319  0.00  0.00    -0.078 C 
ATOM     23  N   UNL     1      -3.575  -3.240   4.373  0.00  0.00    +0.387 N 
ATOM     24  H   UNL     1      -3.889  -3.422   3.412  0.00  0.00    -0.081 HD
ENDBRANCH  18  23
BRANCH  18  27
ATOM     25  C   UNL     1      -6.861  -0.081   4.586  0.00  0.00    +0.041 A 
ATOM     26  C   UNL     1      -5.582  -0.291   5.151  0.00  0.00    +0.043 A 
ATOM     27  C   UNL     1      -4.971  -1.223   4.396  0.00  0.00    +0.093 A 
ATOM     28  O   UNL     1      -5.805  -1.581   3.407  0.00  0.00    -0.469 OA
ATOM     29  C   UNL     1      -6.955  -0.896   3.520  0.00  0.00    +0.195 A 
ENDBRANCH  18  27
ENDBRANCH  17  18
ENDBRANCH  13  17
ENDBRANCH   1  14
BRANCH   3  30
ATOM     30  S   UNL     1      -2.939   5.038   6.532  0.00  0.00    +0.056 S 
ATOM     31  O   UNL     1      -3.020   3.935   7.424  0.00  0.00    -0.153 OA
ATOM     32  O   UNL     1      -2.254   6.238   6.863  0.00  0.00    -0.153 OA
BRANCH  30  33
ATOM     33  N   UNL     1      -4.496   5.466   6.166  0.00  0.00    -0.204 NA
ATOM     34  H   UNL     1      -4.830   5.357   5.262  0.00  0.00    +0.144 HD
ATOM     35  H   UNL     1      -5.074   5.827   6.857  0.00  0.00    +0.144 HD
ENDBRANCH  30  33
ENDBRANCH   3  30
TORSDOF 8
