REMARK  Name = ZINC21706719
REMARK  9 active torsions:
REMARK  status: ('A' for Active; 'I' for Inactive)
REMARK    1  A    between atoms: C_1  and  O_2
REMARK    2  A    between atoms: O_2  and  C_3
REMARK    3  A    between atoms: C_3  and  C_4
REMARK    4  A    between atoms: C_4  and  N_5
REMARK    5  A    between atoms: C_6  and  C_8
REMARK    6  A    between atoms: C_15  and  C_17
REMARK    7  A    between atoms: C_20  and  N_23
REMARK    8  A    between atoms: N_23  and  S_24
REMARK    9  A    between atoms: S_24  and  C_27
REMARK                            x       y       z     vdW  Elec       q    Type
REMARK                         _______ _______ _______ _____ _____    ______ ____
ROOT
ATOM      1  C   UNL     1       1.597  -2.111   7.683  0.00  0.00    +0.037 A 
ATOM      2  C   UNL     1       1.783  -3.494   7.593  0.00  0.00    +0.015 A 
ATOM      3  C   UNL     1       2.289  -4.190   8.667  0.00  0.00    +0.025 A 
ATOM      4  C   UNL     1       2.606  -3.519   9.846  0.00  0.00    +0.048 A 
ATOM      5  C   UNL     1       2.416  -2.143   9.940  0.00  0.00    +0.025 A 
ATOM      6  C   UNL     1       1.916  -1.441   8.868  0.00  0.00    +0.015 A 
ENDROOT
BRANCH   1  13
ATOM      7  C   UNL     1       1.854  -0.600   3.177  0.00  0.00    +0.092 C 
ATOM      8  C   UNL     1       2.761  -1.778   2.816  0.00  0.00    +0.016 C 
ATOM      9  C   UNL     1       3.414  -2.330   4.085  0.00  0.00    +0.020 C 
ATOM     10  C   UNL     1       2.325  -2.832   5.038  0.00  0.00    +0.108 C 
ATOM     11  N   UNL     1       1.366  -1.745   5.276  0.00  0.00    -0.297 N 
ATOM     12  C   UNL     1       0.747  -1.083   4.119  0.00  0.00    +0.120 C 
ATOM     13  C   UNL     1       1.060  -1.362   6.531  0.00  0.00    +0.247 C 
ATOM     14  O   UNL     1       0.341  -0.399   6.715  0.00  0.00    -0.270 OA
BRANCH   7  16
ATOM     15  N   UNL     1       0.394   1.012   1.998  0.00  0.00    -0.313 N 
ATOM     16  C   UNL     1       1.237  -0.037   1.923  0.00  0.00    +0.218 C 
ATOM     17  O   UNL     1       1.499  -0.528   0.845  0.00  0.00    -0.275 OA
ATOM     18  H   UNL     1       0.156   1.457   2.976  0.00  0.00    +0.149 HD
BRANCH  15  19
ATOM     19  C   UNL     1      -0.206   1.559   0.779  0.00  0.00    +0.132 C 
BRANCH  19  20
ATOM     20  C   UNL     1      -1.116   2.734   1.141  0.00  0.00    +0.178 C 
BRANCH  20  22
ATOM     21  C   UNL     1      -1.087   4.949   2.058  0.00  0.00    +0.194 C 
ATOM     22  O   UNL     1      -0.329   3.796   1.685  0.00  0.00    -0.381 OA
ENDBRANCH  20  22
ENDBRANCH  19  20
ENDBRANCH  15  19
ENDBRANCH   7  16
ENDBRANCH   1  13
BRANCH   4  23
ATOM     23  N   UNL     1       3.112  -4.226  10.931  0.00  0.00    -0.216 N 
ATOM     24  H   UNL     1       3.977  -3.835  11.487  0.00  0.00    +0.174 HD
BRANCH  23  25
ATOM     25  S   UNL     1       2.412  -5.656  11.388  0.00  0.00    +0.072 S 
ATOM     26  O   UNL     1       2.311  -6.451  10.214  0.00  0.00    -0.150 OA
ATOM     27  O   UNL     1       3.105  -6.095  12.548  0.00  0.00    -0.150 OA
BRANCH  25  28
ATOM     28  C   UNL     1       0.764  -5.292  11.893  0.00  0.00    +0.109 A 
ATOM     29  C   UNL     1       0.511  -4.879  13.188  0.00  0.00    +0.029 A 
ATOM     30  C   UNL     1      -0.782  -4.593  13.575  0.00  0.00    +0.006 A 
ATOM     31  C   UNL     1      -1.833  -4.726  12.677  0.00  0.00    -0.044 A 
ATOM     32  C   UNL     1      -1.581  -5.138  11.388  0.00  0.00    -0.042 A 
ATOM     33  C   UNL     1      -0.279  -5.422  10.999  0.00  0.00    +0.032 A 
ATOM     34  C   UNL     1      -2.671  -5.295  10.360  0.00  0.00    +0.035 C 
ATOM     35  C   UNL     1      -4.039  -5.371  11.034  0.00  0.00    +0.005 C 
ATOM     36  C   UNL     1      -4.171  -4.185  11.996  0.00  0.00    +0.005 C 
ATOM     37  C   UNL     1      -3.221  -4.410  13.171  0.00  0.00    +0.035 C 
ENDBRANCH  25  28
ENDBRANCH  23  25
ENDBRANCH   4  23
TORSDOF 8
