REMARK  Name = ZINC36205930
REMARK  16 active torsions:
REMARK  status: ('A' for Active; 'I' for Inactive)
REMARK    1  A    between atoms: C_1  and  C_2
REMARK    2  A    between atoms: C_2  and  O_3
REMARK    3  A    between atoms: O_3  and  C_4
REMARK    4  A    between atoms: C_4  and  C_5
REMARK    5  A    between atoms: C_5  and  C_7
REMARK    6  A    between atoms: C_5  and  O_38
REMARK    7  A    between atoms: C_7  and  N_8
REMARK    8  A    between atoms: N_8  and  C_9
REMARK    9  A    between atoms: N_8  and  C_16
REMARK   10  A    between atoms: C_9  and  C_10
REMARK   11  A    between atoms: C_16  and  C_17
REMARK   12  A    between atoms: C_23  and  C_28
REMARK   13  A    between atoms: C_31  and  O_36
REMARK   14  A    between atoms: C_32  and  O_34
REMARK   15  A    between atoms: O_34  and  C_35
REMARK   16  A    between atoms: O_36  and  C_37
REMARK                            x       y       z     vdW  Elec       q    Type
REMARK                         _______ _______ _______ _____ _____    ______ ____
ROOT
ATOM      1  C   UNL     1      -5.837  -5.890  -0.434  0.00  0.00    +0.094 A 
ATOM      2  N   UNL     1      -6.116  -7.211  -0.577  0.00  0.00    -0.312 N 
ATOM      3  H   UNL     1      -5.395  -7.858  -0.519  0.00  0.00    +0.170 HD
ATOM      4  C   UNL     1      -7.372  -7.641  -0.797  0.00  0.00    +0.260 A 
ATOM      5  O   UNL     1      -7.606  -8.831  -0.923  0.00  0.00    -0.267 OA
ATOM      6  C   UNL     1      -8.430  -6.680  -0.881  0.00  0.00    +0.080 A 
ATOM      7  C   UNL     1      -9.854  -6.893  -1.109  0.00  0.00    +0.004 A 
ATOM      8  C   UNL     1     -10.675  -5.816  -1.148  0.00  0.00    +0.056 A 
ATOM      9  S   UNL     1      -9.570  -4.444  -0.878  0.00  0.00    -0.076 S 
ATOM     10  C   UNL     1      -8.046  -5.338  -0.720  0.00  0.00    +0.116 A 
ATOM     11  N   UNL     1      -6.781  -4.990  -0.500  0.00  0.00    -0.229 NA
ENDROOT
BRANCH   7  12
ATOM     12  C   UNL     1     -10.393  -8.261  -1.295  0.00  0.00    -0.013 A 
ATOM     13  C   UNL     1      -9.794  -9.130  -2.207  0.00  0.00    +0.012 A 
ATOM     14  C   UNL     1     -10.296 -10.404  -2.379  0.00  0.00    +0.050 A 
ATOM     15  C   UNL     1     -11.396 -10.823  -1.647  0.00  0.00    +0.162 A 
ATOM     16  C   UNL     1     -11.998  -9.960  -0.735  0.00  0.00    +0.162 A 
ATOM     17  C   UNL     1     -11.495  -8.684  -0.554  0.00  0.00    +0.058 A 
BRANCH  16  18
ATOM     18  O   UNL     1     -13.077 -10.374  -0.018  0.00  0.00    -0.491 OA
ATOM     19  C   UNL     1     -13.644  -9.437   0.900  0.00  0.00    +0.277 C 
ENDBRANCH  16  18
BRANCH  15  20
ATOM     20  O   UNL     1     -11.889 -12.079  -1.821  0.00  0.00    -0.491 OA
ATOM     21  C   UNL     1     -11.223 -12.911  -2.774  0.00  0.00    +0.277 C 
ENDBRANCH  15  20
ENDBRANCH   7  12
BRANCH   1  22
ATOM     22  C   UNL     1      -4.415  -5.456  -0.188  0.00  0.00    -0.003 C 
BRANCH  22  23
ATOM     23  N   UNL     1      -4.365  -3.993  -0.061  0.00  0.00    +0.389 N 
ATOM     24  H   UNL     1      -4.780  -3.570  -0.878  0.00  0.00    -0.081 HD
BRANCH  23  25
ATOM     25  C   UNL     1      -2.967  -3.559   0.059  0.00  0.00    -0.044 C 
BRANCH  25  26
ATOM     26  C   UNL     1      -2.879  -2.050  -0.180  0.00  0.00    +0.124 C 
BRANCH  26  27
ATOM     27  O   UNL     1      -3.531  -1.361   0.889  0.00  0.00    -0.391 OA
ATOM     28  H   UNL     1      -3.078  -1.436   1.740  0.00  0.00    +0.210 HD
ENDBRANCH  26  27
BRANCH  26  29
ATOM     29  C   UNL     1      -1.409  -1.628  -0.237  0.00  0.00    +0.189 C 
BRANCH  29  30
ATOM     30  O   UNL     1      -1.325  -0.242  -0.575  0.00  0.00    -0.378 OA
BRANCH  30  32
ATOM     31  C   UNL     1      -0.018   1.741  -1.021  0.00  0.00    +0.034 C 
ATOM     32  C   UNL     1       0.012   0.256  -0.655  0.00  0.00    +0.156 C 
ENDBRANCH  30  32
ENDBRANCH  29  30
ENDBRANCH  26  29
ENDBRANCH  25  26
ENDBRANCH  23  25
BRANCH  23  33
ATOM     33  C   UNL     1      -5.111  -3.579   1.135  0.00  0.00    -0.042 C 
BRANCH  33  34
ATOM     34  C   UNL     1      -4.577  -4.314   2.338  0.00  0.00    -0.064 A 
ATOM     35  C   UNL     1      -5.132  -5.522   2.713  0.00  0.00    +0.002 A 
ATOM     36  C   UNL     1      -4.643  -6.196   3.816  0.00  0.00    +0.000 A 
ATOM     37  C   UNL     1      -3.597  -5.661   4.545  0.00  0.00    +0.000 A 
ATOM     38  C   UNL     1      -3.041  -4.452   4.170  0.00  0.00    +0.000 A 
ATOM     39  C   UNL     1      -3.527  -3.781   3.064  0.00  0.00    +0.002 A 
ENDBRANCH  33  34
ENDBRANCH  23  33
ENDBRANCH  22  23
ENDBRANCH   1  22
TORSDOF 13
