REMARK  Name = ZINC34171097
REMARK  13 active torsions:
REMARK  status: ('A' for Active; 'I' for Inactive)
REMARK    1  A    between atoms: C_1  and  C_2
REMARK    2  A    between atoms: C_2  and  C_4
REMARK    3  A    between atoms: C_2  and  C_10
REMARK    4  A    between atoms: C_4  and  C_5
REMARK    5  A    between atoms: C_5  and  C_6
REMARK    6  A    between atoms: C_6  and  C_7
REMARK    7  A    between atoms: C_7  and  C_8
REMARK    8  A    between atoms: C_7  and  C_9
REMARK    9  A    between atoms: C_16  and  C_37
REMARK   10  A    between atoms: C_24  and  O_36
REMARK   11  A    between atoms: C_26  and  O_35
REMARK   12  A    between atoms: C_27  and  C_34
REMARK   13  A    between atoms: C_30  and  O_33
REMARK                            x       y       z     vdW  Elec       q    Type
REMARK                         _______ _______ _______ _____ _____    ______ ____
ROOT
ATOM      1  C   UNL     1       0.696  -0.612  -1.102  0.00  0.00    -0.002 C 
ATOM      2  C   UNL     1      -0.072   0.014  -2.298  0.00  0.00    +0.004 C 
ATOM      3  C   UNL     1      -0.955  -1.120  -2.896  0.00  0.00    +0.004 C 
ATOM      4  C   UNL     1      -1.008  -2.127  -1.737  0.00  0.00    -0.001 C 
ATOM      5  C   UNL     1       0.462  -2.127  -1.271  0.00  0.00    -0.026 C 
ATOM      6  C   UNL     1       0.647  -2.989  -0.057  0.00  0.00    +0.007 C 
ATOM      7  C   UNL     1      -0.026  -4.361  -0.211  0.00  0.00    +0.005 C 
ATOM      8  C   UNL     1      -0.587  -4.595  -1.600  0.00  0.00    +0.001 C 
ATOM      9  C   UNL     1      -1.550  -3.494  -2.024  0.00  0.00    -0.001 C 
ATOM     10  C   UNL     1      -1.931  -3.708  -3.486  0.00  0.00    +0.038 C 
ATOM     11  C   UNL     1      -2.665  -5.042  -3.638  0.00  0.00    +0.147 C 
ATOM     12  C   UNL     1      -2.635  -5.864  -2.361  0.00  0.00    +0.100 C 
ATOM     13  C   UNL     1      -1.251  -5.966  -1.737  0.00  0.00    +0.002 C 
ATOM     14  C   UNL     1      -1.385  -6.645  -0.371  0.00  0.00    +0.012 C 
ATOM     15  C   UNL     1      -1.978  -8.043  -0.535  0.00  0.00    +0.032 C 
ATOM     16  C   UNL     1      -3.302  -8.013  -1.290  0.00  0.00    +0.117 C 
ATOM     17  C   UNL     1      -3.167  -7.282  -2.627  0.00  0.00    +0.069 C 
ATOM     18  C   UNL     1      -0.323  -6.823  -2.614  0.00  0.00    +0.014 C 
ATOM     19  C   UNL     1       1.428  -2.557  -2.386  0.00  0.00    +0.012 C 
ENDROOT
BRANCH   1  21
ATOM     20  C   UNL     1      -1.385  -0.156   0.190  0.00  0.00    +0.008 C 
ATOM     21  C   UNL     1       0.143  -0.088   0.215  0.00  0.00    -0.010 C 
BRANCH  21  22
ATOM     22  C   UNL     1       0.585   1.363   0.412  0.00  0.00    +0.003 C 
BRANCH  22  23
ATOM     23  C   UNL     1       0.025   1.892   1.735  0.00  0.00    +0.001 C 
BRANCH  23  24
ATOM     24  C   UNL     1       0.468   3.343   1.932  0.00  0.00    +0.003 C 
BRANCH  24  25
ATOM     25  C   UNL     1      -0.092   3.872   3.254  0.00  0.00    -0.017 C 
ATOM     26  C   UNL     1       0.530   3.098   4.417  0.00  0.00    +0.007 C 
ATOM     27  C   UNL     1       0.244   5.358   3.392  0.00  0.00    +0.007 C 
ENDBRANCH  24  25
ENDBRANCH  23  24
ENDBRANCH  22  23
ENDBRANCH  21  22
ENDBRANCH   1  21
BRANCH  16  28
ATOM     28  O   UNL     1      -3.734  -9.357  -1.536  0.00  0.00    -0.392 OA
ATOM     29  H   UNL     1      -3.872  -9.879  -0.734  0.00  0.00    +0.210 HD
ENDBRANCH  16  28
BRANCH  12  30
ATOM     30  O   UNL     1      -3.548  -5.284  -1.409  0.00  0.00    -0.385 OA
ATOM     31  H   UNL     1      -4.466  -5.252  -1.713  0.00  0.00    +0.210 HD
ENDBRANCH  12  30
BRANCH  11  32
ATOM     32  O   UNL     1      -2.110  -5.775  -4.731  0.00  0.00    -0.389 OA
ATOM     33  H   UNL     1      -2.171  -5.320  -5.582  0.00  0.00    +0.210 HD
ENDBRANCH  11  32
TORSDOF 8
