REMARK  Name = ZINC35723957
REMARK  7 active torsions:
REMARK  status: ('A' for Active; 'I' for Inactive)
REMARK    1  A    between atoms: C_1  and  C_2
REMARK    2  A    between atoms: C_5  and  C_8
REMARK    3  A    between atoms: C_14  and  C_16
REMARK    4  A    between atoms: C_16  and  C_18
REMARK    5  A    between atoms: C_16  and  N_25
REMARK    6  A    between atoms: C_18  and  C_19
REMARK    7  A    between atoms: C_26  and  C_28
REMARK                            x       y       z     vdW  Elec       q    Type
REMARK                         _______ _______ _______ _____ _____    ______ ____
ROOT
ATOM      1  C   UNL     1       0.148 -10.572   0.402  0.00  0.00    +0.164 C 
ENDROOT
BRANCH   1   8
ATOM      2  C   UNL     1       0.061  -4.251  -0.021  0.00  0.00    +0.134 A 
ATOM      3  N   UNL     1       0.073  -5.097  -1.044  0.00  0.00    -0.140 NA
ATOM      4  N   UNL     1       0.090  -6.338  -0.809  0.00  0.00    -0.125 NA
ATOM      5  C   UNL     1       0.097  -6.816   0.421  0.00  0.00    +0.188 A 
ATOM      6  S   UNL     1       0.083  -5.405   1.344  0.00  0.00    -0.030 S 
ATOM      7  N   UNL     1       0.115  -8.139   0.846  0.00  0.00    -0.262 N 
ATOM      8  C   UNL     1       0.129  -9.137  -0.059  0.00  0.00    +0.239 C 
ATOM      9  O   UNL     1       0.126  -8.881  -1.245  0.00  0.00    -0.273 OA
ATOM     10  H   UNL     1       0.117  -8.343   1.794  0.00  0.00    +0.157 HD
BRANCH   2  15
ATOM     11  C   UNL     1      -0.018   1.503   0.010  0.00  0.00    +0.044 C 
ATOM     12  C   UNL     1       0.002  -0.004   0.002  0.00  0.00    -0.050 A 
ATOM     13  C   UNL     1       0.006  -0.686  -1.202  0.00  0.00    +0.004 A 
ATOM     14  C   UNL     1       0.025  -2.066  -1.216  0.00  0.00    +0.011 A 
ATOM     15  C   UNL     1       0.041  -2.773  -0.013  0.00  0.00    +0.009 A 
ATOM     16  C   UNL     1       0.037  -2.079   1.198  0.00  0.00    +0.011 A 
ATOM     17  C   UNL     1       0.023  -0.699   1.198  0.00  0.00    +0.004 A 
ENDBRANCH   2  15
ENDBRANCH   1   8
BRANCH   1  18
ATOM     18  N   UNL     1       0.162 -11.459  -0.764  0.00  0.00    -0.299 N 
ATOM     19  C   UNL     1      -0.315 -12.715  -0.660  0.00  0.00    +0.251 C 
ATOM     20  O   UNL     1      -0.755 -13.113   0.402  0.00  0.00    -0.270 OA
ATOM     21  H   UNL     1       0.513 -11.142  -1.611  0.00  0.00    +0.150 HD
BRANCH  19  22
ATOM     22  C   UNL     1      -0.301 -13.603  -1.827  0.00  0.00    +0.074 A 
ATOM     23  C   UNL     1      -0.743 -14.913  -1.933  0.00  0.00    +0.021 A 
ATOM     24  C   UNL     1      -0.599 -15.493  -3.171  0.00  0.00    +0.008 A 
ATOM     25  C   UNL     1      -0.051 -14.769  -4.178  0.00  0.00    +0.046 A 
ATOM     26  S   UNL     1       0.280 -13.277  -3.480  0.00  0.00    -0.092 S 
ENDBRANCH  19  22
ENDBRANCH   1  18
BRANCH   1  27
ATOM     27  C   UNL     1       1.401 -10.819   1.245  0.00  0.00    +0.067 C 
BRANCH  27  28
ATOM     28  C   UNL     1       1.359 -12.217   1.807  0.00  0.00    -0.045 A 
ATOM     29  C   UNL     1       0.763 -12.452   3.032  0.00  0.00    +0.004 A 
ATOM     30  C   UNL     1       0.725 -13.734   3.547  0.00  0.00    +0.000 A 
ATOM     31  C   UNL     1       1.283 -14.781   2.838  0.00  0.00    +0.000 A 
ATOM     32  C   UNL     1       1.879 -14.546   1.613  0.00  0.00    +0.000 A 
ATOM     33  C   UNL     1       1.913 -13.265   1.095  0.00  0.00    +0.004 A 
ENDBRANCH  27  28
ENDBRANCH   1  27
TORSDOF 6
