REMARK  Name = ZINC14472466
REMARK  6 active torsions:
REMARK  status: ('A' for Active; 'I' for Inactive)
REMARK    1  A    between atoms: C_4  and  C_7
REMARK    2  A    between atoms: C_7  and  C_8
REMARK    3  A    between atoms: C_8  and  C_9
REMARK    4  A    between atoms: N_11  and  C_12
REMARK    5  A    between atoms: C_25  and  C_28
REMARK    6  A    between atoms: C_32  and  N_34
REMARK                            x       y       z     vdW  Elec       q    Type
REMARK                         _______ _______ _______ _____ _____    ______ ____
ROOT
ATOM      1  C   UNL     1      -0.087  -1.175   0.232  0.00  0.00    +0.034 A 
ATOM      2  C   UNL     1       1.234  -0.837  -0.035  0.00  0.00    +0.025 A 
ATOM      3  C   UNL     1       1.599   0.493  -0.094  0.00  0.00    +0.025 A 
ATOM      4  C   UNL     1       0.650   1.486   0.113  0.00  0.00    +0.031 A 
ATOM      5  C   UNL     1      -0.669   1.157   0.382  0.00  0.00    -0.018 A 
ATOM      6  C   UNL     1      -1.030  -0.182   0.439  0.00  0.00    +0.029 A 
ATOM      7  C   UNL     1      -1.721   2.194   0.620  0.00  0.00    +0.049 C 
ATOM      8  C   UNL     1      -2.638   2.330  -0.576  0.00  0.00    -0.023 C 
ATOM      9  C   UNL     1      -2.987   3.583  -0.739  0.00  0.00    -0.030 C 
ATOM     10  C   UNL     1      -2.354   4.454   0.328  0.00  0.00    +0.033 C 
ATOM     11  C   UNL     1      -1.140   3.608   0.812  0.00  0.00    +0.029 C 
ATOM     12  C   UNL     1       0.003   3.845  -0.178  0.00  0.00    +0.105 C 
ATOM     13  N   UNL     1       1.040   2.831   0.043  0.00  0.00    -0.336 N 
ATOM     14  H   UNL     1       1.971   3.084   0.138  0.00  0.00    +0.147 HD
ENDROOT
BRANCH  12  15
ATOM     15  C   UNL     1      -0.519   3.734  -1.588  0.00  0.00    -0.025 A 
ATOM     16  C   UNL     1      -0.990   4.858  -2.241  0.00  0.00    +0.005 A 
ATOM     17  C   UNL     1      -1.468   4.757  -3.534  0.00  0.00    +0.003 A 
ATOM     18  C   UNL     1      -1.475   3.531  -4.174  0.00  0.00    +0.033 A 
ATOM     19  C   UNL     1      -1.004   2.408  -3.521  0.00  0.00    +0.127 A 
ATOM     20  C   UNL     1      -0.521   2.510  -2.230  0.00  0.00    +0.038 A 
BRANCH  19  21
ATOM     21  N   UNL     1      -1.012   1.096  -4.207  0.00  0.00    +0.056 N 
ATOM     22  O   UNL     1      -1.433   1.007  -5.346  0.00  0.00    -0.126 OA
ATOM     23  O   UNL     1      -0.597   0.106  -3.632  0.00  0.00    -0.126 OA
ENDBRANCH  19  21
ENDBRANCH  12  15
BRANCH   1  26
ATOM     24  C   UNL     1       0.401  -3.446   0.756  0.00  0.00    +0.218 C 
ATOM     25  O   UNL     1       1.472  -3.100   1.208  0.00  0.00    -0.275 OA
ATOM     26  N   UNL     1      -0.465  -2.523   0.293  0.00  0.00    -0.285 N 
ATOM     27  H   UNL     1      -1.350  -2.792   0.001  0.00  0.00    +0.155 HD
BRANCH  24  28
ATOM     28  C   UNL     1       0.039  -4.908   0.711  0.00  0.00    +0.101 C 
BRANCH  28  29
ATOM     29  C   UNL     1       1.187  -5.736   1.293  0.00  0.00    +0.044 C 
BRANCH  29  33
ATOM     30  C   UNL     1       0.162  -9.880   1.167  0.00  0.00    +0.000 A 
ATOM     31  C   UNL     1       0.816  -9.297   0.098  0.00  0.00    +0.000 A 
ATOM     32  C   UNL     1       1.148  -7.956   0.139  0.00  0.00    +0.003 A 
ATOM     33  C   UNL     1       0.825  -7.198   1.248  0.00  0.00    -0.047 A 
ATOM     34  C   UNL     1       0.176  -7.782   2.320  0.00  0.00    +0.003 A 
ATOM     35  C   UNL     1      -0.160  -9.122   2.277  0.00  0.00    +0.000 A 
ENDBRANCH  29  33
ENDBRANCH  28  29
ENDBRANCH  24  28
ENDBRANCH   1  26
TORSDOF 6
