REMARK  Name = ZINC63822356
REMARK  5 active torsions:
REMARK  status: ('A' for Active; 'I' for Inactive)
REMARK    1  A    between atoms: C_4  and  C_7
REMARK    2  A    between atoms: C_7  and  C_8
REMARK    3  A    between atoms: C_8  and  C_9
REMARK    4  A    between atoms: C_13  and  N_16
REMARK    5  A    between atoms: C_17  and  C_19
REMARK                            x       y       z     vdW  Elec       q    Type
REMARK                         _______ _______ _______ _____ _____    ______ ____
ROOT
ATOM      1  N   UNL     1       5.607  -5.230   2.686  0.00  0.00    -0.286 N 
ATOM      2  C   UNL     1       6.230  -6.120   3.484  0.00  0.00    +0.247 C 
ATOM      3  O   UNL     1       7.442  -6.201   3.474  0.00  0.00    -0.270 OA
ATOM      4  H   UNL     1       4.639  -5.215   2.639  0.00  0.00    +0.151 HD
ENDROOT
BRANCH   2   5
ATOM      5  C   UNL     1       5.435  -6.999   4.376  0.00  0.00    +0.051 A 
ATOM      6  C   UNL     1       4.071  -7.009   4.311  0.00  0.00    +0.083 A 
ATOM      7  C   UNL     1       3.316  -7.887   5.202  0.00  0.00    +0.250 A 
ATOM      8  O   UNL     1       2.099  -7.897   5.144  0.00  0.00    -0.268 OA
ATOM      9  N   UNL     1       3.943  -8.684   6.084  0.00  0.00    -0.322 N 
ATOM     10  H   UNL     1       3.418  -9.257   6.664  0.00  0.00    +0.169 HD
ATOM     11  C   UNL     1       5.318  -8.703   6.181  0.00  0.00    +0.050 A 
ATOM     12  C   UNL     1       6.098  -7.885   5.345  0.00  0.00    +0.011 A 
ATOM     13  C   UNL     1       7.492  -7.915   5.446  0.00  0.00    +0.011 A 
ATOM     14  C   UNL     1       8.090  -8.744   6.352  0.00  0.00    +0.001 A 
ATOM     15  C   UNL     1       7.325  -9.558   7.175  0.00  0.00    +0.002 A 
ATOM     16  C   UNL     1       5.949  -9.536   7.101  0.00  0.00    +0.026 A 
ENDBRANCH   2   5
BRANCH   1  20
ATOM     17  C   UNL     1       5.532  -1.679   1.440  0.00  0.00    +0.130 C 
ATOM     18  N   UNL     1       5.983  -2.063   2.814  0.00  0.00    -0.241 NA
ATOM     19  N   UNL     1       6.920  -3.179   2.737  0.00  0.00    -0.227 NA
ATOM     20  C   UNL     1       6.394  -4.285   1.890  0.00  0.00    +0.217 C 
ATOM     21  S   UNL     1       5.323  -3.360   0.708  0.00  0.00    -0.102 S 
ATOM     22  H   UNL     1       5.196  -2.292   3.402  0.00  0.00    +0.142 HD
ATOM     23  H   UNL     1       7.161  -3.512   3.659  0.00  0.00    +0.143 HD
BRANCH  17  24
ATOM     24  C   UNL     1       4.205  -0.918   1.480  0.00  0.00    +0.035 C 
BRANCH  24  25
ATOM     25  C   UNL     1       3.733  -0.640   0.051  0.00  0.00    +0.037 C 
BRANCH  25  29
ATOM     26  C   UNL     1       0.028   1.483   0.161  0.00  0.00    +0.000 A 
ATOM     27  C   UNL     1       1.223   2.178   0.150  0.00  0.00    +0.000 A 
ATOM     28  C   UNL     1       2.422   1.491   0.114  0.00  0.00    +0.003 A 
ATOM     29  C   UNL     1       2.426   0.109   0.091  0.00  0.00    -0.047 A 
ATOM     30  C   UNL     1       1.231  -0.586   0.104  0.00  0.00    +0.003 A 
ATOM     31  C   UNL     1       0.032   0.101   0.138  0.00  0.00    +0.000 A 
ENDBRANCH  25  29
ENDBRANCH  24  25
ENDBRANCH  17  24
ENDBRANCH   1  20
TORSDOF 5
