REMARK  Name = ZINC08754843
REMARK  10 active torsions:
REMARK  status: ('A' for Active; 'I' for Inactive)
REMARK    1  A    between atoms: C_1  and  C_2
REMARK    2  A    between atoms: C_2  and  C_3
REMARK    3  A    between atoms: C_3  and  C_32
REMARK    4  A    between atoms: N_6  and  N_10
REMARK    5  A    between atoms: C_11  and  C_13
REMARK    6  A    between atoms: C_13  and  S_14
REMARK    7  A    between atoms: S_14  and  C_15
REMARK    8  A    between atoms: C_17  and  C_26
REMARK    9  A    between atoms: C_21  and  C_25
REMARK   10  A    between atoms: C_23  and  C_24
REMARK                            x       y       z     vdW  Elec       q    Type
REMARK                         _______ _______ _______ _____ _____    ______ ____
ROOT
ATOM      1  S   UNL     1       0.194   4.738  -0.542  0.00  0.00    -0.077 S 
ENDROOT
BRANCH   1   2
ATOM      2  C   UNL     1       1.440   3.498  -0.427  0.00  0.00    +0.191 A 
ATOM      3  N   UNL     1       2.729   3.701  -0.585  0.00  0.00    -0.220 NA
ATOM      4  C   UNL     1       3.395   2.543  -0.431  0.00  0.00    +0.100 A 
ATOM      5  C   UNL     1       2.453   1.556  -0.160  0.00  0.00    +0.097 A 
ATOM      6  N   UNL     1       1.217   2.186  -0.162  0.00  0.00    -0.206 N 
ATOM      7  N   UNL     1       0.062   1.437   0.086  0.00  0.00    -0.169 NA
ATOM      8  C   UNL     1       0.139   0.155   0.318  0.00  0.00    +0.059 A 
ATOM      9  C   UNL     1       1.374  -0.511   0.326  0.00  0.00    +0.030 A 
ATOM     10  C   UNL     1       2.526   0.178   0.090  0.00  0.00    -0.021 A 
ATOM     11  C   UNL     1       3.856  -0.530   0.097  0.00  0.00    +0.046 C 
ATOM     12  C   UNL     1      -1.123  -0.625   0.582  0.00  0.00    +0.067 C 
BRANCH   4  13
ATOM     13  C   UNL     1       4.858   2.354  -0.533  0.00  0.00    +0.003 A 
ATOM     14  C   UNL     1       5.726   3.238   0.111  0.00  0.00    +0.010 A 
ATOM     15  C   UNL     1       7.090   3.053   0.017  0.00  0.00    +0.001 A 
ATOM     16  C   UNL     1       7.598   2.000  -0.724  0.00  0.00    +0.000 A 
ATOM     17  C   UNL     1       6.744   1.124  -1.369  0.00  0.00    +0.001 A 
ATOM     18  C   UNL     1       5.378   1.294  -1.279  0.00  0.00    +0.010 A 
ENDBRANCH   4  13
ENDBRANCH   1   2
BRANCH   1  19
ATOM     19  C   UNL     1       1.117   6.255  -0.910  0.00  0.00    +0.174 C 
BRANCH  19  21
ATOM     20  N   UNL     1       0.620   8.646  -1.309  0.00  0.00    -0.223 N 
ATOM     21  C   UNL     1       0.156   7.410  -1.036  0.00  0.00    +0.240 C 
ATOM     22  O   UNL     1      -1.034   7.227  -0.891  0.00  0.00    -0.273 OA
ATOM     23  H   UNL     1       1.571   8.792  -1.425  0.00  0.00    +0.174 HD
BRANCH  20  27
ATOM     24  C   UNL     1      -1.601  11.390  -2.239  0.00  0.00    +0.111 C 
ATOM     25  C   UNL     1      -0.629  10.284  -2.597  0.00  0.00    +0.263 C 
ATOM     26  O   UNL     1      -0.251   9.971  -3.705  0.00  0.00    -0.271 OA
ATOM     27  N   UNL     1      -0.273   9.719  -1.426  0.00  0.00    -0.137 N 
ATOM     28  C   UNL     1      -0.874  10.313  -0.389  0.00  0.00    +0.326 C 
ATOM     29  O   UNL     1      -0.708   9.982   0.769  0.00  0.00    -0.251 OA
ATOM     30  N   UNL     1      -1.683  11.318  -0.770  0.00  0.00    -0.284 N 
ATOM     31  C   UNL     1      -2.972  11.131  -2.868  0.00  0.00    +0.041 C 
ATOM     32  H   UNL     1      -2.216  11.885  -0.191  0.00  0.00    +0.151 HD
BRANCH  24  34
ATOM     33  C   UNL     1      -1.934  13.863  -2.108  0.00  0.00    +0.006 C 
ATOM     34  C   UNL     1      -1.056  12.749  -2.682  0.00  0.00    +0.032 C 
ENDBRANCH  24  34
ENDBRANCH  20  27
ENDBRANCH  19  21
ENDBRANCH   1  19
TORSDOF 6
