REMARK  Name = ZINC18281208
REMARK  5 active torsions:
REMARK  status: ('A' for Active; 'I' for Inactive)
REMARK    1  A    between atoms: N_12  and  C_16
REMARK    2  A    between atoms: C_16  and  C_17
REMARK    3  A    between atoms: N_19  and  C_20
REMARK    4  A    between atoms: C_20  and  C_21
REMARK    5  A    between atoms: N_23  and  C_24
REMARK                            x       y       z     vdW  Elec       q    Type
REMARK                         _______ _______ _______ _____ _____    ______ ____
ROOT
ATOM      1  C   UNL     1      -0.365   5.990   2.173  0.00  0.00    +0.213 C 
ENDROOT
BRANCH   1  13
ATOM      2  C   UNL     1       1.171  -0.648  -0.081  0.00  0.00    +0.000 A 
ATOM      3  C   UNL     1      -0.035   0.026  -0.056  0.00  0.00    +0.000 A 
ATOM      4  C   UNL     1      -0.053   1.407  -0.041  0.00  0.00    +0.006 A 
ATOM      5  C   UNL     1       1.133   2.122  -0.051  0.00  0.00    -0.012 A 
ATOM      6  C   UNL     1       2.341   1.446  -0.072  0.00  0.00    -0.042 A 
ATOM      7  C   UNL     1       2.356   0.061  -0.089  0.00  0.00    +0.004 A 
ATOM      8  C   UNL     1       3.485   2.439  -0.070  0.00  0.00    +0.038 C 
ATOM      9  C   UNL     1       2.851   3.787  -0.482  0.00  0.00    +0.045 C 
ATOM     10  C   UNL     1       1.391   3.604  -0.049  0.00  0.00    +0.138 C 
ATOM     11  C   UNL     1       1.145   4.210   1.309  0.00  0.00    +0.251 C 
ATOM     12  O   UNL     1       1.687   3.919   2.353  0.00  0.00    -0.272 OA
ATOM     13  N   UNL     1       0.190   5.144   1.113  0.00  0.00    -0.215 N 
ATOM     14  C   UNL     1      -0.188   5.201  -0.171  0.00  0.00    +0.310 C 
ATOM     15  O   UNL     1      -1.034   5.964  -0.594  0.00  0.00    -0.252 OA
ATOM     16  N   UNL     1       0.476   4.316  -0.942  0.00  0.00    -0.281 N 
ATOM     17  H   UNL     1       0.370   4.180  -1.896  0.00  0.00    +0.152 HD
ENDBRANCH   1  13
BRANCH   1  18
ATOM     18  C   UNL     1      -1.559   5.307   2.788  0.00  0.00    +0.231 C 
ATOM     19  O   UNL     1      -1.912   4.221   2.381  0.00  0.00    -0.274 OA
ATOM     20  N   UNL     1      -2.234   5.904   3.790  0.00  0.00    -0.305 N 
ATOM     21  H   UNL     1      -1.952   6.773   4.115  0.00  0.00    +0.149 HD
BRANCH  20  22
ATOM     22  C   UNL     1      -3.395   5.239   4.388  0.00  0.00    +0.200 C 
BRANCH  22  23
ATOM     23  C   UNL     1      -3.965   6.109   5.479  0.00  0.00    +0.234 C 
ATOM     24  O   UNL     1      -3.452   7.179   5.731  0.00  0.00    -0.274 OA
ATOM     25  N   UNL     1      -5.045   5.699   6.173  0.00  0.00    -0.283 N 
ATOM     26  H   UNL     1      -5.494   4.875   5.928  0.00  0.00    +0.155 HD
BRANCH  25  27
ATOM     27  C   UNL     1      -5.518   6.462   7.247  0.00  0.00    +0.047 A 
ATOM     28  C   UNL     1      -5.438   7.848   7.204  0.00  0.00    +0.024 A 
ATOM     29  C   UNL     1      -5.909   8.598   8.264  0.00  0.00    +0.002 A 
ATOM     30  C   UNL     1      -6.452   7.970   9.371  0.00  0.00    +0.001 A 
ATOM     31  C   UNL     1      -6.528   6.591   9.419  0.00  0.00    +0.017 A 
ATOM     32  C   UNL     1      -6.062   5.834   8.360  0.00  0.00    +0.039 A 
ATOM     33 BR   UNL     1      -6.166   3.947   8.427  0.00  0.00    -0.048 Br
ENDBRANCH  25  27
ENDBRANCH  22  23
ENDBRANCH  20  22
ENDBRANCH   1  18
TORSDOF 5
