REMARK  Name = ZINC22435878
REMARK  8 active torsions:
REMARK  status: ('A' for Active; 'I' for Inactive)
REMARK    1  A    between atoms: C_4  and  C_7
REMARK    2  A    between atoms: C_16  and  C_18
REMARK    3  A    between atoms: C_18  and  S_19
REMARK    4  A    between atoms: S_19  and  C_20
REMARK    5  A    between atoms: C_23  and  C_26
REMARK    6  A    between atoms: N_24  and  N_25
REMARK    7  A    between atoms: C_26  and  O_27
REMARK    8  A    between atoms: O_27  and  C_28
REMARK                            x       y       z     vdW  Elec       q    Type
REMARK                         _______ _______ _______ _____ _____    ______ ____
ROOT
ATOM      1  C   UNL     1       5.296  -4.932   3.415  0.00  0.00    +0.151 C 
ENDROOT
BRANCH   1  11
ATOM      2  C   UNL     1       3.698  -0.688  -0.038  0.00  0.00    +0.004 A 
ATOM      3  C   UNL     1       4.658  -0.360  -0.936  0.00  0.00    +0.056 A 
ATOM      4  S   UNL     1       5.984  -1.488  -0.553  0.00  0.00    -0.076 S 
ATOM      5  C   UNL     1       5.225  -2.365   0.790  0.00  0.00    +0.116 A 
ATOM      6  C   UNL     1       3.965  -1.759   0.914  0.00  0.00    +0.080 A 
ATOM      7  C   UNL     1       3.125  -2.280   1.950  0.00  0.00    +0.260 A 
ATOM      8  O   UNL     1       2.010  -1.822   2.132  0.00  0.00    -0.267 OA
ATOM      9  N   UNL     1       3.585  -3.284   2.719  0.00  0.00    -0.310 N 
ATOM     10  H   UNL     1       3.020  -3.642   3.422  0.00  0.00    +0.170 HD
ATOM     11  C   UNL     1       4.823  -3.807   2.529  0.00  0.00    +0.121 A 
ATOM     12  N   UNL     1       5.609  -3.360   1.586  0.00  0.00    -0.226 NA
BRANCH   2  16
ATOM     13  C   UNL     1      -0.017   1.379   0.010  0.00  0.00    +0.000 A 
ATOM     14  C   UNL     1       1.169   2.092   0.002  0.00  0.00    +0.001 A 
ATOM     15  C   UNL     1       2.377   1.427  -0.013  0.00  0.00    +0.008 A 
ATOM     16  C   UNL     1       2.403   0.033  -0.021  0.00  0.00    -0.017 A 
ATOM     17  C   UNL     1       1.205  -0.680  -0.013  0.00  0.00    +0.008 A 
ATOM     18  C   UNL     1       0.002  -0.004   0.002  0.00  0.00    +0.001 A 
ENDBRANCH   2  16
ENDBRANCH   1  11
BRANCH   1  19
ATOM     19  S   UNL     1       6.974  -5.419   2.929  0.00  0.00    -0.077 S 
BRANCH  19  20
ATOM     20  C   UNL     1       7.378  -6.724   4.042  0.00  0.00    +0.209 A 
ATOM     21  N   UNL     1       6.608  -7.209   4.989  0.00  0.00    -0.121 NA
ATOM     22  N   UNL     1       7.220  -8.154   5.609  0.00  0.00    -0.128 NA
ATOM     23  C   UNL     1       8.407  -8.327   5.099  0.00  0.00    +0.189 A 
ATOM     24  N   UNL     1       8.548  -7.427   4.079  0.00  0.00    -0.225 N 
BRANCH  24  25
ATOM     25  N   UNL     1       9.634  -7.263   3.268  0.00  0.00    -0.295 N 
ATOM     26  H   UNL     1      10.280  -6.593   3.659  0.00  0.00    +0.163 HD
ATOM     27  H   UNL     1      10.091  -8.146   3.093  0.00  0.00    +0.163 HD
ENDBRANCH  24  25
BRANCH  23  28
ATOM     28  C   UNL     1       9.432  -9.337   5.547  0.00  0.00    +0.306 C 
BRANCH  28  29
ATOM     29  O   UNL     1       9.252 -10.553   4.819  0.00  0.00    -0.481 OA
BRANCH  29  30
ATOM     30  C   UNL     1      10.102 -11.575   5.104  0.00  0.00    +0.156 A 
ATOM     31  C   UNL     1      11.085 -11.412   6.069  0.00  0.00    +0.048 A 
ATOM     32  C   UNL     1      11.948 -12.452   6.357  0.00  0.00    +0.004 A 
ATOM     33  C   UNL     1      11.833 -13.655   5.685  0.00  0.00    +0.003 A 
ATOM     34  C   UNL     1      10.855 -13.822   4.722  0.00  0.00    +0.042 A 
ATOM     35  C   UNL     1       9.984 -12.786   4.434  0.00  0.00    +0.165 A 
ATOM     36  F   UNL     1       9.024 -12.951   3.498  0.00  0.00    -0.202 F 
ENDBRANCH  29  30
ENDBRANCH  28  29
ENDBRANCH  23  28
ENDBRANCH  19  20
ENDBRANCH   1  19
TORSDOF 8
