REMARK  Name = ZINC36066364
REMARK  13 active torsions:
REMARK  status: ('A' for Active; 'I' for Inactive)
REMARK    1  A    between atoms: C_1  and  C_2
REMARK    2  A    between atoms: C_2  and  N_3
REMARK    3  A    between atoms: N_3  and  C_4
REMARK    4  A    between atoms: N_3  and  C_6
REMARK    5  A    between atoms: C_4  and  C_5
REMARK    6  A    between atoms: C_6  and  C_7
REMARK    7  A    between atoms: C_7  and  N_8
REMARK    8  A    between atoms: C_9  and  C_34
REMARK    9  A    between atoms: C_17  and  C_23
REMARK   10  A    between atoms: N_25  and  C_26
REMARK   11  A    between atoms: C_28  and  C_33
REMARK   12  A    between atoms: C_30  and  C_32
REMARK   13  A    between atoms: N_36  and  C_37
REMARK                            x       y       z     vdW  Elec       q    Type
REMARK                         _______ _______ _______ _____ _____    ______ ____
ROOT
ATOM      1  N   UNL     1      -2.016  -3.077  -2.381  0.00  0.00    -0.288 N 
ATOM      2  C   UNL     1      -2.003  -3.877  -3.646  0.00  0.00    +0.198 C 
ATOM      3  C   UNL     1      -2.650  -5.155  -3.211  0.00  0.00    +0.127 C 
ATOM      4  C   UNL     1      -4.138  -5.004  -2.955  0.00  0.00    +0.009 C 
ATOM      5  C   UNL     1      -4.564  -6.205  -2.591  0.00  0.00    +0.004 C 
ATOM      6  C   UNL     1      -3.306  -7.082  -2.567  0.00  0.00    +0.155 C 
ATOM      7  O   UNL     1      -2.510  -6.479  -3.671  0.00  0.00    -0.358 OA
ATOM      8  C   UNL     1      -2.564  -6.563  -1.275  0.00  0.00    +0.123 C 
ATOM      9  C   UNL     1      -1.910  -5.294  -1.821  0.00  0.00    +0.128 C 
ATOM     10  C   UNL     1      -2.062  -3.924  -1.300  0.00  0.00    +0.223 C 
ATOM     11  O   UNL     1      -2.202  -3.605  -0.139  0.00  0.00    -0.275 OA
ENDROOT
BRANCH   8  12
ATOM     12  C   UNL     1      -3.546  -6.257  -0.173  0.00  0.00    +0.224 C 
ATOM     13  O   UNL     1      -3.636  -5.129   0.263  0.00  0.00    -0.275 OA
ATOM     14  N   UNL     1      -4.325  -7.237   0.327  0.00  0.00    -0.285 N 
ATOM     15  H   UNL     1      -4.208  -8.151   0.024  0.00  0.00    +0.155 HD
BRANCH  14  16
ATOM     16  C   UNL     1      -5.302  -6.935   1.281  0.00  0.00    +0.034 A 
ATOM     17  C   UNL     1      -6.510  -7.620   1.281  0.00  0.00    +0.026 A 
ATOM     18  C   UNL     1      -7.473  -7.320   2.225  0.00  0.00    -0.048 A 
ATOM     19  C   UNL     1      -7.235  -6.339   3.170  0.00  0.00    +0.006 A 
ATOM     20  C   UNL     1      -6.033  -5.654   3.172  0.00  0.00    -0.048 A 
ATOM     21  C   UNL     1      -5.064  -5.954   2.235  0.00  0.00    +0.026 A 
ATOM     22  C   UNL     1      -5.779  -4.585   4.203  0.00  0.00    +0.044 C 
ATOM     23  C   UNL     1      -8.784  -8.063   2.226  0.00  0.00    +0.044 C 
ENDBRANCH  14  16
ENDBRANCH   8  12
BRANCH   2  24
ATOM     24  C   UNL     1      -2.814  -3.200  -4.721  0.00  0.00    +0.237 C 
ATOM     25  O   UNL     1      -3.628  -2.351  -4.422  0.00  0.00    -0.274 OA
ATOM     26  N   UNL     1      -2.636  -3.537  -6.013  0.00  0.00    -0.311 N 
ATOM     27  H   UNL     1      -1.985  -4.215  -6.252  0.00  0.00    +0.149 HD
BRANCH  26  28
ATOM     28  C   UNL     1      -3.424  -2.878  -7.058  0.00  0.00    +0.073 C 
ATOM     29  C   UNL     1      -4.768  -3.594  -7.209  0.00  0.00    +0.022 C 
ATOM     30  C   UNL     1      -5.592  -2.906  -8.300  0.00  0.00    +0.002 C 
ATOM     31  C   UNL     1      -4.832  -2.964  -9.626  0.00  0.00    +0.000 C 
ATOM     32  C   UNL     1      -3.488  -2.248  -9.475  0.00  0.00    +0.002 C 
ATOM     33  C   UNL     1      -2.664  -2.936  -8.384  0.00  0.00    +0.022 C 
ENDBRANCH  26  28
ENDBRANCH   2  24
BRANCH   1  34
ATOM     34  C   UNL     1      -1.981  -1.615  -2.307  0.00  0.00    +0.090 C 
BRANCH  34  35
ATOM     35  C   UNL     1      -0.527  -1.142  -2.249  0.00  0.00    -0.060 C 
BRANCH  35  36
ATOM     36  N   UNL     1      -0.491   0.325  -2.174  0.00  0.00    +0.380 N 
ATOM     37  H   UNL     1      -1.010   0.713  -2.947  0.00  0.00    -0.082 HD
BRANCH  36  39
ATOM     38  C   UNL     1      -1.165   2.293  -0.883  0.00  0.00    -0.017 C 
ATOM     39  C   UNL     1      -1.094   0.765  -0.909  0.00  0.00    -0.082 C 
ENDBRANCH  36  39
BRANCH  36  40
ATOM     40  C   UNL     1       0.902   0.784  -2.239  0.00  0.00    -0.082 C 
ATOM     41  C   UNL     1       1.491   0.438  -3.608  0.00  0.00    -0.017 C 
ENDBRANCH  36  40
ENDBRANCH  35  36
ENDBRANCH  34  35
ENDBRANCH   1  34
TORSDOF 9
