REMARK  Name = ZINC00526660
REMARK  6 active torsions:
REMARK  status: ('A' for Active; 'I' for Inactive)
REMARK    1  A    between atoms: C_1  and  C_2
REMARK    2  A    between atoms: C_2  and  O_3
REMARK    3  A    between atoms: O_3  and  C_4
REMARK    4  A    between atoms: C_7  and  C_10
REMARK    5  A    between atoms: C_13  and  C_22
REMARK    6  A    between atoms: C_25  and  C_28
REMARK                            x       y       z     vdW  Elec       q    Type
REMARK                         _______ _______ _______ _____ _____    ______ ____
ROOT
ATOM      1  C   UNL     1       1.144  -6.059   1.764  0.00  0.00    +0.143 C 
ATOM      2  C   UNL     1       2.626  -6.453   1.815  0.00  0.00    +0.058 C 
ATOM      3  C   UNL     1       2.758  -7.916   2.251  0.00  0.00    +0.106 C 
ATOM      4  N   UNL     1       2.210  -8.052   3.615  0.00  0.00    -0.307 N 
ATOM      5  C   UNL     1       1.012  -7.395   3.863  0.00  0.00    +0.216 A 
ATOM      6  N   UNL     1       0.502  -6.471   3.012  0.00  0.00    -0.224 N 
ATOM      7  N   UNL     1      -0.699  -6.030   3.571  0.00  0.00    -0.132 NA
ATOM      8  C   UNL     1      -0.856  -6.687   4.699  0.00  0.00    +0.233 A 
ATOM      9  N   UNL     1       0.192  -7.514   4.873  0.00  0.00    -0.180 NA
ATOM     10  N   UNL     1      -1.932  -6.545   5.576  0.00  0.00    -0.326 N 
ATOM     11  H   UNL     1       2.661  -8.572   4.298  0.00  0.00    +0.149 HD
ATOM     12  H   UNL     1      -2.644  -5.919   5.373  0.00  0.00    +0.145 HD
ATOM     13  H   UNL     1      -1.967  -7.072   6.389  0.00  0.00    +0.145 HD
ENDROOT
BRANCH   3  14
ATOM     14  C   UNL     1       1.989  -8.799   1.302  0.00  0.00    -0.027 A 
ATOM     15  C   UNL     1       0.617  -8.918   1.427  0.00  0.00    +0.006 A 
ATOM     16  C   UNL     1      -0.089  -9.727   0.557  0.00  0.00    +0.004 A 
ATOM     17  C   UNL     1       0.577 -10.417  -0.439  0.00  0.00    -0.050 A 
ATOM     18  C   UNL     1       1.948 -10.297  -0.564  0.00  0.00    +0.004 A 
ATOM     19  C   UNL     1       2.654  -9.485   0.303  0.00  0.00    +0.006 A 
ATOM     20  C   UNL     1      -0.192 -11.300  -1.387  0.00  0.00    +0.044 C 
ENDBRANCH   3  14
BRANCH   1  24
ATOM     21  C   UNL     1       0.802  -1.824   1.306  0.00  0.00    +0.121 A 
ATOM     22  C   UNL     1       0.260  -2.673   0.351  0.00  0.00    +0.046 A 
ATOM     23  C   UNL     1       0.372  -4.041   0.502  0.00  0.00    +0.009 A 
ATOM     24  C   UNL     1       1.024  -4.566   1.603  0.00  0.00    -0.023 A 
ATOM     25  C   UNL     1       1.565  -3.722   2.555  0.00  0.00    +0.009 A 
ATOM     26  C   UNL     1       1.460  -2.353   2.406  0.00  0.00    +0.046 A 
BRANCH  21  27
ATOM     27  O   UNL     1       0.693  -0.477   1.160  0.00  0.00    -0.492 OA
BRANCH  27  29
ATOM     28  C   UNL     1      -0.019   1.526   0.010  0.00  0.00    +0.048 C 
ATOM     29  C   UNL     1       0.002  -0.004   0.002  0.00  0.00    +0.225 C 
ENDBRANCH  27  29
ENDBRANCH  21  27
ENDBRANCH   1  24
TORSDOF 4
