REMARK  Name = ZINC10372894
REMARK  7 active torsions:
REMARK  status: ('A' for Active; 'I' for Inactive)
REMARK    1  A    between atoms: C_1  and  C_2
REMARK    2  A    between atoms: C_9  and  C_11
REMARK    3  A    between atoms: C_14  and  C_17
REMARK    4  A    between atoms: C_17  and  N_18
REMARK    5  A    between atoms: C_19  and  C_21
REMARK    6  A    between atoms: C_21  and  C_26
REMARK    7  A    between atoms: C_29  and  N_32
REMARK                            x       y       z     vdW  Elec       q    Type
REMARK                         _______ _______ _______ _____ _____    ______ ____
ROOT
ATOM      1  N   UNL     1       6.093  -7.387  -1.497  0.00  0.00    -0.310 N 
ATOM      2  C   UNL     1       6.820  -8.496  -1.738  0.00  0.00    +0.224 C 
ATOM      3  O   UNL     1       7.332  -9.097  -0.817  0.00  0.00    -0.275 OA
ATOM      4  H   UNL     1       5.744  -6.865  -2.237  0.00  0.00    +0.149 HD
ENDROOT
BRANCH   2   5
ATOM      5  C   UNL     1       6.995  -8.990  -3.151  0.00  0.00    +0.072 C 
ATOM      6  C   UNL     1       5.621  -9.231  -3.800  0.00  0.00    +0.021 C 
ATOM      7  C   UNL     1       5.565 -10.728  -4.169  0.00  0.00    +0.001 C 
ATOM      8  C   UNL     1       6.586 -11.394  -3.213  0.00  0.00    +0.001 C 
ATOM      9  C   UNL     1       7.727 -10.348  -3.149  0.00  0.00    +0.021 C 
BRANCH   5  10
ATOM     10  C   UNL     1       7.778  -7.984  -3.955  0.00  0.00    -0.032 A 
ATOM     11  C   UNL     1       8.317  -6.872  -3.335  0.00  0.00    +0.007 A 
ATOM     12  C   UNL     1       9.038  -5.951  -4.072  0.00  0.00    +0.033 A 
ATOM     13  C   UNL     1       9.212  -6.137  -5.431  0.00  0.00    +0.126 A 
ATOM     14  C   UNL     1       8.668  -7.246  -6.051  0.00  0.00    +0.033 A 
ATOM     15  C   UNL     1       7.951  -8.169  -5.314  0.00  0.00    +0.007 A 
BRANCH  13  16
ATOM     16  N   UNL     1       9.980  -5.149  -6.221  0.00  0.00    +0.056 N 
ATOM     17  O   UNL     1      10.133  -5.313  -7.418  0.00  0.00    -0.126 OA
ATOM     18  O   UNL     1      10.459  -4.172  -5.674  0.00  0.00    -0.126 OA
ENDBRANCH  13  16
ENDBRANCH   5  10
ENDBRANCH   2   5
BRANCH   1  19
ATOM     19  C   UNL     1       5.830  -6.969  -0.118  0.00  0.00    +0.139 C 
BRANCH  19  23
ATOM     20  C   UNL     1       3.482  -3.395  -0.136  0.00  0.00    +0.037 A 
ATOM     21  C   UNL     1       4.876  -3.318  -0.146  0.00  0.00    +0.013 A 
ATOM     22  C   UNL     1       5.627  -4.475  -0.135  0.00  0.00    +0.006 A 
ATOM     23  C   UNL     1       5.003  -5.709  -0.124  0.00  0.00    -0.030 A 
ATOM     24  C   UNL     1       3.622  -5.792  -0.118  0.00  0.00    +0.006 A 
ATOM     25  C   UNL     1       2.858  -4.643  -0.124  0.00  0.00    +0.013 A 
BRANCH  20  34
ATOM     26  C   UNL     1       0.728   3.453  -0.176  0.00  0.00    +0.044 C 
ATOM     27  C   UNL     1       0.813   1.948  -0.165  0.00  0.00    -0.048 A 
ATOM     28  C   UNL     1      -0.350   1.192  -0.156  0.00  0.00    +0.007 A 
ATOM     29  C   UNL     1      -0.289  -0.186  -0.146  0.00  0.00    +0.049 A 
ATOM     30  C   UNL     1       0.942  -0.824  -0.147  0.00  0.00    +0.156 A 
ATOM     31  C   UNL     1       2.122  -0.062  -0.156  0.00  0.00    +0.110 A 
ATOM     32  C   UNL     1       2.045   1.333  -0.166  0.00  0.00    +0.035 A 
ATOM     33  N   UNL     1       3.155  -0.944  -0.153  0.00  0.00    -0.209 NA
ATOM     34  C   UNL     1       2.671  -2.159  -0.143  0.00  0.00    +0.228 A 
ATOM     35  O   UNL     1       1.325  -2.120  -0.138  0.00  0.00    -0.435 OA
ENDBRANCH  20  34
ENDBRANCH  19  23
ENDBRANCH   1  19
TORSDOF 6
