REMARK  Name = ZINC53646236
REMARK  7 active torsions:
REMARK  status: ('A' for Active; 'I' for Inactive)
REMARK    1  A    between atoms: C_1  and  C_2
REMARK    2  A    between atoms: C_2  and  C_3
REMARK    3  A    between atoms: C_3  and  C_4
REMARK    4  A    between atoms: C_4  and  S_5
REMARK    5  A    between atoms: S_5  and  N_8
REMARK    6  A    between atoms: C_12  and  C_15
REMARK    7  A    between atoms: C_21  and  C_24
REMARK                            x       y       z     vdW  Elec       q    Type
REMARK                         _______ _______ _______ _____ _____    ______ ____
ROOT
ATOM      1  N   UNL     1       1.545  -4.264  -2.652  0.00  0.00    -0.180 NA
ATOM      2  C   UNL     1       2.624  -4.999  -1.977  0.00  0.00    +0.109 C 
ATOM      3  C   UNL     1       3.164  -6.069  -2.931  0.00  0.00    +0.018 C 
ATOM      4  C   UNL     1       2.008  -6.949  -3.411  0.00  0.00    +0.014 C 
ATOM      5  C   UNL     1       0.993  -6.093  -4.171  0.00  0.00    +0.073 C 
ATOM      6  C   UNL     1       0.425  -5.023  -3.225  0.00  0.00    +0.120 C 
ENDROOT
BRANCH   5   7
ATOM      7  C   UNL     1      -0.128  -6.966  -4.671  0.00  0.00    +0.142 A 
ATOM      8  N   UNL     1      -0.934  -7.687  -3.935  0.00  0.00    -0.133 NA
ATOM      9  N   UNL     1      -1.778  -8.312  -4.679  0.00  0.00    -0.129 NA
ATOM     10  C   UNL     1      -1.550  -8.018  -5.949  0.00  0.00    +0.161 A 
ATOM     11  N   UNL     1      -0.491  -7.144  -5.971  0.00  0.00    -0.286 N 
ATOM     12  C   UNL     1      -0.024  -6.653  -7.154  0.00  0.00    +0.106 A 
ATOM     13  C   UNL     1      -0.597  -7.017  -8.320  0.00  0.00    +0.071 A 
ATOM     14  C   UNL     1      -1.685  -7.907  -8.331  0.00  0.00    +0.017 A 
ATOM     15  C   UNL     1      -2.156  -8.410  -7.158  0.00  0.00    +0.049 A 
BRANCH  13  16
ATOM     16  C   UNL     1      -0.069  -6.464  -9.619  0.00  0.00    +0.419 C 
ATOM     17  F   UNL     1       0.846  -7.367 -10.172  0.00  0.00    -0.166 F 
ATOM     18  F   UNL     1      -1.130  -6.272 -10.510  0.00  0.00    -0.166 F 
ATOM     19  F   UNL     1       0.568  -5.241  -9.381  0.00  0.00    -0.166 F 
ENDBRANCH  13  16
ENDBRANCH   5   7
BRANCH   1  20
ATOM     20  S   UNL     1       1.588  -2.612  -2.758  0.00  0.00    +0.032 S 
ATOM     21  O   UNL     1       0.819  -2.303  -3.912  0.00  0.00    -0.158 OA
ATOM     22  O   UNL     1       2.968  -2.281  -2.697  0.00  0.00    -0.158 OA
BRANCH  20  23
ATOM     23  C   UNL     1       0.739  -2.027  -1.265  0.00  0.00    +0.185 C 
BRANCH  23  24
ATOM     24  C   UNL     1       0.718  -0.497  -1.257  0.00  0.00    +0.024 C 
BRANCH  24  26
ATOM     25  C   UNL     1      -0.019   1.526   0.010  0.00  0.00    +0.004 C 
ATOM     26  C   UNL     1       0.002  -0.004   0.002  0.00  0.00    -0.002 C 
ENDBRANCH  24  26
ENDBRANCH  23  24
ENDBRANCH  20  23
ENDBRANCH   1  20
TORSDOF 6
