REMARK  Name = ZINC42579108
REMARK  9 active torsions:
REMARK  status: ('A' for Active; 'I' for Inactive)
REMARK    1  A    between atoms: C_1  and  C_2
REMARK    2  A    between atoms: C_2  and  C_3
REMARK    3  A    between atoms: C_2  and  C_4
REMARK    4  A    between atoms: C_4  and  N_5
REMARK    5  A    between atoms: N_5  and  C_6
REMARK    6  A    between atoms: N_5  and  C_18
REMARK    7  A    between atoms: C_11  and  N_12
REMARK    8  A    between atoms: C_18  and  C_19
REMARK    9  A    between atoms: C_18  and  C_20
REMARK                            x       y       z     vdW  Elec       q    Type
REMARK                         _______ _______ _______ _____ _____    ______ ____
ROOT
ATOM      1  C   UNL     1      -0.827  -1.144   2.816  0.00  0.00    +0.053 A 
ATOM      2  C   UNL     1      -0.537  -2.076   3.802  0.00  0.00    +0.052 A 
ATOM      3  C   UNL     1      -1.508  -2.978   4.206  0.00  0.00    +0.078 A 
ATOM      4  C   UNL     1      -2.774  -2.950   3.624  0.00  0.00    +0.144 A 
ATOM      5  C   UNL     1      -3.065  -2.021   2.641  0.00  0.00    +0.072 A 
ATOM      6  C   UNL     1      -2.095  -1.113   2.239  0.00  0.00    +0.049 A 
ATOM      7  O   UNL     1      -3.716  -3.844   4.031  0.00  0.00    -0.481 OA
ATOM      8  C   UNL     1      -3.248  -5.134   4.432  0.00  0.00    +0.325 C 
ATOM      9  C   UNL     1      -2.066  -4.979   5.354  0.00  0.00    +0.255 C 
ATOM     10  O   UNL     1      -1.864  -5.796   6.228  0.00  0.00    -0.272 OA
ATOM     11  N   UNL     1      -1.232  -3.927   5.203  0.00  0.00    -0.280 N 
ATOM     12  H   UNL     1      -0.454  -3.829   5.775  0.00  0.00    +0.155 HD
ENDROOT
BRANCH   6  13
ATOM     13  N   UNL     1      -2.390  -0.167   1.246  0.00  0.00    -0.356 N 
ATOM     14  H   UNL     1      -1.712   0.465   0.962  0.00  0.00    +0.142 HD
ATOM     15  H   UNL     1      -3.272  -0.145   0.844  0.00  0.00    +0.142 HD
ENDBRANCH   6  13
BRANCH   1  16
ATOM     16  N   UNL     1       0.154  -0.230   2.405  0.00  0.00    -0.326 N 
BRANCH  16  17
ATOM     17  C   UNL     1       0.280   1.063   3.082  0.00  0.00    +0.067 C 
ATOM     18  C   UNL     1      -1.077   1.770   3.088  0.00  0.00    +0.027 C 
ATOM     19  C   UNL     1       0.746   0.841   4.522  0.00  0.00    +0.027 C 
ENDBRANCH  16  17
BRANCH  16  20
ATOM     20  C   UNL     1       1.052  -0.568   1.298  0.00  0.00    +0.108 C 
BRANCH  20  22
ATOM     21  C   UNL     1       0.550   1.543   0.058  0.00  0.00    +0.009 C 
ATOM     22  C   UNL     1       0.498   0.015  -0.004  0.00  0.00    +0.000 C 
ATOM     23  C   UNL     1       1.343  -0.476  -1.182  0.00  0.00    +0.009 C 
ENDBRANCH  20  22
ENDBRANCH  16  20
ENDBRANCH   1  16
TORSDOF 5
