REMARK  Name = ZINC22196929
REMARK  10 active torsions:
REMARK  status: ('A' for Active; 'I' for Inactive)
REMARK    1  A    between atoms: C_1  and  C_2
REMARK    2  A    between atoms: N_6  and  C_14
REMARK    3  A    between atoms: C_14  and  C_15
REMARK    4  A    between atoms: N_17  and  C_18
REMARK    5  A    between atoms: C_20  and  S_25
REMARK    6  A    between atoms: C_23  and  O_24
REMARK    7  A    between atoms: S_25  and  N_28
REMARK    8  A    between atoms: N_28  and  C_29
REMARK    9  A    between atoms: C_34  and  O_35
REMARK   10  A    between atoms: O_35  and  C_36
REMARK                            x       y       z     vdW  Elec       q    Type
REMARK                         _______ _______ _______ _____ _____    ______ ____
ROOT
ATOM      1  C   UNL     1       1.049  -0.379   0.354  0.00  0.00    +0.077 A 
ATOM      2  C   UNL     1      -0.181   0.261   0.337  0.00  0.00    +0.055 A 
ATOM      3  C   UNL     1      -0.242   1.638   0.233  0.00  0.00    +0.110 A 
ATOM      4  C   UNL     1       0.921   2.380   0.145  0.00  0.00    +0.032 A 
ATOM      5  C   UNL     1       2.151   1.749   0.162  0.00  0.00    +0.049 A 
ATOM      6  C   UNL     1       2.221   0.369   0.266  0.00  0.00    +0.138 A 
ENDROOT
BRANCH   1   9
ATOM      7  C   UNL     1       0.065  -2.529   0.076  0.00  0.00    +0.235 C 
ATOM      8  O   UNL     1      -0.895  -2.008  -0.452  0.00  0.00    -0.274 OA
ATOM      9  N   UNL     1       1.113  -1.775   0.461  0.00  0.00    -0.281 N 
ATOM     10  H   UNL     1       2.020  -2.255   0.858  0.00  0.00    +0.155 HD
BRANCH   7  11
ATOM     11  C   UNL     1       0.085  -4.019   0.302  0.00  0.00    +0.209 C 
BRANCH  11  16
ATOM     12  C   UNL     1      -4.705  -4.793   0.826  0.00  0.00    +0.062 C 
ATOM     13  C   UNL     1      -3.496  -5.369   0.087  0.00  0.00    +0.256 C 
ATOM     14  C   UNL     1      -2.233  -4.733   0.611  0.00  0.00    +0.261 C 
ATOM     15  O   UNL     1      -2.183  -4.334   1.756  0.00  0.00    -0.271 OA
ATOM     16  N   UNL     1      -1.161  -4.605  -0.199  0.00  0.00    -0.256 N 
ATOM     17  C   UNL     1      -1.255  -5.048  -1.526  0.00  0.00    +0.079 A 
ATOM     18  C   UNL     1      -0.117  -5.240  -2.292  0.00  0.00    +0.027 A 
ATOM     19  C   UNL     1      -0.232  -5.676  -3.599  0.00  0.00    +0.002 A 
ATOM     20  C   UNL     1      -1.480  -5.920  -4.143  0.00  0.00    +0.004 A 
ATOM     21  C   UNL     1      -2.620  -5.730  -3.384  0.00  0.00    +0.047 A 
ATOM     22  C   UNL     1      -2.513  -5.295  -2.074  0.00  0.00    +0.143 A 
ATOM     23  O   UNL     1      -3.623  -5.106  -1.313  0.00  0.00    -0.478 OA
ENDBRANCH  11  16
ENDBRANCH   7  11
ENDBRANCH   1   9
BRANCH   3  24
ATOM     24  S   UNL     1      -1.806   2.449   0.204  0.00  0.00    +0.073 S 
ATOM     25  O   UNL     1      -1.606   3.695  -0.448  0.00  0.00    -0.150 OA
ATOM     26  O   UNL     1      -2.752   1.492  -0.255  0.00  0.00    -0.150 OA
BRANCH  24  27
ATOM     27  N   UNL     1      -2.208   2.795   1.773  0.00  0.00    -0.213 N 
ATOM     28  H   UNL     1      -3.124   2.375   2.212  0.00  0.00    +0.174 HD
BRANCH  27  29
ATOM     29  C   UNL     1      -1.380   3.622   2.541  0.00  0.00    +0.090 A 
ATOM     30  C   UNL     1      -0.721   4.690   1.948  0.00  0.00    +0.028 A 
ATOM     31  C   UNL     1       0.092   5.508   2.710  0.00  0.00    +0.002 A 
ATOM     32  C   UNL     1       0.259   5.260   4.059  0.00  0.00    +0.004 A 
ATOM     33  C   UNL     1      -0.389   4.194   4.655  0.00  0.00    +0.047 A 
ATOM     34  C   UNL     1      -1.210   3.372   3.901  0.00  0.00    +0.142 A 
BRANCH  34  35
ATOM     35  O   UNL     1      -1.848   2.323   4.486  0.00  0.00    -0.493 OA
ATOM     36  C   UNL     1      -1.627   2.127   5.884  0.00  0.00    +0.277 C 
ENDBRANCH  34  35
ENDBRANCH  27  29
ENDBRANCH  24  27
ENDBRANCH   3  24
BRANCH   6  37
ATOM     37  O   UNL     1       3.430  -0.253   0.282  0.00  0.00    -0.505 OA
ATOM     38  H   UNL     1       4.354   0.340   0.212  0.00  0.00    +0.292 HD
ENDBRANCH   6  37
TORSDOF 8
