REMARK  Name = ZINC66795238
REMARK  5 active torsions:
REMARK  status: ('A' for Active; 'I' for Inactive)
REMARK    1  A    between atoms: C_1  and  C_2
REMARK    2  A    between atoms: C_6  and  C_21
REMARK    3  A    between atoms: N_9  and  C_10
REMARK    4  A    between atoms: C_10  and  C_11
REMARK    5  A    between atoms: C_16  and  O_17
REMARK                            x       y       z     vdW  Elec       q    Type
REMARK                         _______ _______ _______ _____ _____    ______ ____
ROOT
ATOM      1  C   UNL     1      -0.019   1.526   0.010  0.00  0.00    +0.026 C 
ATOM      2  C   UNL     1       0.002  -0.004   0.002  0.00  0.00    +0.080 C 
ATOM      3  C   UNL     1      -1.434  -0.535   0.015  0.00  0.00    +0.179 C 
ATOM      4  O   UNL     1      -1.408  -1.963   0.083  0.00  0.00    -0.369 OA
ATOM      5  C   UNL     1      -0.727  -2.473   1.232  0.00  0.00    +0.162 C 
ATOM      6  C   UNL     1       0.717  -1.962   1.232  0.00  0.00    +0.121 C 
ATOM      7  N   UNL     1       0.711  -0.492   1.194  0.00  0.00    -0.290 NA
ENDROOT
BRANCH   5   8
ATOM      8  C   UNL     1      -0.728  -3.979   1.191  0.00  0.00    -0.018 A 
ATOM      9  C   UNL     1      -0.523  -4.638  -0.007  0.00  0.00    +0.006 A 
ATOM     10  C   UNL     1      -0.524  -6.020  -0.044  0.00  0.00    +0.000 A 
ATOM     11  C   UNL     1      -0.730  -6.743   1.116  0.00  0.00    +0.000 A 
ATOM     12  C   UNL     1      -0.934  -6.084   2.314  0.00  0.00    +0.000 A 
ATOM     13  C   UNL     1      -0.928  -4.702   2.352  0.00  0.00    +0.006 A 
ENDBRANCH   5   8
BRANCH   7  14
ATOM     14  C   UNL     1       2.079   0.042   1.248  0.00  0.00    +0.123 C 
BRANCH  14  15
ATOM     15  C   UNL     1       2.688  -0.274   2.590  0.00  0.00    +0.012 A 
ATOM     16  C   UNL     1       3.640  -1.270   2.699  0.00  0.00    +0.058 A 
ATOM     17  C   UNL     1       4.202  -1.562   3.930  0.00  0.00    +0.167 A 
ATOM     18  C   UNL     1       3.807  -0.850   5.061  0.00  0.00    +0.170 A 
ATOM     19  C   UNL     1       2.854   0.148   4.949  0.00  0.00    +0.095 A 
ATOM     20  C   UNL     1       2.298   0.441   3.713  0.00  0.00    +0.125 A 
ATOM     21  O   UNL     1       4.500  -1.323   6.138  0.00  0.00    -0.452 OA
ATOM     22  C   UNL     1       5.021  -2.602   5.730  0.00  0.00    +0.466 C 
ATOM     23  O   UNL     1       5.143  -2.481   4.300  0.00  0.00    -0.453 OA
BRANCH  20  24
ATOM     24  O   UNL     1       1.366   1.424   3.602  0.00  0.00    -0.506 OA
ATOM     25  H   UNL     1       0.456   1.120   3.723  0.00  0.00    +0.292 HD
ENDBRANCH  20  24
ENDBRANCH  14  15
ENDBRANCH   7  14
TORSDOF 4
