REMARK  Name = ZINC62778779
REMARK  3 active torsions:
REMARK  status: ('A' for Active; 'I' for Inactive)
REMARK    1  A    between atoms: C_6  and  C_7
REMARK    2  A    between atoms: C_7  and  C_9
REMARK    3  A    between atoms: C_7  and  O_22
REMARK                            x       y       z     vdW  Elec       q    Type
REMARK                         _______ _______ _______ _____ _____    ______ ____
ROOT
ATOM      1  C   UNL     1      -1.693  -1.104  -1.403  0.00  0.00    +0.003 A 
ATOM      2  C   UNL     1      -2.702  -0.301  -1.897  0.00  0.00    +0.035 A 
ATOM      3  C   UNL     1      -3.153  -0.480  -3.196  0.00  0.00    +0.067 A 
ATOM      4  C   UNL     1      -2.585  -1.472  -3.999  0.00  0.00    +0.068 A 
ATOM      5  C   UNL     1      -1.573  -2.274  -3.494  0.00  0.00    +0.043 A 
ATOM      6  C   UNL     1      -1.126  -2.084  -2.200  0.00  0.00    +0.026 A 
ATOM      7 BR   UNL     1       0.261  -3.171  -1.514  0.00  0.00    -0.050 Br
ATOM      8  N   UNL     1      -3.233  -1.413  -5.230  0.00  0.00    -0.306 N 
ATOM      9  H   UNL     1      -3.053  -1.983  -5.995  0.00  0.00    +0.170 HD
ATOM     10  C   UNL     1      -4.152  -0.431  -5.179  0.00  0.00    +0.325 A 
ATOM     11  O   UNL     1      -4.894  -0.116  -6.092  0.00  0.00    -0.247 OA
ATOM     12  N   UNL     1      -4.128   0.150  -3.965  0.00  0.00    -0.306 N 
ATOM     13  H   UNL     1      -4.694   0.883  -3.675  0.00  0.00    +0.170 HD
ENDROOT
BRANCH   1  14
ATOM     14  C   UNL     1      -1.203  -0.909   0.009  0.00  0.00    +0.193 C 
BRANCH  14  20
ATOM     15  C   UNL     1      -0.016   1.349   0.009  0.00  0.00    +0.047 A 
ATOM     16  C   UNL     1       1.308   1.797  -0.001  0.00  0.00    +0.134 A 
ATOM     17  N   UNL     1       2.094   0.751  -0.014  0.00  0.00    -0.182 NA
ATOM     18  N   UNL     1       1.293  -0.398  -0.012  0.00  0.00    -0.279 N 
ATOM     19  H   UNL     1       1.610  -1.315  -0.021  0.00  0.00    +0.189 HD
ATOM     20  C   UNL     1       0.002  -0.004   0.002  0.00  0.00    +0.069 A 
ENDBRANCH  14  20
BRANCH  14  21
ATOM     21  O   UNL     1      -2.239  -0.317   0.795  0.00  0.00    -0.381 OA
ATOM     22  H   UNL     1      -2.532   0.546   0.473  0.00  0.00    +0.211 HD
ENDBRANCH  14  21
ENDBRANCH   1  14
TORSDOF 3
