REMARK  Name = ZINC65408985
REMARK  9 active torsions:
REMARK  status: ('A' for Active; 'I' for Inactive)
REMARK    1  A    between atoms: C_1  and  C_2
REMARK    2  A    between atoms: C_4  and  C_8
REMARK    3  A    between atoms: C_5  and  C_7
REMARK    4  A    between atoms: C_8  and  C_9
REMARK    5  A    between atoms: C_8  and  N_10
REMARK    6  A    between atoms: N_13  and  C_14
REMARK    7  A    between atoms: C_18  and  N_20
REMARK    8  A    between atoms: C_21  and  C_23
REMARK    9  A    between atoms: C_27  and  C_28
REMARK                            x       y       z     vdW  Elec       q    Type
REMARK                         _______ _______ _______ _____ _____    ______ ____
ROOT
ATOM      1  C   UNL     1      -5.606  -4.785   1.925  0.00  0.00    +0.037 A 
ATOM      2  C   UNL     1      -5.050  -5.847   2.626  0.00  0.00    +0.026 A 
ATOM      3  C   UNL     1      -5.859  -6.856   3.112  0.00  0.00    +0.042 A 
ATOM      4  C   UNL     1      -7.225  -6.812   2.902  0.00  0.00    +0.145 A 
ATOM      5  C   UNL     1      -7.788  -5.751   2.201  0.00  0.00    +0.071 A 
ATOM      6  C   UNL     1      -6.977  -4.734   1.717  0.00  0.00    +0.049 A 
ATOM      7  F   UNL     1      -8.013  -7.800   3.379  0.00  0.00    -0.204 F 
ENDROOT
BRANCH   1  11
ATOM      8  N   UNL     1      -2.795  -3.086   0.417  0.00  0.00    -0.292 N 
ATOM      9  C   UNL     1      -3.549  -4.051   0.980  0.00  0.00    +0.304 C 
ATOM     10  O   UNL     1      -3.114  -5.182   1.078  0.00  0.00    -0.252 OA
ATOM     11  N   UNL     1      -4.785  -3.763   1.432  0.00  0.00    -0.269 N 
ATOM     12  H   UNL     1      -3.142  -2.184   0.339  0.00  0.00    +0.151 HD
ATOM     13  H   UNL     1      -5.106  -2.848   1.417  0.00  0.00    +0.156 HD
BRANCH   8  14
ATOM     14  C   UNL     1      -1.451  -3.399  -0.075  0.00  0.00    +0.105 C 
ATOM     15  C   UNL     1      -1.545  -3.951  -1.499  0.00  0.00    +0.033 C 
BRANCH  14  19
ATOM     16  C   UNL     1      -0.019   1.490  -0.053  0.00  0.00    +0.086 C 
ATOM     17  C   UNL     1      -0.003  -0.017  -0.065  0.00  0.00    +0.103 A 
ATOM     18  C   UNL     1      -1.085  -0.816  -0.058  0.00  0.00    +0.050 A 
ATOM     19  C   UNL     1      -0.612  -2.148  -0.075  0.00  0.00    +0.013 A 
ATOM     20  C   UNL     1       0.732  -2.083  -0.092  0.00  0.00    +0.107 A 
ATOM     21  O   UNL     1       1.095  -0.790  -0.092  0.00  0.00    -0.465 OA
ATOM     22  C   UNL     1       1.670  -3.262  -0.113  0.00  0.00    +0.086 C 
ENDBRANCH  14  19
ENDBRANCH   8  14
ENDBRANCH   1  11
BRANCH   5  23
ATOM     23  N   UNL     1      -9.171  -5.706   1.989  0.00  0.00    -0.279 N 
ATOM     24  C   UNL     1      -9.783  -4.522   1.788  0.00  0.00    +0.252 C 
ATOM     25  O   UNL     1      -9.154  -3.486   1.890  0.00  0.00    -0.270 OA
ATOM     26  H   UNL     1      -9.688  -6.526   1.987  0.00  0.00    +0.155 HD
BRANCH  24  27
ATOM     27  C   UNL     1     -11.216  -4.483   1.443  0.00  0.00    +0.078 A 
ATOM     28  C   UNL     1     -12.123  -5.629   1.286  0.00  0.00    +0.054 A 
ATOM     29  C   UNL     1     -13.321  -5.111   0.973  0.00  0.00    +0.196 A 
ATOM     30  O   UNL     1     -13.222  -3.773   0.927  0.00  0.00    -0.467 OA
ATOM     31  C   UNL     1     -11.978  -3.376   1.209  0.00  0.00    +0.114 A 
ATOM     32  C   UNL     1     -11.497  -1.949   1.257  0.00  0.00    +0.087 C 
ENDBRANCH  24  27
ENDBRANCH   5  23
TORSDOF 5
