REMARK  Name = ZINC06631850
REMARK  10 active torsions:
REMARK  status: ('A' for Active; 'I' for Inactive)
REMARK    1  A    between atoms: C_1  and  C_2
REMARK    2  A    between atoms: C_2  and  C_3
REMARK    3  A    between atoms: C_3  and  C_5
REMARK    4  A    between atoms: C_3  and  N_15
REMARK    5  A    between atoms: N_7  and  C_8
REMARK    6  A    between atoms: C_8  and  C_9
REMARK    7  A    between atoms: N_15  and  C_16
REMARK    8  A    between atoms: C_23  and  C_25
REMARK    9  A    between atoms: C_26  and  N_33
REMARK   10  A    between atoms: C_27  and  C_30
REMARK                            x       y       z     vdW  Elec       q    Type
REMARK                         _______ _______ _______ _____ _____    ______ ____
ROOT
ATOM      1  N   UNL     1       0.393  -0.053  -2.167  0.00  0.00    -0.255 N 
ATOM      2  C   UNL     1       0.481   0.839  -3.173  0.00  0.00    +0.261 C 
ATOM      3  O   UNL     1       1.513   1.460  -3.348  0.00  0.00    -0.269 OA
ENDROOT
BRANCH   1   4
ATOM      4  C   UNL     1      -0.825  -0.683  -1.895  0.00  0.00    +0.038 A 
ATOM      5  C   UNL     1      -1.630  -0.226  -0.859  0.00  0.00    +0.025 A 
ATOM      6  C   UNL     1      -2.833  -0.850  -0.593  0.00  0.00    +0.022 A 
ATOM      7  C   UNL     1      -3.237  -1.931  -1.358  0.00  0.00    +0.041 A 
ATOM      8  C   UNL     1      -2.437  -2.388  -2.391  0.00  0.00    +0.022 A 
ATOM      9  C   UNL     1      -1.236  -1.764  -2.664  0.00  0.00    +0.025 A 
ATOM     10 CL   UNL     1      -4.749  -2.713  -1.020  0.00  0.00    -0.084 Cl
ENDBRANCH   1   4
BRANCH   2  11
ATOM     11  C   UNL     1      -0.666   1.062  -4.056  0.00  0.00    +0.116 A 
ATOM     12  C   UNL     1      -0.760   1.857  -5.199  0.00  0.00    +0.076 A 
ATOM     13  C   UNL     1      -2.021   1.828  -5.792  0.00  0.00    +0.155 A 
ATOM     14  N   UNL     1      -2.972   1.092  -5.257  0.00  0.00    -0.203 NA
ATOM     15  S   UNL     1      -2.310   0.383  -3.963  0.00  0.00    +0.019 S 
BRANCH  13  16
ATOM     16  C   UNL     1      -2.287   2.616  -7.009  0.00  0.00    +0.262 C 
ATOM     17  O   UNL     1      -1.381   3.212  -7.558  0.00  0.00    -0.269 OA
ATOM     18  N   UNL     1      -3.535   2.675  -7.514  0.00  0.00    -0.324 N 
ATOM     19  H   UNL     1      -4.259   2.200  -7.076  0.00  0.00    +0.145 HD
ATOM     20  H   UNL     1      -3.711   3.194  -8.315  0.00  0.00    +0.145 HD
ENDBRANCH  13  16
BRANCH  12  21
ATOM     21  N   UNL     1       0.298   2.606  -5.696  0.00  0.00    -0.355 N 
ATOM     22  H   UNL     1       1.181   2.518  -5.303  0.00  0.00    +0.142 HD
ATOM     23  H   UNL     1       0.155   3.217  -6.435  0.00  0.00    +0.142 HD
ENDBRANCH  12  21
ENDBRANCH   2  11
BRANCH   1  24
ATOM     24  C   UNL     1       1.575  -0.362  -1.357  0.00  0.00    +0.167 C 
BRANCH  24  25
ATOM     25  C   UNL     1       1.938  -1.814  -1.533  0.00  0.00    +0.234 C 
ATOM     26  O   UNL     1       1.276  -2.521  -2.262  0.00  0.00    -0.274 OA
ATOM     27  N   UNL     1       2.999  -2.327  -0.879  0.00  0.00    -0.311 N 
ATOM     28  H   UNL     1       3.529  -1.761  -0.295  0.00  0.00    +0.149 HD
BRANCH  27  29
ATOM     29  C   UNL     1       3.353  -3.738  -1.050  0.00  0.00    +0.135 C 
BRANCH  29  30
ATOM     30  C   UNL     1       4.586  -4.061  -0.204  0.00  0.00    +0.135 C 
ATOM     31  C   UNL     1       5.038  -5.513  -0.470  0.00  0.00    +0.035 C 
ATOM     32  C   UNL     1       5.453  -5.994   0.947  0.00  0.00    +0.031 C 
ATOM     33  C   UNL     1       4.431  -5.231   1.827  0.00  0.00    +0.160 C 
ATOM     34  O   UNL     1       4.263  -3.954   1.187  0.00  0.00    -0.375 OA
ENDBRANCH  29  30
ENDBRANCH  27  29
ENDBRANCH  24  25
BRANCH  24  36
ATOM     35  C   UNL     1       1.067   1.415   0.325  0.00  0.00    +0.006 C 
ATOM     36  C   UNL     1       1.269  -0.087   0.117  0.00  0.00    +0.029 C 
ENDBRANCH  24  36
ENDBRANCH   1  24
TORSDOF 9
