REMARK  Name = ZINC00181144
REMARK  5 active torsions:
REMARK  status: ('A' for Active; 'I' for Inactive)
REMARK    1  A    between atoms: C_1  and  C_2
REMARK    2  A    between atoms: C_4  and  C_21
REMARK    3  A    between atoms: C_6  and  S_8
REMARK    4  A    between atoms: S_8  and  C_9
REMARK    5  A    between atoms: C_9  and  N_10
REMARK                            x       y       z     vdW  Elec       q    Type
REMARK                         _______ _______ _______ _____ _____    ______ ____
ROOT
ATOM      1  N   UNL     1      -2.478   5.638   1.210  0.00  0.00    -0.224 N 
ATOM      2  C   UNL     1      -3.370   4.678   1.513  0.00  0.00    +0.255 C 
ATOM      3  O   UNL     1      -3.779   3.825   0.751  0.00  0.00    -0.270 OA
ATOM      4  C   UNL     1      -3.768   4.833   2.928  0.00  0.00    +0.049 A 
ATOM      5  C   UNL     1      -4.631   4.151   3.771  0.00  0.00    +0.014 A 
ATOM      6  C   UNL     1      -4.784   4.571   5.083  0.00  0.00    +0.001 A 
ATOM      7  C   UNL     1      -4.081   5.664   5.556  0.00  0.00    +0.001 A 
ATOM      8  C   UNL     1      -3.215   6.355   4.724  0.00  0.00    +0.014 A 
ATOM      9  C   UNL     1      -3.052   5.947   3.410  0.00  0.00    +0.049 A 
ATOM     10  C   UNL     1      -2.240   6.429   2.273  0.00  0.00    +0.255 C 
ATOM     11  O   UNL     1      -1.483   7.379   2.293  0.00  0.00    -0.270 OA
ENDROOT
BRANCH   1  12
ATOM     12  C   UNL     1      -1.854   5.806  -0.104  0.00  0.00    +0.194 C 
BRANCH  12  13
ATOM     13  S   UNL     1      -0.148   5.204  -0.043  0.00  0.00    -0.066 S 
BRANCH  13  19
ATOM     14  C   UNL     1       1.586   0.390   0.021  0.00  0.00    +0.066 C 
ATOM     15  C   UNL     1       0.416   1.329  -0.119  0.00  0.00    +0.043 A 
ATOM     16  C   UNL     1      -0.860   0.832  -0.336  0.00  0.00    +0.046 A 
ATOM     17  C   UNL     1      -1.908   1.731  -0.466  0.00  0.00    +0.043 A 
ATOM     18  N   UNL     1      -1.663   3.027  -0.368  0.00  0.00    -0.227 NA
ATOM     19  C   UNL     1      -0.430   3.469  -0.159  0.00  0.00    +0.190 A 
ATOM     20  N   UNL     1       0.594   2.637  -0.037  0.00  0.00    -0.227 NA
ATOM     21  C   UNL     1      -3.310   1.236  -0.709  0.00  0.00    +0.066 C 
ENDBRANCH  13  19
ENDBRANCH  12  13
ENDBRANCH   1  12
TORSDOF 3
