REMARK  Name = ZINC19898565
REMARK  13 active torsions:
REMARK  status: ('A' for Active; 'I' for Inactive)
REMARK    1  A    between atoms: C_1  and  C_2
REMARK    2  A    between atoms: C_3  and  C_30
REMARK    3  A    between atoms: C_4  and  C_25
REMARK    4  A    between atoms: C_10  and  C_15
REMARK    5  A    between atoms: C_18  and  O_23
REMARK    6  A    between atoms: C_19  and  O_21
REMARK    7  A    between atoms: O_21  and  C_22
REMARK    8  A    between atoms: O_23  and  C_24
REMARK    9  A    between atoms: C_30  and  O_32
REMARK   10  A    between atoms: O_32  and  C_33
REMARK   11  A    between atoms: C_33  and  C_34
REMARK   12  A    between atoms: C_34  and  O_35
REMARK   13  A    between atoms: O_35  and  C_36
REMARK                            x       y       z     vdW  Elec       q    Type
REMARK                         _______ _______ _______ _____ _____    ______ ____
ROOT
ATOM      1  C   UNL     1       4.523   3.368  -2.543  0.00  0.00    +0.061 C 
ATOM      2  C   UNL     1       3.995   2.841  -1.234  0.00  0.00    +0.016 C 
ATOM      3  C   UNL     1       3.104   1.835  -1.230  0.00  0.00    +0.066 C 
ATOM      4  C   UNL     1       2.550   1.290   0.054  0.00  0.00    +0.099 C 
ATOM      5  C   UNL     1       3.408   1.691   1.227  0.00  0.00    +0.024 C 
ATOM      6  C   UNL     1       4.293   2.704   1.120  0.00  0.00    +0.016 C 
ATOM      7  N   UNL     1       4.426   3.389  -0.058  0.00  0.00    -0.321 N 
ATOM      8  C   UNL     1       5.160   3.106   2.288  0.00  0.00    +0.059 C 
ATOM      9  C   UNL     1       4.418   2.828   3.597  0.00  0.00    +0.032 C 
ATOM     10  C   UNL     1       4.067   1.338   3.650  0.00  0.00    +0.088 C 
ATOM     11  C   UNL     1       3.259   0.982   2.432  0.00  0.00    +0.162 C 
ATOM     12  O   UNL     1       2.463   0.065   2.491  0.00  0.00    -0.292 OA
ATOM     13  H   UNL     1       4.885   4.388  -0.053  0.00  0.00    +0.152 HD
ENDROOT
BRANCH   9  14
ATOM     14  C   UNL     1       5.298   3.183   4.768  0.00  0.00    -0.040 A 
ATOM     15  C   UNL     1       6.522   2.559   4.925  0.00  0.00    +0.008 A 
ATOM     16  C   UNL     1       7.333   2.882   5.997  0.00  0.00    +0.049 A 
ATOM     17  C   UNL     1       6.920   3.832   6.917  0.00  0.00    +0.161 A 
ATOM     18  C   UNL     1       5.689   4.460   6.759  0.00  0.00    +0.162 A 
ATOM     19  C   UNL     1       4.883   4.136   5.679  0.00  0.00    +0.053 A 
BRANCH  18  20
ATOM     20  O   UNL     1       5.279   5.394   7.659  0.00  0.00    -0.491 OA
ATOM     21  C   UNL     1       4.004   5.997   7.433  0.00  0.00    +0.277 C 
ENDBRANCH  18  20
BRANCH  17  22
ATOM     22  O   UNL     1       7.717   4.150   7.972  0.00  0.00    -0.491 OA
ATOM     23  C   UNL     1       8.968   3.466   8.070  0.00  0.00    +0.277 C 
ENDBRANCH  17  22
ENDBRANCH   9  14
BRANCH   4  24
ATOM     24  C   UNL     1       1.155   1.824   0.256  0.00  0.00    +0.002 A 
ATOM     25  C   UNL     1      -0.011   1.143   0.373  0.00  0.00    +0.012 A 
ATOM     26  C   UNL     1      -1.186   1.850   0.549  0.00  0.00    +0.008 A 
ATOM     27  C   UNL     1      -1.135   3.203   0.612  0.00  0.00    +0.045 A 
ATOM     28  S   UNL     1       0.610   3.518   0.405  0.00  0.00    -0.101 S 
ENDBRANCH   4  24
BRANCH   3  29
ATOM     29  C   UNL     1       2.679   1.279  -2.459  0.00  0.00    +0.338 C 
ATOM     30  O   UNL     1       3.086   0.186  -2.806  0.00  0.00    -0.245 OA
BRANCH  29  31
ATOM     31  O   UNL     1       1.823   1.962  -3.248  0.00  0.00    -0.459 OA
BRANCH  31  32
ATOM     32  C   UNL     1       1.436   1.341  -4.476  0.00  0.00    +0.260 C 
BRANCH  32  33
ATOM     33  C   UNL     1       0.470   2.257  -5.229  0.00  0.00    +0.200 C 
BRANCH  33  34
ATOM     34  O   UNL     1       1.148   3.456  -5.609  0.00  0.00    -0.380 OA
ATOM     35  C   UNL     1       0.330   4.385  -6.322  0.00  0.00    +0.194 C 
ENDBRANCH  33  34
ENDBRANCH  32  33
ENDBRANCH  31  32
ENDBRANCH  29  31
ENDBRANCH   3  29
TORSDOF 9
