REMARK  Name = ZINC10266587
REMARK  10 active torsions:
REMARK  status: ('A' for Active; 'I' for Inactive)
REMARK    1  A    between atoms: C_1  and  C_2
REMARK    2  A    between atoms: C_2  and  C_3
REMARK    3  A    between atoms: C_3  and  C_4
REMARK    4  A    between atoms: C_4  and  C_5
REMARK    5  A    between atoms: C_5  and  N_6
REMARK    6  A    between atoms: C_19  and  S_20
REMARK    7  A    between atoms: S_20  and  C_21
REMARK    8  A    between atoms: C_21  and  C_22
REMARK    9  A    between atoms: N_24  and  N_25
REMARK   10  A    between atoms: C_26  and  C_28
REMARK                            x       y       z     vdW  Elec       q    Type
REMARK                         _______ _______ _______ _____ _____    ______ ____
ROOT
ATOM      1  N   UNL     1      11.152   0.873  -0.098  0.00  0.00    -0.277 N 
ATOM      2  C   UNL     1      11.725   2.094  -0.114  0.00  0.00    +0.263 A 
ATOM      3  O   UNL     1      12.936   2.209  -0.129  0.00  0.00    -0.267 OA
ATOM      4  C   UNL     1      10.858   3.286  -0.102  0.00  0.00    +0.064 A 
ATOM      5  C   UNL     1      11.396   4.572  -0.108  0.00  0.00    +0.015 A 
ATOM      6  C   UNL     1      10.553   5.663  -0.097  0.00  0.00    +0.001 A 
ATOM      7  C   UNL     1       9.179   5.487  -0.079  0.00  0.00    +0.002 A 
ATOM      8  C   UNL     1       8.634   4.218  -0.073  0.00  0.00    +0.027 A 
ATOM      9  C   UNL     1       9.466   3.109  -0.084  0.00  0.00    +0.064 A 
ATOM     10  N   UNL     1       8.942   1.818  -0.079  0.00  0.00    -0.256 N 
ATOM     11  C   UNL     1       9.772   0.731  -0.087  0.00  0.00    +0.240 A 
ATOM     12  N   UNL     1       9.021  -0.347  -0.086  0.00  0.00    -0.109 NA
ATOM     13  N   UNL     1       7.680   0.056  -0.071  0.00  0.00    -0.120 NA
ATOM     14  C   UNL     1       7.650   1.366  -0.064  0.00  0.00    +0.198 A 
ENDROOT
BRANCH   1  15
ATOM     15  C   UNL     1      11.999  -0.322  -0.112  0.00  0.00    +0.128 C 
BRANCH  15  16
ATOM     16  C   UNL     1      12.282  -0.730  -1.560  0.00  0.00    +0.022 C 
BRANCH  16  17
ATOM     17  C   UNL     1      13.167  -1.977  -1.575  0.00  0.00    +0.001 C 
BRANCH  17  19
ATOM     18  C   UNL     1      14.335  -3.633  -3.037  0.00  0.00    +0.004 C 
ATOM     19  C   UNL     1      13.450  -2.385  -3.022  0.00  0.00    -0.003 C 
ENDBRANCH  17  19
ENDBRANCH  16  17
ENDBRANCH  15  16
ENDBRANCH   1  15
BRANCH  14  20
ATOM     20  S   UNL     1       6.202   2.369  -0.044  0.00  0.00    -0.076 S 
BRANCH  20  21
ATOM     21  C   UNL     1       4.839   1.171  -0.038  0.00  0.00    +0.174 C 
BRANCH  21  22
ATOM     22  C   UNL     1       3.524   1.907  -0.021  0.00  0.00    +0.239 C 
ATOM     23  O   UNL     1       3.508   3.120  -0.015  0.00  0.00    -0.273 OA
ATOM     24  N   UNL     1       2.366   1.217  -0.014  0.00  0.00    -0.233 N 
ATOM     25  H   UNL     1       2.379   0.247  -0.019  0.00  0.00    +0.173 HD
BRANCH  24  26
ATOM     26  N   UNL     1       1.143   1.901   0.001  0.00  0.00    -0.230 N 
ATOM     27  C   UNL     1      -0.014   1.212   0.009  0.00  0.00    +0.260 C 
ATOM     28  O   UNL     1       0.002  -0.004   0.002  0.00  0.00    -0.269 OA
ATOM     29  H   UNL     1       1.130   2.871   0.007  0.00  0.00    +0.173 HD
BRANCH  27  30
ATOM     30  C   UNL     1      -1.304   1.933   0.019  0.00  0.00    +0.038 A 
ATOM     31  C   UNL     1      -1.325   3.329   0.032  0.00  0.00    +0.016 A 
ATOM     32  C   UNL     1      -2.531   3.997   0.036  0.00  0.00    +0.039 A 
ATOM     33  C   UNL     1      -3.721   3.285   0.038  0.00  0.00    +0.123 A 
ATOM     34  C   UNL     1      -3.705   1.898   0.030  0.00  0.00    +0.039 A 
ATOM     35  C   UNL     1      -2.505   1.220   0.021  0.00  0.00    +0.016 A 
ATOM     36  F   UNL     1      -4.900   3.944   0.048  0.00  0.00    -0.205 F 
ENDBRANCH  27  30
ENDBRANCH  24  26
ENDBRANCH  21  22
ENDBRANCH  20  21
ENDBRANCH  14  20
TORSDOF 9
