REMARK  Name = ZINC08772907
REMARK  16 active torsions:
REMARK  status: ('A' for Active; 'I' for Inactive)
REMARK    1  A    between atoms: C_1  and  C_2
REMARK    2  A    between atoms: C_2  and  C_3
REMARK    3  A    between atoms: C_3  and  C_4
REMARK    4  A    between atoms: C_3  and  C_5
REMARK    5  A    between atoms: C_3  and  N_6
REMARK    6  A    between atoms: C_7  and  C_9
REMARK    7  A    between atoms: C_9  and  C_11
REMARK    8  A    between atoms: C_9  and  N_19
REMARK    9  A    between atoms: C_14  and  O_17
REMARK   10  A    between atoms: O_17  and  C_18
REMARK   11  A    between atoms: N_19  and  C_20
REMARK   12  A    between atoms: C_20  and  C_21
REMARK   13  A    between atoms: C_26  and  C_28
REMARK   14  A    between atoms: C_28  and  C_29
REMARK   15  A    between atoms: C_29  and  C_30
REMARK   16  A    between atoms: C_35  and  C_38
REMARK                            x       y       z     vdW  Elec       q    Type
REMARK                         _______ _______ _______ _____ _____    ______ ____
ROOT
ATOM      1  N   UNL     1      -3.773  -4.412  -0.103  0.00  0.00    -0.279 N 
ATOM      2  C   UNL     1      -4.088  -5.688  -0.402  0.00  0.00    +0.217 C 
ATOM      3  O   UNL     1      -3.252  -6.560  -0.298  0.00  0.00    -0.276 OA
ENDROOT
BRANCH   1   4
ATOM      4  C   UNL     1      -2.420  -4.079   0.347  0.00  0.00    +0.193 C 
BRANCH   4   5
ATOM      5  C   UNL     1      -1.429  -4.438  -0.730  0.00  0.00    -0.018 A 
ATOM      6  C   UNL     1      -1.808  -4.394  -2.059  0.00  0.00    +0.009 A 
ATOM      7  C   UNL     1      -0.902  -4.723  -3.049  0.00  0.00    +0.046 A 
ATOM      8  C   UNL     1       0.389  -5.097  -2.708  0.00  0.00    +0.120 A 
ATOM      9  C   UNL     1       0.768  -5.140  -1.374  0.00  0.00    +0.046 A 
ATOM     10  C   UNL     1      -0.141  -4.805  -0.389  0.00  0.00    +0.009 A 
BRANCH   8  11
ATOM     11  O   UNL     1       1.282  -5.422  -3.680  0.00  0.00    -0.495 OA
ATOM     12  C   UNL     1       2.594  -5.798  -3.256  0.00  0.00    +0.277 C 
ENDBRANCH   8  11
ENDBRANCH   4   5
BRANCH   4  14
ATOM     13  N   UNL     1      -1.902  -2.172   1.836  0.00  0.00    -0.308 N 
ATOM     14  C   UNL     1      -2.336  -2.602   0.634  0.00  0.00    +0.239 C 
ATOM     15  O   UNL     1      -2.659  -1.799  -0.216  0.00  0.00    -0.273 OA
ATOM     16  H   UNL     1      -1.643  -2.814   2.516  0.00  0.00    +0.149 HD
BRANCH  13  17
ATOM     17  C   UNL     1      -1.820  -0.737   2.116  0.00  0.00    +0.029 C 
ATOM     18  C   UNL     1      -3.210  -0.111   1.979  0.00  0.00    +0.031 C 
ATOM     19  C   UNL     1      -0.864  -0.077   1.120  0.00  0.00    +0.031 C 
BRANCH  17  21
ATOM     20  C   UNL     1      -1.217   0.977   3.831  0.00  0.00    +0.006 C 
ATOM     21  C   UNL     1      -1.302  -0.523   3.539  0.00  0.00    +0.022 C 
ENDBRANCH  17  21
ENDBRANCH  13  17
ENDBRANCH   4  14
ENDBRANCH   1   4
BRANCH   1  22
ATOM     22  C   UNL     1      -4.784  -3.359  -0.229  0.00  0.00    +0.183 C 
BRANCH  22  23
ATOM     23  C   UNL     1      -4.832  -2.876  -1.655  0.00  0.00    +0.122 A 
ATOM     24  C   UNL     1      -5.697  -3.290  -2.598  0.00  0.00    +0.046 A 
ATOM     25  C   UNL     1      -5.386  -2.580  -3.780  0.00  0.00    +0.041 A 
ATOM     26  C   UNL     1      -4.348  -1.775  -3.490  0.00  0.00    +0.195 A 
ATOM     27  O   UNL     1      -4.020  -1.954  -2.199  0.00  0.00    -0.466 OA
ENDBRANCH  22  23
ENDBRANCH   1  22
BRANCH   2  28
ATOM     28  C   UNL     1      -5.481  -6.032  -0.865  0.00  0.00    +0.105 C 
BRANCH  28  29
ATOM     29  C   UNL     1      -5.572  -7.535  -1.136  0.00  0.00    +0.105 C 
BRANCH  29  30
ATOM     30  C   UNL     1      -6.965  -7.878  -1.599  0.00  0.00    +0.219 C 
ATOM     31  O   UNL     1      -7.801  -7.006  -1.702  0.00  0.00    -0.275 OA
ATOM     32  N   UNL     1      -7.280  -9.154  -1.898  0.00  0.00    -0.268 N 
ATOM     33  C   UNL     1      -8.569  -9.472  -2.326  0.00  0.00    +0.168 A 
ATOM     34  C   UNL     1      -9.636  -8.562  -2.498  0.00  0.00    +0.091 A 
ATOM     35  C   UNL     1     -10.709  -9.253  -2.921  0.00  0.00    +0.136 A 
ATOM     36  O   UNL     1     -10.362 -10.546  -3.022  0.00  0.00    -0.358 OA
ATOM     37  N   UNL     1      -9.002 -10.664  -2.647  0.00  0.00    -0.063 NA
ATOM     38  C   UNL     1     -12.067  -8.676  -3.230  0.00  0.00    +0.089 C 
ATOM     39  H   UNL     1      -6.611  -9.851  -1.815  0.00  0.00    +0.156 HD
ENDBRANCH  29  30
ENDBRANCH  28  29
ENDBRANCH   2  28
TORSDOF 11
