REMARK  Name = ZINC00996207
REMARK  8 active torsions:
REMARK  status: ('A' for Active; 'I' for Inactive)
REMARK    1  A    between atoms: C_1  and  C_2
REMARK    2  A    between atoms: C_2  and  O_3
REMARK    3  A    between atoms: O_3  and  C_4
REMARK    4  A    between atoms: C_4  and  C_6
REMARK    5  A    between atoms: C_10  and  N_11
REMARK    6  A    between atoms: C_12  and  C_14
REMARK    7  A    between atoms: C_17  and  N_21
REMARK    8  A    between atoms: C_18  and  C_20
REMARK                            x       y       z     vdW  Elec       q    Type
REMARK                         _______ _______ _______ _____ _____    ______ ____
ROOT
ATOM      1  N   UNL     1       2.147   3.359  -0.391  0.00  0.00    -0.275 N 
ATOM      2  C   UNL     1       1.514   4.548  -0.428  0.00  0.00    +0.249 C 
ATOM      3  O   UNL     1       0.319   4.594  -0.648  0.00  0.00    -0.270 OA
ATOM      4  H   UNL     1       3.100   3.322  -0.215  0.00  0.00    +0.156 HD
ENDROOT
BRANCH   1   9
ATOM      5  C   UNL     1       1.905   0.885  -0.606  0.00  0.00    +0.091 A 
ATOM      6  C   UNL     1       0.937  -0.181  -0.861  0.00  0.00    -0.021 A 
ATOM      7  C   UNL     1      -0.326   0.232  -1.069  0.00  0.00    -0.004 A 
ATOM      8  S   UNL     1      -0.252   2.002  -0.934  0.00  0.00    -0.077 S 
ATOM      9  C   UNL     1       1.437   2.189  -0.605  0.00  0.00    +0.087 A 
ATOM     10  C   UNL     1      -1.262  -0.919  -1.320  0.00  0.00    +0.043 C 
ATOM     11  C   UNL     1      -0.495  -2.161  -0.815  0.00  0.00    +0.010 C 
ATOM     12  C   UNL     1       0.971  -1.707  -0.961  0.00  0.00    +0.037 C 
BRANCH   5  13
ATOM     13  C   UNL     1       3.317   0.586  -0.361  0.00  0.00    +0.342 C 
ATOM     14  O   UNL     1       4.098   0.532  -1.292  0.00  0.00    -0.245 OA
BRANCH  13  15
ATOM     15  O   UNL     1       3.752   0.370   0.897  0.00  0.00    -0.461 OA
BRANCH  15  17
ATOM     16  C   UNL     1       5.468  -0.137   2.550  0.00  0.00    +0.048 C 
ATOM     17  C   UNL     1       5.165   0.078   1.066  0.00  0.00    +0.229 C 
ENDBRANCH  15  17
ENDBRANCH  13  15
ENDBRANCH   5  13
ENDBRANCH   1   9
BRANCH   2  18
ATOM     18  C   UNL     1       2.272   5.796  -0.200  0.00  0.00    +0.037 A 
ATOM     19  C   UNL     1       3.643   5.747   0.059  0.00  0.00    +0.015 A 
ATOM     20  C   UNL     1       4.345   6.916   0.266  0.00  0.00    +0.034 A 
ATOM     21  C   UNL     1       3.692   8.135   0.228  0.00  0.00    +0.129 A 
ATOM     22  C   UNL     1       2.333   8.191  -0.024  0.00  0.00    -0.020 A 
ATOM     23  C   UNL     1       1.619   7.030  -0.237  0.00  0.00    +0.018 A 
ATOM     24  C   UNL     1       1.630   9.524  -0.064  0.00  0.00    +0.046 C 
BRANCH  21  25
ATOM     25  N   UNL     1       4.451   9.385   0.456  0.00  0.00    +0.057 N 
ATOM     26  O   UNL     1       5.588   9.494   0.032  0.00  0.00    -0.126 OA
ATOM     27  O   UNL     1       3.939  10.305   1.068  0.00  0.00    -0.126 OA
ENDBRANCH  21  25
ENDBRANCH   2  18
TORSDOF 6
