REMARK  Name = ZINC02425481
REMARK  5 active torsions:
REMARK  status: ('A' for Active; 'I' for Inactive)
REMARK    1  A    between atoms: C_1  and  C_2
REMARK    2  A    between atoms: C_2  and  S_3
REMARK    3  A    between atoms: S_3  and  C_4
REMARK    4  A    between atoms: C_15  and  C_17
REMARK    5  A    between atoms: C_15  and  C_18
REMARK                            x       y       z     vdW  Elec       q    Type
REMARK                         _______ _______ _______ _____ _____    ______ ____
ROOT
ATOM      1  C   UNL     1       0.003  -0.004   0.042  0.00  0.00    +0.191 A 
ATOM      2  N   UNL     1       1.148  -0.677   0.026  0.00  0.00    -0.206 NA
ATOM      3  C   UNL     1       2.320  -0.068  -0.020  0.00  0.00    +0.134 A 
ATOM      4  C   UNL     1       2.365   1.355  -0.054  0.00  0.00    +0.051 A 
ATOM      5  C   UNL     1       3.532   2.234  -0.107  0.00  0.00    -0.020 A 
ATOM      6  C   UNL     1       3.300   3.563  -0.132  0.00  0.00    +0.021 A 
ATOM      7  S   UNL     1       1.538   3.724  -0.088  0.00  0.00    -0.071 S 
ATOM      8  C   UNL     1       1.113   2.002  -0.035  0.00  0.00    +0.115 A 
ATOM      9  N   UNL     1      -0.016   1.322   0.012  0.00  0.00    -0.215 NA
ATOM     10  C   UNL     1       4.336   4.643  -0.185  0.00  0.00    +0.203 C 
ATOM     11  O   UNL     1       5.609   4.049   0.114  0.00  0.00    -0.368 OA
ATOM     12  C   UNL     1       5.870   2.856  -0.629  0.00  0.00    +0.068 C 
ATOM     13  C   UNL     1       4.970   1.720  -0.135  0.00  0.00    +0.071 C 
ATOM     14  C   UNL     1       5.597   3.112  -2.113  0.00  0.00    +0.041 C 
ATOM     15  C   UNL     1       7.335   2.454  -0.446  0.00  0.00    +0.041 C 
ATOM     16  N   UNL     1       3.490  -0.805  -0.035  0.00  0.00    -0.310 N 
ATOM     17  C   UNL     1       3.544  -1.683  -1.213  0.00  0.00    +0.134 C 
ATOM     18  C   UNL     1       4.878  -2.434  -1.222  0.00  0.00    +0.178 C 
ATOM     19  O   UNL     1       5.019  -3.160   0.002  0.00  0.00    -0.377 OA
ATOM     20  C   UNL     1       4.972  -2.336   1.169  0.00  0.00    +0.178 C 
ATOM     21  C   UNL     1       3.639  -1.584   1.203  0.00  0.00    +0.134 C 
ENDROOT
BRANCH   1  22
ATOM     22  S   UNL     1      -1.520  -0.889   0.104  0.00  0.00    -0.086 S 
BRANCH  22  24
ATOM     23  C   UNL     1      -4.118  -0.046   0.155  0.00  0.00    +0.016 C 
ATOM     24  C   UNL     1      -2.687   0.494   0.104  0.00  0.00    +0.074 C 
ENDBRANCH  22  24
ENDBRANCH   1  22
TORSDOF 2
