REMARK  Name = ZINC36694535
REMARK  7 active torsions:
REMARK  status: ('A' for Active; 'I' for Inactive)
REMARK    1  A    between atoms: C_1  and  C_2
REMARK    2  A    between atoms: C_3  and  C_15
REMARK    3  A    between atoms: N_5  and  C_7
REMARK    4  A    between atoms: N_17  and  C_18
REMARK    5  A    between atoms: C_18  and  C_19
REMARK    6  A    between atoms: C_19  and  C_21
REMARK    7  A    between atoms: C_19  and  N_28
REMARK                            x       y       z     vdW  Elec       q    Type
REMARK                         _______ _______ _______ _____ _____    ______ ____
ROOT
ATOM      1  C   UNL     1       0.245   0.463  -2.747  0.00  0.00    +0.249 C 
ATOM      2  O   UNL     1       1.184   0.804  -3.441  0.00  0.00    -0.270 OA
ATOM      3  N   UNL     1      -0.965   0.261  -3.304  0.00  0.00    -0.312 N 
ATOM      4  H   UNL     1      -1.714  -0.011  -2.750  0.00  0.00    +0.149 HD
ENDROOT
BRANCH   1   7
ATOM      5  C   UNL     1      -0.118   2.693  -0.518  0.00  0.00    +0.068 C 
ATOM      6  C   UNL     1       0.273   1.254  -0.295  0.00  0.00    +0.074 A 
ATOM      7  C   UNL     1       0.431   0.272  -1.299  0.00  0.00    +0.096 A 
ATOM      8  C   UNL     1       0.793  -0.903  -0.665  0.00  0.00    +0.145 A 
ATOM      9  N   UNL     1       0.852  -0.646   0.654  0.00  0.00    -0.220 N 
ATOM     10  N   UNL     1       0.530   0.701   0.858  0.00  0.00    -0.170 NA
ATOM     11 CL   UNL     1       1.113  -2.428  -1.431  0.00  0.00    -0.061 Cl
BRANCH   9  12
ATOM     12  C   UNL     1       1.183  -1.569   1.656  0.00  0.00    +0.067 A 
ATOM     13  C   UNL     1       0.804  -2.899   1.529  0.00  0.00    +0.030 A 
ATOM     14  C   UNL     1       1.132  -3.807   2.516  0.00  0.00    +0.040 A 
ATOM     15  C   UNL     1       1.839  -3.393   3.632  0.00  0.00    +0.124 A 
ATOM     16  C   UNL     1       2.218  -2.067   3.761  0.00  0.00    +0.040 A 
ATOM     17  C   UNL     1       1.897  -1.157   2.773  0.00  0.00    +0.030 A 
ATOM     18  F   UNL     1       2.158  -4.283   4.597  0.00  0.00    -0.205 F 
ENDBRANCH   9  12
ENDBRANCH   1   7
BRANCH   3  19
ATOM     19  C   UNL     1      -1.151   0.452  -4.744  0.00  0.00    +0.094 C 
BRANCH  19  20
ATOM     20  C   UNL     1      -2.631   0.285  -5.095  0.00  0.00    -0.019 C 
BRANCH  20  21
ATOM     21  C   UNL     1      -3.055  -1.135  -4.821  0.00  0.00    -0.041 A 
ATOM     22  C   UNL     1      -3.742  -1.440  -3.661  0.00  0.00    +0.003 A 
ATOM     23  C   UNL     1      -4.131  -2.742  -3.410  0.00  0.00    +0.000 A 
ATOM     24  C   UNL     1      -3.834  -3.740  -4.319  0.00  0.00    +0.001 A 
ATOM     25  C   UNL     1      -3.147  -3.437  -5.479  0.00  0.00    +0.020 A 
ATOM     26  C   UNL     1      -2.762  -2.132  -5.734  0.00  0.00    +0.043 A 
ATOM     27 CL   UNL     1      -1.906  -1.749  -7.194  0.00  0.00    -0.083 Cl
ENDBRANCH  20  21
BRANCH  20  28
ATOM     28  N   UNL     1      -3.434   1.203  -4.276  0.00  0.00    +0.385 N 
ATOM     29  C   UNL     1      -3.005   2.606  -4.509  0.00  0.00    -0.078 C 
ATOM     30  C   UNL     1      -4.239   3.431  -4.066  0.00  0.00    -0.020 C 
ATOM     31  C   UNL     1      -5.426   2.564  -4.546  0.00  0.00    -0.020 C 
ATOM     32  C   UNL     1      -4.854   1.141  -4.685  0.00  0.00    -0.078 C 
ATOM     33  H   UNL     1      -3.343   0.968  -3.299  0.00  0.00    -0.081 HD
ENDBRANCH  20  28
ENDBRANCH  19  20
ENDBRANCH   3  19
TORSDOF 6
