REMARK  Name = ZINC09963359
REMARK  10 active torsions:
REMARK  status: ('A' for Active; 'I' for Inactive)
REMARK    1  A    between atoms: C_1  and  C_2
REMARK    2  A    between atoms: C_7  and  C_37
REMARK    3  A    between atoms: C_9  and  C_10
REMARK    4  A    between atoms: C_9  and  N_76
REMARK    5  A    between atoms: C_10  and  C_11
REMARK    6  A    between atoms: C_11  and  N_12
REMARK    7  A    between atoms: C_13  and  C_15
REMARK    8  A    between atoms: C_15  and  N_16
REMARK    9  A    between atoms: C_19  and  S_27
REMARK   10  A    between atoms: S_27  and  N_30
REMARK                            x       y       z     vdW  Elec       q    Type
REMARK                         _______ _______ _______ _____ _____    ______ ____
ROOT
ATOM      1  N   UNL     1       2.564  -6.438   5.771  0.00  0.00    -0.256 N 
ATOM      2  C   UNL     1       3.618  -7.063   5.090  0.00  0.00    +0.081 A 
ATOM      3  C   UNL     1       4.773  -6.365   4.779  0.00  0.00    +0.055 A 
ATOM      4  C   UNL     1       5.800  -7.001   4.106  0.00  0.00    +0.107 A 
ATOM      5  C   UNL     1       5.678  -8.330   3.744  0.00  0.00    +0.032 A 
ATOM      6  C   UNL     1       4.527  -9.032   4.052  0.00  0.00    +0.049 A 
ATOM      7  C   UNL     1       3.494  -8.403   4.726  0.00  0.00    +0.143 A 
ATOM      8  O   UNL     1       2.357  -9.079   5.039  0.00  0.00    -0.481 OA
ATOM      9  C   UNL     1       1.700  -8.705   6.253  0.00  0.00    +0.325 C 
ATOM     10  C   UNL     1       1.606  -7.203   6.338  0.00  0.00    +0.258 C 
ATOM     11  O   UNL     1       0.671  -6.683   6.910  0.00  0.00    -0.271 OA
ENDROOT
BRANCH   4  12
ATOM     12  S   UNL     1       7.271  -6.115   3.709  0.00  0.00    +0.061 S 
ATOM     13  O   UNL     1       7.858  -6.779   2.599  0.00  0.00    -0.153 OA
ATOM     14  O   UNL     1       6.918  -4.738   3.674  0.00  0.00    -0.153 OA
BRANCH  12  15
ATOM     15  N   UNL     1       8.315  -6.303   4.980  0.00  0.00    -0.177 NA
ATOM     16  C   UNL     1       8.277  -5.340   6.057  0.00  0.00    +0.109 C 
ATOM     17  C   UNL     1       9.234  -4.169   5.748  0.00  0.00    +0.017 C 
ATOM     18  C   UNL     1      10.633  -4.609   5.865  0.00  0.00    +0.001 C 
ATOM     19  C   UNL     1      11.033  -5.699   4.874  0.00  0.00    +0.001 C 
ATOM     20  C   UNL     1      10.660  -7.048   5.436  0.00  0.00    +0.017 C 
ATOM     21  C   UNL     1       9.250  -7.446   4.964  0.00  0.00    +0.109 C 
ENDBRANCH  12  15
ENDBRANCH   4  12
BRANCH   1  22
ATOM     22  C   UNL     1       2.506  -4.977   5.871  0.00  0.00    +0.209 C 
BRANCH  22  24
ATOM     23  N   UNL     1       1.555  -3.094   4.579  0.00  0.00    -0.314 N 
ATOM     24  C   UNL     1       1.738  -4.424   4.698  0.00  0.00    +0.231 C 
ATOM     25  O   UNL     1       1.284  -5.175   3.862  0.00  0.00    -0.274 OA
ATOM     26  H   UNL     1       1.918  -2.493   5.249  0.00  0.00    +0.149 HD
BRANCH  23  27
ATOM     27  C   UNL     1       0.809  -2.556   3.439  0.00  0.00    +0.102 C 
BRANCH  27  28
ATOM     28  C   UNL     1       0.748  -1.031   3.544  0.00  0.00    +0.000 C 
BRANCH  28  29
ATOM     29  C   UNL     1      -0.032  -0.469   2.353  0.00  0.00    -0.077 C 
BRANCH  29  37
ATOM     30  C   UNL     1       0.147   1.091   0.018  0.00  0.00    -0.013 C 
ATOM     31  C   UNL     1      -0.648   1.585   1.229  0.00  0.00    -0.071 C 
ATOM     32  C   UNL     1      -0.559   3.111   1.310  0.00  0.00    -0.016 C 
ATOM     33  C   UNL     1      -1.339   3.598   2.534  0.00  0.00    -0.003 C 
ATOM     34  C   UNL     1      -0.770   2.933   3.790  0.00  0.00    -0.016 C 
ATOM     35  C   UNL     1      -0.852   1.412   3.638  0.00  0.00    -0.071 C 
ATOM     36  C   UNL     1      -2.315   0.995   3.475  0.00  0.00    -0.013 C 
ATOM     37  N   UNL     1      -0.062   1.005   2.456  0.00  0.00    +0.383 N 
ATOM     38  H   UNL     1       0.899   1.351   2.563  0.00  0.00    -0.081 HD
ENDBRANCH  29  37
ENDBRANCH  28  29
ENDBRANCH  27  28
ENDBRANCH  23  27
ENDBRANCH  22  24
ENDBRANCH   1  22
TORSDOF 8
