REMARK  Name = ZINC02222958
REMARK  12 active torsions:
REMARK  status: ('A' for Active; 'I' for Inactive)
REMARK    1  A    between atoms: C_1  and  C_2
REMARK    2  A    between atoms: C_2  and  N_64
REMARK    3  A    between atoms: C_3  and  C_4
REMARK    4  A    between atoms: C_3  and  N_64
REMARK    5  A    between atoms: C_5  and  C_6
REMARK    6  A    between atoms: C_5  and  N_64
REMARK    7  A    between atoms: C_6  and  C_7
REMARK    8  A    between atoms: C_7  and  N_8
REMARK    9  A    between atoms: C_9  and  C_24
REMARK   10  A    between atoms: C_27  and  C_30
REMARK   11  A    between atoms: C_30  and  C_31
REMARK   12  A    between atoms: C_30  and  C_32
REMARK                            x       y       z     vdW  Elec       q    Type
REMARK                         _______ _______ _______ _____ _____    ______ ____
ROOT
ATOM      1  N   UNL     1       2.121  -2.828  -0.440  0.00  0.00    -0.284 N 
ATOM      2  C   UNL     1       0.707  -3.046  -0.766  0.00  0.00    +0.144 C 
ATOM      3  C   UNL     1       0.061  -1.685  -0.744  0.00  0.00    +0.072 A 
ATOM      4  C   UNL     1      -1.313  -1.234  -0.983  0.00  0.00    +0.199 A 
ATOM      5  O   UNL     1      -2.204  -2.016  -1.264  0.00  0.00    -0.287 OA
ATOM      6  C   UNL     1      -1.563   0.216  -0.868  0.00  0.00    +0.064 A 
ATOM      7  C   UNL     1      -2.831   0.755  -1.081  0.00  0.00    +0.015 A 
ATOM      8  C   UNL     1      -3.021   2.104  -0.958  0.00  0.00    +0.001 A 
ATOM      9  C   UNL     1      -1.958   2.936  -0.636  0.00  0.00    +0.004 A 
ATOM     10  C   UNL     1      -0.697   2.421  -0.428  0.00  0.00    +0.047 A 
ATOM     11  C   UNL     1      -0.480   1.051  -0.541  0.00  0.00    +0.139 A 
ATOM     12  O   UNL     1       0.745   0.532  -0.340  0.00  0.00    -0.450 OA
ATOM     13  C   UNL     1       1.024  -0.783  -0.435  0.00  0.00    +0.199 A 
ATOM     14  C   UNL     1       2.304  -1.510  -0.248  0.00  0.00    +0.283 C 
ATOM     15  O   UNL     1       3.364  -0.990   0.039  0.00  0.00    -0.267 OA
ENDROOT
BRANCH   2  16
ATOM     16  C   UNL     1       0.578  -3.660  -2.136  0.00  0.00    -0.022 A 
ATOM     17  C   UNL     1       1.419  -3.256  -3.156  0.00  0.00    +0.006 A 
ATOM     18  C   UNL     1       1.304  -3.822  -4.412  0.00  0.00    +0.004 A 
ATOM     19  C   UNL     1       0.342  -4.786  -4.650  0.00  0.00    -0.045 A 
ATOM     20  C   UNL     1      -0.502  -5.186  -3.631  0.00  0.00    +0.004 A 
ATOM     21  C   UNL     1      -0.384  -4.623  -2.374  0.00  0.00    +0.006 A 
BRANCH  19  22
ATOM     22  C   UNL     1       0.213  -5.399  -6.021  0.00  0.00    +0.013 C 
ATOM     23  C   UNL     1      -0.099  -4.303  -7.042  0.00  0.00    +0.012 C 
ATOM     24  C   UNL     1       1.526  -6.088  -6.397  0.00  0.00    +0.012 C 
ENDBRANCH  19  22
ENDBRANCH   2  16
BRANCH   1  25
ATOM     25  C   UNL     1       3.152  -3.864  -0.341  0.00  0.00    +0.107 C 
BRANCH  25  26
ATOM     26  C   UNL     1       3.809  -4.062  -1.709  0.00  0.00    +0.000 C 
BRANCH  26  27
ATOM     27  C   UNL     1       4.886  -5.144  -1.606  0.00  0.00    -0.077 C 
BRANCH  27  28
ATOM     28  N   UNL     1       5.495  -5.339  -2.938  0.00  0.00    +0.379 N 
ATOM     29  H   UNL     1       4.750  -5.493  -3.627  0.00  0.00    -0.082 HD
BRANCH  28  31
ATOM     30  C   UNL     1       7.371  -3.858  -2.304  0.00  0.00    -0.017 C 
ATOM     31  C   UNL     1       6.263  -4.136  -3.323  0.00  0.00    -0.082 C 
ENDBRANCH  28  31
BRANCH  28  32
ATOM     32  C   UNL     1       6.384  -6.520  -2.920  0.00  0.00    -0.082 C 
ATOM     33  C   UNL     1       6.707  -6.914  -4.362  0.00  0.00    -0.017 C 
ENDBRANCH  28  32
ENDBRANCH  27  28
ENDBRANCH  26  27
ENDBRANCH  25  26
ENDBRANCH   1  25
TORSDOF 8
