REMARK  Name = ZINC49213333
REMARK  2 active torsions:
REMARK  status: ('A' for Active; 'I' for Inactive)
REMARK    1  A    between atoms: C_9  and  C_12
REMARK    2  A    between atoms: C_13  and  C_14
REMARK                            x       y       z     vdW  Elec       q    Type
REMARK                         _______ _______ _______ _____ _____    ______ ____
ROOT
ATOM      1  C   UNL     1      -0.014   1.387  -0.016  0.00  0.00    +0.023 A 
ATOM      2  C   UNL     1       1.167   2.107  -0.019  0.00  0.00    +0.048 A 
ATOM      3  C   UNL     1       2.379   1.443  -0.031  0.00  0.00    +0.128 A 
ATOM      4  C   UNL     1       2.401   0.036  -0.039  0.00  0.00    +0.018 A 
ATOM      5  C   UNL     1       1.205  -0.681  -0.035  0.00  0.00    +0.031 A 
ATOM      6  C   UNL     1       0.004   0.001  -0.024  0.00  0.00    +0.042 A 
ATOM      7 CL   UNL     1      -1.490  -0.882  -0.020  0.00  0.00    -0.084 Cl
ATOM      8  C   UNL     1       3.704  -0.645  -0.050  0.00  0.00    +0.018 C 
ATOM      9  C   UNL     1       4.804   0.083   0.282  0.00  0.00    -0.010 C 
ATOM     10  C   UNL     1       4.652   1.533   0.663  0.00  0.00    +0.264 C 
ATOM     11  O   UNL     1       3.554   2.120  -0.035  0.00  0.00    -0.487 OA
ENDROOT
BRANCH   9  12
ATOM     12  C   UNL     1       6.081  -0.516   0.270  0.00  0.00    +0.012 C 
ATOM     13  C   UNL     1       7.177   0.214   0.601  0.00  0.00    +0.068 C 
BRANCH  13  14
ATOM     14  C   UNL     1       8.458  -0.388   0.589  0.00  0.00    +0.239 C 
ATOM     15  O   UNL     1       8.569  -1.581   0.373  0.00  0.00    -0.271 OA
ATOM     16  N   UNL     1       9.556   0.360   0.815  0.00  0.00    -0.296 N 
ATOM     17  C   UNL     1       9.407   1.767   1.191  0.00  0.00    +0.118 C 
ATOM     18  C   UNL     1       9.915   1.970   2.623  0.00  0.00    +0.088 C 
ATOM     19  S   UNL     1      11.644   1.413   2.712  0.00  0.00    -0.158 S 
ATOM     20  C   UNL     1      11.566  -0.281   2.054  0.00  0.00    +0.088 C 
ATOM     21  C   UNL     1      10.883  -0.245   0.688  0.00  0.00    +0.118 C 
ENDBRANCH  13  14
ENDBRANCH   9  12
TORSDOF 2
