REMARK  Name = ZINC39652628
REMARK  10 active torsions:
REMARK  status: ('A' for Active; 'I' for Inactive)
REMARK    1  A    between atoms: C_1  and  C_2
REMARK    2  A    between atoms: C_2  and  O_3
REMARK    3  A    between atoms: O_3  and  C_4
REMARK    4  A    between atoms: C_9  and  C_10
REMARK    5  A    between atoms: C_10  and  C_11
REMARK    6  A    between atoms: C_11  and  N_12
REMARK    7  A    between atoms: C_13  and  C_15
REMARK    8  A    between atoms: C_26  and  C_28
REMARK    9  A    between atoms: C_33  and  O_34
REMARK   10  A    between atoms: O_34  and  C_35
REMARK                            x       y       z     vdW  Elec       q    Type
REMARK                         _______ _______ _______ _____ _____    ______ ____
ROOT
ATOM      1  C   UNL     1      -7.203   1.173  -2.520  0.00  0.00    +0.100 C 
ATOM      2  C   UNL     1      -8.459   0.381  -2.095  0.00  0.00    +0.121 C 
ATOM      3  N   UNL     1      -9.553   0.939  -2.925  0.00  0.00    -0.296 N 
ATOM      4  C   UNL     1      -8.932   1.156  -4.254  0.00  0.00    +0.115 C 
ATOM      5  C   UNL     1      -7.517   1.679  -3.938  0.00  0.00    -0.004 C 
ATOM      6  C   UNL     1      -6.511   1.114  -4.936  0.00  0.00    -0.010 C 
ATOM      7  C   UNL     1      -6.808   1.677  -6.328  0.00  0.00    -0.082 C 
ATOM      8  N   UNL     1      -6.722   3.143  -6.294  0.00  0.00    +0.379 N 
ATOM      9  C   UNL     1      -7.755   3.683  -5.402  0.00  0.00    -0.082 C 
ATOM     10  C   UNL     1      -7.498   3.205  -3.970  0.00  0.00    -0.010 C 
ATOM     11  C   UNL     1     -10.824   1.191  -2.556  0.00  0.00    +0.250 C 
ATOM     12  O   UNL     1     -11.160   1.050  -1.396  0.00  0.00    -0.270 OA
ATOM     13  H   UNL     1      -5.811   3.417  -5.957  0.00  0.00    -0.086 HD
ATOM     14  H   UNL     1      -6.858   3.508  -7.224  0.00  0.00    -0.086 HD
ENDROOT
BRANCH  11  15
ATOM     15  C   UNL     1     -11.808   1.639  -3.559  0.00  0.00    +0.078 A 
ATOM     16  C   UNL     1     -11.749   1.153  -4.867  0.00  0.00    +0.017 A 
ATOM     17  C   UNL     1     -12.672   1.575  -5.800  0.00  0.00    +0.001 A 
ATOM     18  C   UNL     1     -13.659   2.481  -5.446  0.00  0.00    +0.004 A 
ATOM     19  C   UNL     1     -13.729   2.969  -4.157  0.00  0.00    +0.046 A 
ATOM     20  C   UNL     1     -12.812   2.551  -3.204  0.00  0.00    +0.132 A 
BRANCH  20  21
ATOM     21  O   UNL     1     -12.882   3.027  -1.935  0.00  0.00    -0.494 OA
ATOM     22  C   UNL     1     -13.931   3.953  -1.647  0.00  0.00    +0.277 C 
ENDBRANCH  20  21
ENDBRANCH  11  15
BRANCH   1  24
ATOM     23  N   UNL     1      -4.758   0.800  -2.471  0.00  0.00    -0.315 N 
ATOM     24  C   UNL     1      -5.996   0.271  -2.540  0.00  0.00    +0.218 C 
ATOM     25  O   UNL     1      -6.138  -0.931  -2.619  0.00  0.00    -0.275 OA
ATOM     26  H   UNL     1      -4.644   1.761  -2.409  0.00  0.00    +0.149 HD
BRANCH  23  27
ATOM     27  C   UNL     1      -3.585  -0.077  -2.491  0.00  0.00    +0.109 C 
BRANCH  27  28
ATOM     28  C   UNL     1      -2.314   0.770  -2.401  0.00  0.00    +0.057 C 
BRANCH  28  34
ATOM     29  C   UNL     1      -0.578  -0.557  -3.631  0.00  0.00    +0.124 A 
ATOM     30  C   UNL     1       0.537  -1.383  -3.646  0.00  0.00    +0.046 A 
ATOM     31  C   UNL     1       1.114  -1.784  -2.457  0.00  0.00    +0.004 A 
ATOM     32  C   UNL     1       0.582  -1.363  -1.252  0.00  0.00    +0.000 A 
ATOM     33  C   UNL     1      -0.529  -0.540  -1.235  0.00  0.00    +0.007 A 
ATOM     34  C   UNL     1      -1.107  -0.132  -2.421  0.00  0.00    -0.004 A 
BRANCH  29  35
ATOM     35  O   UNL     1      -1.148  -0.161  -4.800  0.00  0.00    -0.492 OA
BRANCH  35  37
ATOM     36  C   UNL     1      -1.323  -0.091  -7.209  0.00  0.00    +0.048 C 
ATOM     37  C   UNL     1      -0.550  -0.638  -6.007  0.00  0.00    +0.225 C 
ENDBRANCH  35  37
ENDBRANCH  29  35
ENDBRANCH  28  34
ENDBRANCH  27  28
ENDBRANCH  23  27
ENDBRANCH   1  24
TORSDOF 8
