REMARK  Name = ZINC12595606
REMARK  8 active torsions:
REMARK  status: ('A' for Active; 'I' for Inactive)
REMARK    1  A    between atoms: C_1  and  C_2
REMARK    2  A    between atoms: C_3  and  C_29
REMARK    3  A    between atoms: C_5  and  C_7
REMARK    4  A    between atoms: C_7  and  C_8
REMARK    5  A    between atoms: C_8  and  N_9
REMARK    6  A    between atoms: C_10  and  C_12
REMARK    7  A    between atoms: C_12  and  C_13
REMARK    8  A    between atoms: C_20  and  N_57
REMARK                            x       y       z     vdW  Elec       q    Type
REMARK                         _______ _______ _______ _____ _____    ______ ____
ROOT
ATOM      1  C   UNL     1       2.105   1.165  -1.192  0.00  0.00    +0.028 C 
ATOM      2  C   UNL     1       3.447   1.842  -1.182  0.00  0.00    +0.200 C 
ATOM      3  O   UNL     1       4.343   1.365  -1.845  0.00  0.00    -0.278 OA
ATOM      4  N   UNL     1       3.693   2.949  -0.473  0.00  0.00    -0.318 N 
ATOM      5  C   UNL     1       2.695   3.582   0.384  0.00  0.00    +0.085 C 
ATOM      6  C   UNL     1       1.294   3.096   0.003  0.00  0.00    -0.058 C 
ATOM      7  H   UNL     1       4.575   3.350  -0.531  0.00  0.00    +0.149 HD
ATOM      8  N   UNL     1       1.316   1.620  -0.032  0.00  0.00    +0.391 N 
ATOM      9  H   UNL     1       1.752   1.270   0.829  0.00  0.00    -0.080 HD
ENDROOT
BRANCH   8  10
ATOM     10  C   UNL     1      -0.065   1.094  -0.121  0.00  0.00    -0.059 C 
ATOM     11  C   UNL     1      -0.917   1.613   1.057  0.00  0.00    +0.020 C 
ATOM     12  C   UNL     1      -1.586   2.870   0.534  0.00  0.00    -0.046 A 
ATOM     13  C   UNL     1      -2.197   3.909   1.216  0.00  0.00    +0.004 A 
ATOM     14  C   UNL     1      -2.744   4.970   0.520  0.00  0.00    +0.000 A 
ATOM     15  C   UNL     1      -2.680   4.996  -0.860  0.00  0.00    +0.000 A 
ATOM     16  C   UNL     1      -2.071   3.961  -1.542  0.00  0.00    +0.004 A 
ATOM     17  C   UNL     1      -1.522   2.896  -0.846  0.00  0.00    -0.046 A 
ATOM     18  C   UNL     1      -0.811   1.658  -1.349  0.00  0.00    +0.020 C 
ENDBRANCH   8  10
BRANCH   1  19
ATOM     19  C   UNL     1       2.300  -0.349  -1.097  0.00  0.00    +0.089 C 
BRANCH  19  21
ATOM     20  N   UNL     1       3.355  -1.957   0.459  0.00  0.00    -0.315 N 
ATOM     21  C   UNL     1       2.978  -0.688   0.205  0.00  0.00    +0.212 C 
ATOM     22  O   UNL     1       3.185   0.181   1.025  0.00  0.00    -0.276 OA
ATOM     23  H   UNL     1       3.189  -2.652  -0.197  0.00  0.00    +0.149 HD
BRANCH  20  24
ATOM     24  C   UNL     1       4.014  -2.287   1.725  0.00  0.00    +0.111 C 
BRANCH  24  25
ATOM     25  C   UNL     1       4.334  -3.783   1.759  0.00  0.00    +0.081 C 
BRANCH  25  30
ATOM     26  C   UNL     1       4.580  -5.178   6.557  0.00  0.00    +0.066 C 
ATOM     27  C   UNL     1       5.213  -4.755   5.257  0.00  0.00    +0.049 A 
ATOM     28  C   UNL     1       6.561  -4.634   5.147  0.00  0.00    +0.009 A 
ATOM     29  S   UNL     1       6.707  -4.129   3.439  0.00  0.00    -0.077 S 
ATOM     30  C   UNL     1       5.012  -4.122   3.061  0.00  0.00    +0.080 A 
ATOM     31  N   UNL     1       4.473  -4.492   4.200  0.00  0.00    -0.249 NA
ATOM     32  C   UNL     1       7.635  -4.867   6.178  0.00  0.00    +0.053 C 
ENDBRANCH  25  30
ENDBRANCH  24  25
ENDBRANCH  20  24
ENDBRANCH  19  21
ENDBRANCH   1  19
TORSDOF 6
