REMARK  Name = ZINC19325682
REMARK  8 active torsions:
REMARK  status: ('A' for Active; 'I' for Inactive)
REMARK    1  A    between atoms: C_1  and  C_2
REMARK    2  A    between atoms: N_13  and  C_19
REMARK    3  A    between atoms: C_19  and  C_20
REMARK    4  A    between atoms: C_20  and  C_22
REMARK    5  A    between atoms: C_20  and  O_32
REMARK    6  A    between atoms: C_22  and  N_23
REMARK    7  A    between atoms: N_23  and  C_24
REMARK    8  A    between atoms: C_24  and  N_25
REMARK                            x       y       z     vdW  Elec       q    Type
REMARK                         _______ _______ _______ _____ _____    ______ ____
ROOT
ATOM      1  C   UNL     1      -0.013   1.086   0.008  0.00  0.00    +0.044 C 
ATOM      2  C   UNL     1      -0.718   1.572   1.248  0.00  0.00    -0.050 A 
ATOM      3  C   UNL     1      -2.086   1.782   1.202  0.00  0.00    +0.005 A 
ATOM      4  C   UNL     1      -2.801   2.222   2.302  0.00  0.00    +0.026 A 
ATOM      5  C   UNL     1      -2.086   2.461   3.473  0.00  0.00    +0.049 A 
ATOM      6  C   UNL     1      -0.675   2.247   3.514  0.00  0.00    +0.003 A 
ATOM      7  C   UNL     1       0.016   1.797   2.385  0.00  0.00    +0.013 A 
ATOM      8  C   UNL     1      -0.261   2.582   4.850  0.00  0.00    -0.020 A 
ATOM      9  C   UNL     1      -1.377   2.934   5.520  0.00  0.00    +0.009 A 
ATOM     10  N   UNL     1      -2.487   2.914   4.708  0.00  0.00    -0.347 N 
ATOM     11  C   UNL     1      -3.813   3.307   5.210  0.00  0.00    +0.103 C 
ATOM     12  C   UNL     1      -3.756   3.323   6.742  0.00  0.00    -0.056 C 
ATOM     13  N   UNL     1      -2.595   4.084   7.225  0.00  0.00    +0.388 N 
ATOM     14  C   UNL     1      -1.342   3.343   6.975  0.00  0.00    -0.020 C 
ATOM     15  C   UNL     1      -0.136   4.245   7.184  0.00  0.00    -0.009 C 
ATOM     16  C   UNL     1       1.120   3.866   6.440  0.00  0.00    +0.003 C 
ATOM     17  C   UNL     1       1.060   2.621   5.567  0.00  0.00    +0.037 C 
ATOM     18  H   UNL     1      -2.556   5.031   6.667  0.00  0.00    -0.081 HD
ENDROOT
BRANCH  13  19
ATOM     19  C   UNL     1      -2.737   4.413   8.650  0.00  0.00    -0.045 C 
BRANCH  19  20
ATOM     20  C   UNL     1      -3.904   5.385   8.835  0.00  0.00    +0.112 C 
BRANCH  20  21
ATOM     21  O   UNL     1      -3.652   6.580   8.093  0.00  0.00    -0.392 OA
ATOM     22  H   UNL     1      -4.385   7.399   8.105  0.00  0.00    +0.210 HD
ENDBRANCH  20  21
BRANCH  20  23
ATOM     23  C   UNL     1      -4.051   5.728  10.319  0.00  0.00    +0.108 C 
BRANCH  23  24
ATOM     24  N   UNL     1      -5.243   6.564  10.512  0.00  0.00    -0.330 NA
ATOM     25  H   UNL     1      -5.139   7.492   9.931  0.00  0.00    +0.120 HD
BRANCH  24  26
ATOM     26  C   UNL     1      -5.417   6.913  11.929  0.00  0.00    +0.005 C 
BRANCH  26  27
ATOM     27  N   UNL     1      -4.810   8.226  12.187  0.00  0.00    +0.388 N 
ATOM     28  C   UNL     1      -3.335   8.123  12.256  0.00  0.00    -0.077 C 
ATOM     29  C   UNL     1      -2.687   9.374  12.784  0.00  0.00    -0.019 C 
ATOM     30  C   UNL     1      -2.490   9.219  14.307  0.00  0.00    -0.002 C 
ATOM     31  C   UNL     1      -3.726   9.450  15.048  0.00  0.00    -0.002 C 
ATOM     32  C   UNL     1      -4.832   8.446  14.664  0.00  0.00    -0.019 C 
ATOM     33  C   UNL     1      -5.438   8.880  13.357  0.00  0.00    -0.077 C 
ATOM     34  H   UNL     1      -5.018   8.888  11.334  0.00  0.00    -0.080 HD
ENDBRANCH  26  27
ENDBRANCH  24  26
ENDBRANCH  23  24
ENDBRANCH  20  23
ENDBRANCH  19  20
ENDBRANCH  13  19
TORSDOF 7
