REMARK  Name = ZINC20805349
REMARK  14 active torsions:
REMARK  status: ('A' for Active; 'I' for Inactive)
REMARK    1  A    between atoms: C_1  and  C_2
REMARK    2  A    between atoms: C_5  and  C_8
REMARK    3  A    between atoms: C_8  and  N_9
REMARK    4  A    between atoms: C_10  and  C_12
REMARK    5  A    between atoms: C_12  and  S_13
REMARK    6  A    between atoms: S_13  and  C_14
REMARK    7  A    between atoms: N_18  and  N_19
REMARK    8  A    between atoms: N_20  and  N_21
REMARK    9  A    between atoms: C_22  and  C_23
REMARK   10  A    between atoms: C_24  and  C_32
REMARK   11  A    between atoms: N_26  and  C_29
REMARK   12  A    between atoms: C_27  and  C_28
REMARK   13  A    between atoms: C_29  and  C_30
REMARK   14  A    between atoms: C_29  and  C_31
REMARK                            x       y       z     vdW  Elec       q    Type
REMARK                         _______ _______ _______ _____ _____    ______ ____
ROOT
ATOM      1  C   UNL     1       1.307  -0.408  -0.013  0.00  0.00    +0.210 A 
ATOM      2  N   UNL     1       2.063   0.663  -0.014  0.00  0.00    -0.119 NA
ATOM      3  N   UNL     1       1.225   1.785   0.000  0.00  0.00    -0.109 NA
ATOM      4  C   UNL     1      -0.017   1.363   0.009  0.00  0.00    +0.254 A 
ATOM      5  N   UNL     1       0.002  -0.004   0.002  0.00  0.00    -0.211 N 
ATOM      6  N   UNL     1      -1.150   2.163   0.019  0.00  0.00    -0.204 N 
ATOM      7  H   UNL     1      -2.148   1.702   0.022  0.00  0.00    +0.177 HD
ENDROOT
BRANCH   5   8
ATOM      8  N   UNL     1      -1.092  -0.822   0.009  0.00  0.00    -0.294 N 
ATOM      9  H   UNL     1      -2.103  -0.388   0.020  0.00  0.00    +0.163 HD
ATOM     10  H   UNL     1      -0.962  -1.914   0.002  0.00  0.00    +0.163 HD
ENDBRANCH   5   8
BRANCH   6  11
ATOM     11  N   UNL     1      -1.022   3.558   0.026  0.00  0.00    -0.187 NA
ATOM     12  C   UNL     1      -2.082   4.307   0.036  0.00  0.00    +0.141 C 
BRANCH  12  13
ATOM     13  C   UNL     1      -1.948   5.777   0.043  0.00  0.00    +0.038 A 
ATOM     14  C   UNL     1      -0.740   6.506   0.041  0.00  0.00    +0.069 A 
ATOM     15  N   UNL     1      -1.033   7.779   0.048  0.00  0.00    -0.175 NA
ATOM     16  N   UNL     1      -2.426   7.921   0.056  0.00  0.00    -0.265 N 
ATOM     17  C   UNL     1      -2.978   6.691   0.048  0.00  0.00    +0.045 A 
ATOM     18  C   UNL     1      -4.452   6.375   0.046  0.00  0.00    +0.066 C 
ATOM     19  C   UNL     1       0.648   5.919   0.031  0.00  0.00    +0.068 C 
BRANCH  16  20
ATOM     20  C   UNL     1      -3.158   9.190   0.066  0.00  0.00    +0.101 C 
ATOM     21  C   UNL     1      -2.781   9.987   1.317  0.00  0.00    +0.032 C 
ATOM     22  C   UNL     1      -2.795   9.998  -1.181  0.00  0.00    +0.032 C 
ENDBRANCH  16  20
ENDBRANCH  12  13
ENDBRANCH   6  11
BRANCH   1  23
ATOM     23  S   UNL     1       1.874  -2.077  -0.027  0.00  0.00    -0.075 S 
BRANCH  23  24
ATOM     24  C   UNL     1       3.682  -1.926  -0.043  0.00  0.00    +0.173 C 
BRANCH  24  26
ATOM     25  N   UNL     1       5.641  -3.435  -0.070  0.00  0.00    -0.311 N 
ATOM     26  C   UNL     1       4.301  -3.300  -0.057  0.00  0.00    +0.224 C 
ATOM     27  O   UNL     1       3.592  -4.284  -0.055  0.00  0.00    -0.275 OA
ATOM     28  H   UNL     1       6.284  -2.542  -0.072  0.00  0.00    +0.149 HD
BRANCH  25  29
ATOM     29  C   UNL     1       6.243  -4.770  -0.083  0.00  0.00    +0.139 C 
BRANCH  29  34
ATOM     30  C   UNL     1      12.002  -4.290  -0.136  0.00  0.00    +0.044 C 
ATOM     31  C   UNL     1      10.500  -4.415  -0.122  0.00  0.00    -0.050 A 
ATOM     32  C   UNL     1       9.822  -4.479   1.081  0.00  0.00    +0.003 A 
ATOM     33  C   UNL     1       8.445  -4.594   1.094  0.00  0.00    +0.005 A 
ATOM     34  C   UNL     1       7.745  -4.645  -0.097  0.00  0.00    -0.030 A 
ATOM     35  C   UNL     1       8.422  -4.587  -1.300  0.00  0.00    +0.005 A 
ATOM     36  C   UNL     1       9.800  -4.467  -1.313  0.00  0.00    +0.003 A 
ENDBRANCH  29  34
ENDBRANCH  25  29
ENDBRANCH  24  26
ENDBRANCH  23  24
ENDBRANCH   1  23
TORSDOF 9
