REMARK  Name = ZINC64977050
REMARK  5 active torsions:
REMARK  status: ('A' for Active; 'I' for Inactive)
REMARK    1  A    between atoms: C_6  and  S_11
REMARK    2  A    between atoms: S_11  and  N_14
REMARK    3  A    between atoms: N_14  and  C_15
REMARK    4  A    between atoms: C_15  and  C_16
REMARK    5  A    between atoms: C_25  and  C_27
REMARK                            x       y       z     vdW  Elec       q    Type
REMARK                         _______ _______ _______ _____ _____    ______ ____
ROOT
ATOM      1  C   UNL     1       5.881  -4.200   3.491  0.00  0.00    -0.032 A 
ATOM      2  C   UNL     1       6.552  -5.407   3.579  0.00  0.00    +0.007 A 
ATOM      3  C   UNL     1       7.235  -5.738   4.729  0.00  0.00    +0.024 A 
ATOM      4  C   UNL     1       7.256  -4.859   5.814  0.00  0.00    +0.040 A 
ATOM      5  C   UNL     1       6.582  -3.653   5.716  0.00  0.00    -0.024 A 
ATOM      6  C   UNL     1       5.902  -3.322   4.559  0.00  0.00    +0.010 A 
ATOM      7  C   UNL     1       6.760  -2.894   7.012  0.00  0.00    +0.056 C 
ATOM      8  C   UNL     1       7.629  -3.817   7.883  0.00  0.00    +0.118 C 
ATOM      9  N   UNL     1       7.881  -5.000   7.056  0.00  0.00    -0.267 N 
ATOM     10  C   UNL     1       8.609  -6.068   7.438  0.00  0.00    +0.251 C 
ATOM     11  O   UNL     1       8.688  -7.040   6.713  0.00  0.00    -0.270 OA
ENDROOT
BRANCH  10  12
ATOM     12  C   UNL     1       9.311  -6.057   8.738  0.00  0.00    +0.037 A 
ATOM     13  C   UNL     1       8.669  -5.566   9.877  0.00  0.00    +0.016 A 
ATOM     14  C   UNL     1       9.328  -5.559  11.087  0.00  0.00    +0.039 A 
ATOM     15  C   UNL     1      10.627  -6.037  11.175  0.00  0.00    +0.123 A 
ATOM     16  C   UNL     1      11.269  -6.524  10.047  0.00  0.00    +0.039 A 
ATOM     17  C   UNL     1      10.617  -6.542   8.833  0.00  0.00    +0.016 A 
ATOM     18  F   UNL     1      11.269  -6.026  12.364  0.00  0.00    -0.205 F 
ENDBRANCH  10  12
BRANCH   1  19
ATOM     19  C   UNL     1       5.135  -3.841   2.232  0.00  0.00    +0.141 C 
BRANCH  19  20
ATOM     20  N   UNL     1       6.033  -3.134   1.317  0.00  0.00    -0.186 NA
ATOM     21  H   UNL     1       6.875  -2.777   1.642  0.00  0.00    +0.148 HD
BRANCH  20  22
ATOM     22  S   UNL     1       5.613  -2.944  -0.274  0.00  0.00    +0.059 S 
ATOM     23  O   UNL     1       5.208  -4.223  -0.742  0.00  0.00    -0.153 OA
ATOM     24  O   UNL     1       6.662  -2.206  -0.885  0.00  0.00    -0.153 OA
BRANCH  22  30
ATOM     25  C   UNL     1       0.913   1.838  -0.497  0.00  0.00    +0.001 A 
ATOM     26  C   UNL     1       2.178   2.420  -0.550  0.00  0.00    +0.001 A 
ATOM     27  C   UNL     1       3.303   1.655  -0.520  0.00  0.00    +0.008 A 
ATOM     28  C   UNL     1       3.191   0.257  -0.434  0.00  0.00    -0.016 A 
ATOM     29  C   UNL     1       4.330  -0.566  -0.400  0.00  0.00    +0.037 A 
ATOM     30  C   UNL     1       4.183  -1.916  -0.316  0.00  0.00    +0.106 A 
ATOM     31  C   UNL     1       2.917  -2.498  -0.263  0.00  0.00    +0.029 A 
ATOM     32  C   UNL     1       1.792  -1.734  -0.293  0.00  0.00    +0.010 A 
ATOM     33  C   UNL     1       1.904  -0.335  -0.380  0.00  0.00    -0.018 A 
ATOM     34  C   UNL     1       0.765   0.487  -0.414  0.00  0.00    +0.008 A 
ENDBRANCH  22  30
ENDBRANCH  20  22
ENDBRANCH  19  20
ENDBRANCH   1  19
TORSDOF 5
