REMARK  Name = ZINC67452509
REMARK  4 active torsions:
REMARK  status: ('A' for Active; 'I' for Inactive)
REMARK    1  A    between atoms: C_3  and  N_10
REMARK    2  A    between atoms: C_5  and  N_7
REMARK    3  A    between atoms: C_13  and  N_17
REMARK    4  A    between atoms: N_17  and  C_18
REMARK                            x       y       z     vdW  Elec       q    Type
REMARK                         _______ _______ _______ _____ _____    ______ ____
ROOT
ATOM      1  N   UNL     1       3.584   2.123  -0.021  0.00  0.00    -0.270 N 
ATOM      2  C   UNL     1       3.678   3.585  -0.115  0.00  0.00    +0.116 C 
ATOM      3  C   UNL     1       5.111   3.936   0.346  0.00  0.00    +0.051 C 
ATOM      4  C   UNL     1       5.872   2.628   0.030  0.00  0.00    +0.159 C 
ATOM      5  C   UNL     1       4.801   1.560   0.061  0.00  0.00    +0.240 C 
ATOM      6  O   UNL     1       5.011   0.368   0.146  0.00  0.00    -0.273 OA
ENDROOT
BRANCH   1   9
ATOM      7  C   UNL     1       1.207  -0.682  -0.026  0.00  0.00    +0.004 A 
ATOM      8  C   UNL     1       2.396   0.021  -0.035  0.00  0.00    +0.023 A 
ATOM      9  C   UNL     1       2.381   1.409  -0.013  0.00  0.00    +0.038 A 
ATOM     10  C   UNL     1       1.169   2.087   0.017  0.00  0.00    +0.056 A 
ATOM     11  C   UNL     1      -0.017   1.379   0.025  0.00  0.00    +0.128 A 
ATOM     12  C   UNL     1       0.002  -0.004   0.004  0.00  0.00    +0.033 A 
BRANCH  11  13
ATOM     13  N   UNL     1      -1.308   2.100   0.057  0.00  0.00    +0.056 N 
ATOM     14  O   UNL     1      -1.325   3.309   0.076  0.00  0.00    -0.126 OA
ATOM     15  O   UNL     1      -2.347   1.481   0.065  0.00  0.00    -0.126 OA
ENDBRANCH  11  13
ENDBRANCH   1   9
BRANCH   4  16
ATOM     16  N   UNL     1       6.887   2.365   1.054  0.00  0.00    -0.333 N 
ATOM     17  H   UNL     1       6.782   2.731   1.946  0.00  0.00    +0.147 HD
BRANCH  16  18
ATOM     18  C   UNL     1       8.006   1.589   0.745  0.00  0.00    +0.028 A 
ATOM     19  C   UNL     1       8.159   1.070  -0.536  0.00  0.00    +0.023 A 
ATOM     20  C   UNL     1       9.265   0.300  -0.846  0.00  0.00    +0.008 A 
ATOM     21  C   UNL     1      10.219   0.046   0.113  0.00  0.00    -0.018 A 
ATOM     22  C   UNL     1      10.079   0.560   1.405  0.00  0.00    +0.043 A 
ATOM     23  C   UNL     1       8.965   1.341   1.715  0.00  0.00    +0.036 A 
ATOM     24  C   UNL     1      11.242   0.127   2.204  0.00  0.00    +0.245 C 
ATOM     25  O   UNL     1      11.424   0.406   3.373  0.00  0.00    -0.270 OA
ATOM     26  N   UNL     1      12.069  -0.622   1.455  0.00  0.00    -0.307 N 
ATOM     27  C   UNL     1      11.510  -0.735   0.103  0.00  0.00    +0.140 C 
ATOM     28  H   UNL     1      12.900  -1.021   1.758  0.00  0.00    +0.149 HD
ENDBRANCH  16  18
ENDBRANCH   4  16
TORSDOF 4
