REMARK  Name = ZINC03764220
REMARK  9 active torsions:
REMARK  status: ('A' for Active; 'I' for Inactive)
REMARK    1  A    between atoms: C_2  and  C_3
REMARK    2  A    between atoms: C_3  and  N_4
REMARK    3  A    between atoms: C_5  and  C_22
REMARK    4  A    between atoms: C_8  and  S_9
REMARK    5  A    between atoms: S_9  and  C_10
REMARK    6  A    between atoms: C_10  and  C_11
REMARK    7  A    between atoms: N_13  and  C_14
REMARK    8  A    between atoms: C_25  and  N_28
REMARK    9  A    between atoms: C_29  and  C_31
REMARK                            x       y       z     vdW  Elec       q    Type
REMARK                         _______ _______ _______ _____ _____    ______ ____
ROOT
ATOM      1  N   UNL     1      -1.759   3.219  -1.211  0.00  0.00    -0.298 N 
ATOM      2  C   UNL     1      -0.713   2.560  -0.606  0.00  0.00    +0.165 A 
ATOM      3  N   UNL     1       0.138   3.476  -0.204  0.00  0.00    -0.128 NA
ATOM      4  N   UNL     1      -0.300   4.645  -0.507  0.00  0.00    -0.122 NA
ATOM      5  C   UNL     1      -1.458   4.549  -1.120  0.00  0.00    +0.193 A 
ENDROOT
BRANCH   2   6
ATOM      6  C   UNL     1      -0.571   1.098  -0.445  0.00  0.00    +0.019 A 
ATOM      7  C   UNL     1      -1.695   0.273  -0.525  0.00  0.00    +0.013 A 
ATOM      8  C   UNL     1      -1.559  -1.090  -0.379  0.00  0.00    +0.024 A 
ATOM      9  C   UNL     1      -0.306  -1.644  -0.143  0.00  0.00    +0.034 A 
ATOM     10  C   UNL     1       0.815  -0.825  -0.058  0.00  0.00    +0.024 A 
ATOM     11  C   UNL     1       0.686   0.539  -0.208  0.00  0.00    +0.013 A 
BRANCH   9  12
ATOM     12  N   UNL     1      -0.172  -3.026   0.010  0.00  0.00    -0.281 N 
ATOM     13  C   UNL     1       0.741  -3.525   0.867  0.00  0.00    +0.249 C 
ATOM     14  O   UNL     1       1.380  -2.773   1.580  0.00  0.00    -0.270 OA
ATOM     15  H   UNL     1      -0.736  -3.628  -0.501  0.00  0.00    +0.155 HD
BRANCH  13  16
ATOM     16  C   UNL     1       0.965  -4.977   0.942  0.00  0.00    +0.047 A 
ATOM     17  C   UNL     1       0.250  -5.848   0.149  0.00  0.00    +0.058 A 
ATOM     18  S   UNL     1       0.874  -7.400   0.604  0.00  0.00    -0.101 S 
ATOM     19  C   UNL     1       2.049  -6.887   1.825  0.00  0.00    -0.006 A 
ATOM     20  C   UNL     1       1.942  -5.539   1.856  0.00  0.00    -0.025 A 
ATOM     21  C   UNL     1       2.802  -4.706   2.798  0.00  0.00    +0.037 C 
ATOM     22  C   UNL     1       3.350  -5.617   3.898  0.00  0.00    +0.005 C 
ATOM     23  C   UNL     1       4.036  -6.835   3.272  0.00  0.00    +0.005 C 
ATOM     24  C   UNL     1       2.964  -7.740   2.647  0.00  0.00    +0.043 C 
ENDBRANCH  13  16
ENDBRANCH   9  12
ENDBRANCH   2   6
BRANCH   1  25
ATOM     25  C   UNL     1      -2.949   2.620  -1.821  0.00  0.00    +0.152 C 
BRANCH  25  27
ATOM     26  C   UNL     1      -5.223   3.144  -1.104  0.00  0.00    +0.005 C 
ATOM     27  C   UNL     1      -4.070   2.594  -0.814  0.00  0.00    -0.013 C 
ENDBRANCH  25  27
ENDBRANCH   1  25
BRANCH   5  28
ATOM     28  S   UNL     1      -2.437   5.885  -1.722  0.00  0.00    -0.077 S 
BRANCH  28  29
ATOM     29  C   UNL     1      -1.391   7.282  -1.242  0.00  0.00    +0.173 C 
BRANCH  29  30
ATOM     30  C   UNL     1      -2.046   8.570  -1.668  0.00  0.00    +0.227 C 
ATOM     31  O   UNL     1      -3.116   8.546  -2.239  0.00  0.00    -0.275 OA
ATOM     32  N   UNL     1      -1.444   9.749  -1.414  0.00  0.00    -0.285 N 
ATOM     33  H   UNL     1      -0.623   9.773  -0.899  0.00  0.00    +0.155 HD
BRANCH  32  34
ATOM     34  C   UNL     1      -2.005  10.938  -1.894  0.00  0.00    +0.035 A 
ATOM     35  C   UNL     1      -1.181  11.980  -2.300  0.00  0.00    +0.025 A 
ATOM     36  C   UNL     1      -1.736  13.151  -2.780  0.00  0.00    +0.023 A 
ATOM     37  C   UNL     1      -3.111  13.292  -2.843  0.00  0.00    +0.059 A 
ATOM     38  C   UNL     1      -3.934  12.257  -2.433  0.00  0.00    +0.061 A 
ATOM     39  C   UNL     1      -3.384  11.081  -1.959  0.00  0.00    +0.044 A 
ATOM     40 CL   UNL     1      -5.659  12.436  -2.514  0.00  0.00    -0.082 Cl
ATOM     41 CL   UNL     1      -3.804  14.767  -3.439  0.00  0.00    -0.082 Cl
ENDBRANCH  32  34
ENDBRANCH  29  30
ENDBRANCH  28  29
ENDBRANCH   5  28
TORSDOF 9
