REMARK  Name = ZINC67204892
REMARK  7 active torsions:
REMARK  status: ('A' for Active; 'I' for Inactive)
REMARK    1  A    between atoms: C_1  and  O_2
REMARK    2  A    between atoms: O_2  and  C_3
REMARK    3  A    between atoms: C_3  and  C_5
REMARK    4  A    between atoms: C_6  and  C_20
REMARK    5  A    between atoms: C_11  and  C_13
REMARK    6  A    between atoms: C_20  and  N_21
REMARK    7  A    between atoms: N_24  and  C_27
REMARK                            x       y       z     vdW  Elec       q    Type
REMARK                         _______ _______ _______ _____ _____    ______ ____
ROOT
ATOM      1  C   UNL     1       0.171  -2.173   1.537  0.00  0.00    +0.079 C 
ATOM      2  C   UNL     1       1.350  -2.592   2.045  0.00  0.00    +0.038 C 
ATOM      3  N   UNL     1       1.915  -3.766   1.637  0.00  0.00    -0.271 N 
ATOM      4  C   UNL     1       1.365  -4.579   0.727  0.00  0.00    +0.304 C 
ATOM      5  O   UNL     1       1.944  -5.605   0.428  0.00  0.00    -0.252 OA
ATOM      6  N   UNL     1       0.189  -4.296   0.131  0.00  0.00    -0.288 N 
ATOM      7  C   UNL     1      -0.506  -3.054   0.506  0.00  0.00    +0.144 C 
ATOM      8  H   UNL     1       2.764  -4.026   2.029  0.00  0.00    +0.156 HD
ATOM      9  H   UNL     1      -0.191  -4.899  -0.527  0.00  0.00    +0.151 HD
ENDROOT
BRANCH   7  10
ATOM     10  C   UNL     1      -1.871  -3.419   1.031  0.00  0.00    -0.022 A 
ATOM     11  C   UNL     1      -2.003  -4.429   1.966  0.00  0.00    +0.008 A 
ATOM     12  C   UNL     1      -3.254  -4.764   2.448  0.00  0.00    +0.038 A 
ATOM     13  C   UNL     1      -4.375  -4.089   1.994  0.00  0.00    +0.123 A 
ATOM     14  C   UNL     1      -4.240  -3.078   1.057  0.00  0.00    +0.038 A 
ATOM     15  C   UNL     1      -2.988  -2.741   0.581  0.00  0.00    +0.008 A 
ATOM     16  F   UNL     1      -5.598  -4.417   2.464  0.00  0.00    -0.205 F 
ENDBRANCH   7  10
BRANCH   1  17
ATOM     17  C   UNL     1      -0.417  -0.957   1.959  0.00  0.00    +0.339 C 
ATOM     18  O   UNL     1       0.078  -0.328   2.876  0.00  0.00    -0.245 OA
BRANCH  17  20
ATOM     19  C   UNL     1      -2.064   0.740   1.821  0.00  0.00    +0.280 C 
ATOM     20  O   UNL     1      -1.525  -0.494   1.344  0.00  0.00    -0.465 OA
ENDBRANCH  17  20
ENDBRANCH   1  17
BRANCH   2  21
ATOM     21  C   UNL     1       2.054  -1.749   3.076  0.00  0.00    +0.136 C 
BRANCH  21  22
ATOM     22  N   UNL     1       1.529  -2.068   4.411  0.00  0.00    -0.294 NA
ATOM     23  C   UNL     1       1.976  -3.398   4.847  0.00  0.00    +0.103 C 
ATOM     24  C   UNL     1       1.266  -3.768   6.154  0.00  0.00    +0.120 C 
ATOM     25  N   UNL     1       1.486  -2.688   7.127  0.00  0.00    -0.327 N 
ATOM     26  C   UNL     1       1.190  -1.308   6.714  0.00  0.00    +0.120 C 
ATOM     27  C   UNL     1       1.903  -1.035   5.385  0.00  0.00    +0.103 C 
BRANCH  25  28
ATOM     28  C   UNL     1       1.962  -2.966   8.412  0.00  0.00    +0.030 A 
ATOM     29  C   UNL     1       2.271  -1.926   9.279  0.00  0.00    +0.026 A 
ATOM     30  C   UNL     1       2.741  -2.203  10.548  0.00  0.00    +0.040 A 
ATOM     31  C   UNL     1       2.905  -3.516  10.955  0.00  0.00    +0.124 A 
ATOM     32  C   UNL     1       2.599  -4.554  10.092  0.00  0.00    +0.040 A 
ATOM     33  C   UNL     1       2.123  -4.282   8.825  0.00  0.00    +0.026 A 
ATOM     34  F   UNL     1       3.366  -3.784  12.197  0.00  0.00    -0.205 F 
ENDBRANCH  25  28
ENDBRANCH  21  22
ENDBRANCH   2  21
TORSDOF 6
