REMARK  Name = ZINC36205852
REMARK  18 active torsions:
REMARK  status: ('A' for Active; 'I' for Inactive)
REMARK    1  A    between atoms: C_1  and  C_2
REMARK    2  A    between atoms: C_7  and  C_8
REMARK    3  A    between atoms: C_17  and  C_19
REMARK    4  A    between atoms: C_19  and  N_20
REMARK    5  A    between atoms: N_20  and  C_21
REMARK    6  A    between atoms: N_20  and  C_26
REMARK    7  A    between atoms: C_21  and  C_22
REMARK    8  A    between atoms: C_22  and  C_23
REMARK    9  A    between atoms: C_23  and  C_24
REMARK   10  A    between atoms: C_23  and  C_25
REMARK   11  A    between atoms: C_26  and  C_27
REMARK   12  A    between atoms: C_27  and  C_29
REMARK   13  A    between atoms: C_27  and  O_35
REMARK   14  A    between atoms: C_29  and  O_30
REMARK   15  A    between atoms: O_30  and  C_31
REMARK   16  A    between atoms: C_31  and  C_32
REMARK   17  A    between atoms: C_31  and  C_33
REMARK   18  A    between atoms: C_31  and  C_34
REMARK                            x       y       z     vdW  Elec       q    Type
REMARK                         _______ _______ _______ _____ _____    ______ ____
ROOT
ATOM      1  C   UNL     1      -4.250   7.840   1.048  0.00  0.00    +0.004 A 
ATOM      2  C   UNL     1      -3.772   8.967   1.629  0.00  0.00    +0.056 A 
ATOM      3  S   UNL     1      -3.291   8.420   3.256  0.00  0.00    -0.076 S 
ATOM      4  C   UNL     1      -3.738   6.708   3.120  0.00  0.00    +0.116 A 
ATOM      5  C   UNL     1      -4.255   6.602   1.819  0.00  0.00    +0.080 A 
ATOM      6  C   UNL     1      -4.707   5.299   1.436  0.00  0.00    +0.260 A 
ATOM      7  O   UNL     1      -5.168   5.105   0.324  0.00  0.00    -0.267 OA
ATOM      8  N   UNL     1      -4.614   4.290   2.322  0.00  0.00    -0.312 N 
ATOM      9  H   UNL     1      -4.918   3.404   2.068  0.00  0.00    +0.170 HD
ATOM     10  C   UNL     1      -4.103   4.487   3.564  0.00  0.00    +0.094 A 
ATOM     11  N   UNL     1      -3.675   5.662   3.939  0.00  0.00    -0.229 NA
ENDROOT
BRANCH   1  18
ATOM     12  C   UNL     1      -7.052   7.322   0.546  0.00  0.00    +0.044 C 
ATOM     13  C   UNL     1      -6.112   7.618  -0.594  0.00  0.00    -0.043 A 
ATOM     14  C   UNL     1      -6.586   7.650  -1.890  0.00  0.00    +0.004 A 
ATOM     15  C   UNL     1      -5.725   7.922  -2.938  0.00  0.00    +0.000 A 
ATOM     16  C   UNL     1      -4.385   8.163  -2.694  0.00  0.00    +0.001 A 
ATOM     17  C   UNL     1      -3.900   8.133  -1.403  0.00  0.00    +0.009 A 
ATOM     18  C   UNL     1      -4.764   7.866  -0.342  0.00  0.00    -0.014 A 
ENDBRANCH   1  18
BRANCH  10  19
ATOM     19  C   UNL     1      -4.019   3.327   4.523  0.00  0.00    -0.003 C 
BRANCH  19  20
ATOM     20  N   UNL     1      -3.566   3.808   5.835  0.00  0.00    +0.386 N 
ATOM     21  H   UNL     1      -2.713   4.336   5.723  0.00  0.00    -0.081 HD
BRANCH  20  22
ATOM     22  C   UNL     1      -3.320   2.661   6.719  0.00  0.00    -0.078 C 
BRANCH  22  23
ATOM     23  C   UNL     1      -2.154   1.835   6.171  0.00  0.00    -0.016 C 
BRANCH  23  24
ATOM     24  C   UNL     1      -1.812   0.718   7.158  0.00  0.00    -0.019 C 
ATOM     25  C   UNL     1      -0.731  -0.182   6.555  0.00  0.00    +0.007 C 
ATOM     26  C   UNL     1      -1.297   1.329   8.462  0.00  0.00    +0.007 C 
ENDBRANCH  23  24
ENDBRANCH  22  23
ENDBRANCH  20  22
BRANCH  20  27
ATOM     27  C   UNL     1      -4.600   4.668   6.425  0.00  0.00    -0.044 C 
BRANCH  27  28
ATOM     28  C   UNL     1      -4.079   5.269   7.732  0.00  0.00    +0.124 C 
BRANCH  28  29
ATOM     29  O   UNL     1      -2.980   6.138   7.452  0.00  0.00    -0.391 OA
ATOM     30  H   UNL     1      -3.200   6.875   6.867  0.00  0.00    +0.210 HD
ENDBRANCH  28  29
BRANCH  28  31
ATOM     31  C   UNL     1      -5.198   6.063   8.409  0.00  0.00    +0.189 C 
BRANCH  31  32
ATOM     32  O   UNL     1      -4.748   6.527   9.684  0.00  0.00    -0.372 OA
BRANCH  32  33
ATOM     33  C   UNL     1      -5.722   7.285  10.404  0.00  0.00    +0.061 C 
ATOM     34  C   UNL     1      -6.961   6.421  10.649  0.00  0.00    +0.041 C 
ATOM     35  C   UNL     1      -5.135   7.726  11.746  0.00  0.00    +0.041 C 
ATOM     36  C   UNL     1      -6.114   8.518   9.588  0.00  0.00    +0.041 C 
ENDBRANCH  32  33
ENDBRANCH  31  32
ENDBRANCH  28  31
ENDBRANCH  27  28
ENDBRANCH  20  27
ENDBRANCH  19  20
ENDBRANCH  10  19
TORSDOF 12
