REMARK  Name = ZINC22516161
REMARK  8 active torsions:
REMARK  status: ('A' for Active; 'I' for Inactive)
REMARK    1  A    between atoms: C_1  and  C_2
REMARK    2  A    between atoms: C_4  and  C_24
REMARK    3  A    between atoms: C_6  and  C_20
REMARK    4  A    between atoms: C_10  and  C_11
REMARK    5  A    between atoms: N_13  and  C_14
REMARK    6  A    between atoms: C_20  and  C_21
REMARK    7  A    between atoms: C_20  and  C_22
REMARK    8  A    between atoms: C_20  and  C_23
REMARK                            x       y       z     vdW  Elec       q    Type
REMARK                         _______ _______ _______ _____ _____    ______ ____
ROOT
ATOM      1  C   UNL     1       1.632   1.431  -0.722  0.00  0.00    +0.046 C 
ATOM      2  C   UNL     1       1.502  -0.069  -0.663  0.00  0.00    -0.020 A 
ATOM      3  C   UNL     1       0.622  -0.734  -1.532  0.00  0.00    +0.032 A 
ATOM      4  C   UNL     1      -0.230  -0.199  -2.530  0.00  0.00    +0.050 A 
ATOM      5  N   UNL     1      -0.982  -1.011  -3.239  0.00  0.00    -0.236 NA
ATOM      6  C   UNL     1      -0.977  -2.321  -3.058  0.00  0.00    +0.136 A 
ATOM      7  N   UNL     1      -0.208  -2.885  -2.147  0.00  0.00    -0.224 NA
ATOM      8  C   UNL     1       0.577  -2.146  -1.393  0.00  0.00    +0.113 A 
ATOM      9  S   UNL     1       1.737  -2.465  -0.090  0.00  0.00    -0.064 S 
ATOM     10  C   UNL     1       2.241  -0.783   0.227  0.00  0.00    +0.079 A 
ATOM     11  C   UNL     1      -0.274   1.288  -2.775  0.00  0.00    +0.066 C 
ENDROOT
BRANCH  10  12
ATOM     12  C   UNL     1       3.216  -0.290   1.211  0.00  0.00    +0.251 C 
ATOM     13  O   UNL     1       3.442   0.902   1.298  0.00  0.00    -0.270 OA
ATOM     14  N   UNL     1       3.858  -1.158   2.018  0.00  0.00    -0.308 N 
ATOM     15  H   UNL     1       3.677  -2.109   1.948  0.00  0.00    +0.149 HD
BRANCH  14  16
ATOM     16  C   UNL     1       4.829  -0.666   2.998  0.00  0.00    +0.073 C 
ATOM     17  C   UNL     1       6.194  -0.506   2.328  0.00  0.00    +0.022 C 
ATOM     18  C   UNL     1       7.208   0.007   3.352  0.00  0.00    +0.002 C 
ATOM     19  C   UNL     1       7.320  -0.993   4.504  0.00  0.00    +0.000 C 
ATOM     20  C   UNL     1       5.954  -1.153   5.175  0.00  0.00    +0.002 C 
ATOM     21  C   UNL     1       4.940  -1.667   4.151  0.00  0.00    +0.022 C 
ENDBRANCH  14  16
ENDBRANCH  10  12
BRANCH   6  22
ATOM     22  C   UNL     1      -1.868  -3.187  -3.911  0.00  0.00    +0.022 C 
ATOM     23  C   UNL     1      -1.497  -3.006  -5.384  0.00  0.00    +0.019 C 
ATOM     24  C   UNL     1      -1.684  -4.653  -3.515  0.00  0.00    +0.019 C 
ATOM     25  C   UNL     1      -3.328  -2.781  -3.699  0.00  0.00    +0.019 C 
ENDBRANCH   6  22
TORSDOF 3
