REMARK  Name = ZINC67332489
REMARK  8 active torsions:
REMARK  status: ('A' for Active; 'I' for Inactive)
REMARK    1  A    between atoms: C_3  and  C_6
REMARK    2  A    between atoms: C_6  and  N_7
REMARK    3  A    between atoms: N_10  and  C_11
REMARK    4  A    between atoms: C_11  and  C_12
REMARK    5  A    between atoms: N_14  and  C_15
REMARK    6  A    between atoms: C_15  and  C_16
REMARK    7  A    between atoms: N_21  and  C_22
REMARK    8  A    between atoms: C_22  and  C_23
REMARK                            x       y       z     vdW  Elec       q    Type
REMARK                         _______ _______ _______ _____ _____    ______ ____
ROOT
ATOM      1  C   UNL     1       7.581   0.510   4.586  0.00  0.00    +0.230 C 
ATOM      2  O   UNL     1       6.645   0.528   5.357  0.00  0.00    -0.274 OA
ATOM      3  N   UNL     1       8.843   0.478   5.057  0.00  0.00    -0.316 N 
ATOM      4  H   UNL     1       9.591   0.464   4.440  0.00  0.00    +0.149 HD
ENDROOT
BRANCH   1   5
ATOM      5  C   UNL     1       7.332   0.523   3.099  0.00  0.00    +0.201 C 
BRANCH   5   9
ATOM      6  N   UNL     1       4.101   0.607   1.347  0.00  0.00    -0.292 N 
ATOM      7  C   UNL     1       5.428   0.575   1.580  0.00  0.00    +0.300 C 
ATOM      8  O   UNL     1       6.208   0.561   0.648  0.00  0.00    -0.253 OA
ATOM      9  N   UNL     1       5.889   0.557   2.846  0.00  0.00    -0.291 N 
ATOM     10  H   UNL     1       3.478   0.617   2.090  0.00  0.00    +0.151 HD
ATOM     11  H   UNL     1       5.266   0.568   3.590  0.00  0.00    +0.151 HD
BRANCH   6  12
ATOM     12  C   UNL     1       3.599   0.625  -0.029  0.00  0.00    +0.180 C 
BRANCH  12  15
ATOM     13  C   UNL     1      -0.016   1.341   0.009  0.00  0.00    +0.041 A 
ATOM     14  C   UNL     1       1.331   1.769  -0.001  0.00  0.00    +0.046 A 
ATOM     15  C   UNL     1       2.092   0.660  -0.014  0.00  0.00    +0.122 A 
ATOM     16  O   UNL     1       1.282  -0.411  -0.012  0.00  0.00    -0.466 OA
ATOM     17  C   UNL     1       0.002  -0.004   0.002  0.00  0.00    +0.195 A 
ENDBRANCH  12  15
ENDBRANCH   6  12
ENDBRANCH   5   9
ENDBRANCH   1   5
BRANCH   3  18
ATOM     18  C   UNL     1       9.085   0.465   6.502  0.00  0.00    +0.089 C 
BRANCH  18  19
ATOM     19  C   UNL     1      10.591   0.429   6.767  0.00  0.00    -0.051 C 
ATOM     20  C   UNL     1      10.863   0.585   8.278  0.00  0.00    -0.016 C 
ATOM     21  C   UNL     1      12.131   1.478   8.314  0.00  0.00    -0.020 C 
ATOM     22  C   UNL     1      11.889   2.416   7.106  0.00  0.00    -0.078 C 
ATOM     23  N   UNL     1      11.248   1.558   6.082  0.00  0.00    +0.383 N 
ATOM     24  H   UNL     1      10.561   2.092   5.572  0.00  0.00    -0.081 HD
BRANCH  23  25
ATOM     25  C   UNL     1      12.265   1.048   5.153  0.00  0.00    -0.075 C 
BRANCH  25  26
ATOM     26  C   UNL     1      12.857   2.212   4.356  0.00  0.00    -0.028 C 
ATOM     27  C   UNL     1      11.771   2.827   3.470  0.00  0.00    +0.002 C 
ATOM     28  C   UNL     1      12.362   3.991   2.672  0.00  0.00    +0.000 C 
ATOM     29  C   UNL     1      13.507   3.479   1.795  0.00  0.00    +0.000 C 
ATOM     30  C   UNL     1      14.593   2.865   2.681  0.00  0.00    +0.000 C 
ATOM     31  C   UNL     1      14.001   1.701   3.479  0.00  0.00    +0.002 C 
ENDBRANCH  25  26
ENDBRANCH  23  25
ENDBRANCH  18  19
ENDBRANCH   3  18
TORSDOF 8
