REMARK  Name = ZINC40105311
REMARK  12 active torsions:
REMARK  status: ('A' for Active; 'I' for Inactive)
REMARK    1  A    between atoms: C_1  and  C_2
REMARK    2  A    between atoms: C_3  and  C_33
REMARK    3  A    between atoms: C_7  and  N_18
REMARK    4  A    between atoms: C_9  and  C_11
REMARK    5  A    between atoms: C_11  and  N_12
REMARK    6  A    between atoms: N_18  and  C_19
REMARK    7  A    between atoms: C_19  and  C_20
REMARK    8  A    between atoms: C_20  and  C_21
REMARK    9  A    between atoms: C_21  and  C_22
REMARK   10  A    between atoms: C_21  and  C_28
REMARK   11  A    between atoms: C_21  and  O_32
REMARK   12  A    between atoms: N_26  and  C_27
REMARK                            x       y       z     vdW  Elec       q    Type
REMARK                         _______ _______ _______ _____ _____    ______ ____
ROOT
ATOM      1  C   UNL     1      -0.763   1.555   0.152  0.00  0.00    +0.045 C 
ATOM      2  C   UNL     1      -0.567   0.064   0.070  0.00  0.00    -0.028 A 
ATOM      3  C   UNL     1      -0.801  -0.590  -1.078  0.00  0.00    -0.008 A 
ATOM      4  S   UNL     1      -0.435  -2.287  -0.674  0.00  0.00    -0.074 S 
ATOM      5  C   UNL     1       0.023  -2.074   1.026  0.00  0.00    +0.114 A 
ATOM      6  C   UNL     1      -0.116  -0.683   1.231  0.00  0.00    +0.051 A 
ATOM      7  C   UNL     1       0.200  -0.226   2.540  0.00  0.00    +0.131 A 
ATOM      8  N   UNL     1       0.595  -1.101   3.451  0.00  0.00    -0.219 NA
ATOM      9  C   UNL     1       0.707  -2.390   3.186  0.00  0.00    +0.116 A 
ATOM     10  N   UNL     1       0.419  -2.875   1.994  0.00  0.00    -0.227 NA
ATOM     11  C   UNL     1      -1.265  -0.023  -2.395  0.00  0.00    +0.052 C 
ENDROOT
BRANCH   7  12
ATOM     12  N   UNL     1       0.095   1.116   2.857  0.00  0.00    -0.328 N 
ATOM     13  H   UNL     1      -0.236   1.746   2.198  0.00  0.00    +0.147 HD
BRANCH  12  14
ATOM     14  C   UNL     1       0.484   1.587   4.189  0.00  0.00    +0.106 C 
BRANCH  14  15
ATOM     15  C   UNL     1       0.272   3.099   4.277  0.00  0.00    +0.070 C 
BRANCH  15  16
ATOM     16  C   UNL     1       0.823   3.615   5.609  0.00  0.00    +0.220 C 
BRANCH  16  17
ATOM     17  C   UNL     1      -0.015   3.078   6.740  0.00  0.00    +0.150 A 
ATOM     18  N   UNL     1      -1.049   2.291   6.615  0.00  0.00    -0.237 NA
ATOM     19  C   UNL     1      -1.547   2.017   7.830  0.00  0.00    +0.130 A 
ATOM     20  C   UNL     1      -0.793   2.659   8.743  0.00  0.00    +0.106 A 
ATOM     21  N   UNL     1       0.181   3.328   8.053  0.00  0.00    -0.335 N 
ATOM     22  C   UNL     1       1.239   4.162   8.630  0.00  0.00    +0.150 C 
ENDBRANCH  16  17
BRANCH  16  23
ATOM     23  C   UNL     1       0.779   5.144   5.621  0.00  0.00    +0.425 C 
ATOM     24  F   UNL     1      -0.535   5.574   5.406  0.00  0.00    -0.167 F 
ATOM     25  F   UNL     1       1.226   5.613   6.861  0.00  0.00    -0.167 F 
ATOM     26  F   UNL     1       1.605   5.643   4.609  0.00  0.00    -0.167 F 
ENDBRANCH  16  23
BRANCH  16  27
ATOM     27  O   UNL     1       2.174   3.176   5.767  0.00  0.00    -0.373 OA
ATOM     28  H   UNL     1       2.277   2.214   5.768  0.00  0.00    +0.211 HD
ENDBRANCH  16  27
ENDBRANCH  15  16
ENDBRANCH  14  15
ENDBRANCH  12  14
ENDBRANCH   7  12
BRANCH   9  29
ATOM     29  C   UNL     1       1.164  -3.328   4.274  0.00  0.00    -0.001 C 
BRANCH  29  30
ATOM     30  N   UNL     1      -0.004  -3.827   5.012  0.00  0.00    +0.384 N 
ATOM     31  C   UNL     1      -0.839  -4.635   4.116  0.00  0.00    -0.078 C 
ATOM     32  C   UNL     1      -2.098  -5.090   4.857  0.00  0.00    -0.019 C 
ATOM     33  C   UNL     1      -1.692  -5.928   6.073  0.00  0.00    -0.004 C 
ATOM     34  C   UNL     1      -0.761  -5.101   6.964  0.00  0.00    -0.019 C 
ATOM     35  C   UNL     1       0.448  -4.645   6.144  0.00  0.00    -0.078 C 
ATOM     36  H   UNL     1      -0.541  -3.046   5.356  0.00  0.00    -0.081 HD
ENDBRANCH  29  30
ENDBRANCH   9  29
TORSDOF 9
