REMARK  Name = ZINC00880544
REMARK  6 active torsions:
REMARK  status: ('A' for Active; 'I' for Inactive)
REMARK    1  A    between atoms: C_1  and  C_2
REMARK    2  A    between atoms: C_5  and  C_30
REMARK    3  A    between atoms: C_9  and  C_14
REMARK    4  A    between atoms: C_14  and  N_15
REMARK    5  A    between atoms: N_15  and  C_16
REMARK    6  A    between atoms: N_23  and  C_24
REMARK                            x       y       z     vdW  Elec       q    Type
REMARK                         _______ _______ _______ _____ _____    ______ ____
ROOT
ATOM      1  N   UNL     1       2.976   3.898   1.355  0.00  0.00    -0.278 N 
ATOM      2  C   UNL     1       3.861   3.053   1.922  0.00  0.00    +0.303 C 
ATOM      3  O   UNL     1       4.156   2.016   1.361  0.00  0.00    -0.253 OA
ATOM      4  N   UNL     1       4.418   3.359   3.111  0.00  0.00    -0.296 N 
ATOM      5  H   UNL     1       4.131   4.151   3.591  0.00  0.00    +0.151 HD
ENDROOT
BRANCH   4   6
ATOM      6  C   UNL     1       5.456   2.494   3.676  0.00  0.00    +0.074 C 
ATOM      7  C   UNL     1       4.800   1.345   4.445  0.00  0.00    +0.022 C 
ATOM      8  C   UNL     1       5.885   0.442   5.036  0.00  0.00    +0.002 C 
ATOM      9  C   UNL     1       6.763   1.256   5.988  0.00  0.00    +0.000 C 
ATOM     10  C   UNL     1       7.419   2.406   5.220  0.00  0.00    +0.002 C 
ATOM     11  C   UNL     1       6.335   3.308   4.628  0.00  0.00    +0.022 C 
ENDBRANCH   4   6
BRANCH   1  12
ATOM     12  C   UNL     1       2.530   5.088   2.083  0.00  0.00    +0.078 C 
ATOM     13  C   UNL     1       3.745   5.956   2.471  0.00  0.00    +0.022 C 
ATOM     14  C   UNL     1       3.386   6.510   3.872  0.00  0.00    +0.002 C 
ATOM     15  C   UNL     1       2.670   5.309   4.540  0.00  0.00    +0.002 C 
ATOM     16  C   UNL     1       1.847   4.677   3.399  0.00  0.00    +0.022 C 
ENDBRANCH   1  12
BRANCH   1  17
ATOM     17  C   UNL     1       2.460   3.625   0.012  0.00  0.00    +0.150 C 
BRANCH  17  26
ATOM     18  C   UNL     1      -2.656   4.593   0.104  0.00  0.00    +0.044 C 
ATOM     19  C   UNL     1      -2.481   3.099   0.208  0.00  0.00    -0.041 A 
ATOM     20  C   UNL     1      -3.575   2.284   0.286  0.00  0.00    +0.004 A 
ATOM     21  C   UNL     1      -3.424   0.907   0.382  0.00  0.00    +0.005 A 
ATOM     22  C   UNL     1      -2.170   0.336   0.390  0.00  0.00    -0.026 A 
ATOM     23  C   UNL     1      -1.042   1.145   0.301  0.00  0.00    +0.052 A 
ATOM     24  C   UNL     1      -1.199   2.541   0.209  0.00  0.00    +0.002 A 
ATOM     25  C   UNL     1      -0.006   3.384   0.109  0.00  0.00    +0.020 A 
ATOM     26  C   UNL     1       1.212   2.786   0.114  0.00  0.00    +0.035 A 
ATOM     27  C   UNL     1       1.314   1.382   0.214  0.00  0.00    +0.254 A 
ATOM     28  O   UNL     1       2.418   0.866   0.217  0.00  0.00    -0.268 OA
ATOM     29  N   UNL     1       0.224   0.600   0.306  0.00  0.00    -0.322 N 
ATOM     30  H   UNL     1       0.334  -0.391   0.379  0.00  0.00    +0.169 HD
ATOM     31  C   UNL     1      -2.021  -1.160   0.495  0.00  0.00    +0.046 C 
ENDBRANCH  17  26
ENDBRANCH   1  17
TORSDOF 4
