REMARK  Name = ZINC38726340
REMARK  15 active torsions:
REMARK  status: ('A' for Active; 'I' for Inactive)
REMARK    1  A    between atoms: C_1  and  C_2
REMARK    2  A    between atoms: C_2  and  O_3
REMARK    3  A    between atoms: O_3  and  C_4
REMARK    4  A    between atoms: C_15  and  C_25
REMARK    5  A    between atoms: N_17  and  C_20
REMARK    6  A    between atoms: C_20  and  C_21
REMARK    7  A    between atoms: C_21  and  N_22
REMARK    8  A    between atoms: N_22  and  C_23
REMARK    9  A    between atoms: N_22  and  C_24
REMARK   10  A    between atoms: C_28  and  O_34
REMARK   11  A    between atoms: C_29  and  O_31
REMARK   12  A    between atoms: O_31  and  C_32
REMARK   13  A    between atoms: C_32  and  C_33
REMARK   14  A    between atoms: O_34  and  C_35
REMARK   15  A    between atoms: C_35  and  C_36
REMARK                            x       y       z     vdW  Elec       q    Type
REMARK                         _______ _______ _______ _____ _____    ______ ____
ROOT
ATOM      1  C   UNL     1      -1.498  -1.847   0.006  0.00  0.00    +0.124 A 
ATOM      2  C   UNL     1      -0.376  -2.674  -0.003  0.00  0.00    +0.046 A 
ATOM      3  C   UNL     1      -0.524  -4.031  -0.006  0.00  0.00    +0.019 A 
ATOM      4  C   UNL     1      -1.804  -4.589   0.001  0.00  0.00    +0.065 A 
ATOM      5  C   UNL     1      -2.945  -3.766   0.004  0.00  0.00    +0.143 A 
ATOM      6  C   UNL     1      -2.772  -2.385   0.016  0.00  0.00    +0.092 A 
ATOM      7  O   UNL     1      -4.200  -4.271  -0.003  0.00  0.00    -0.449 OA
ATOM      8  C   UNL     1      -4.391  -5.585   0.225  0.00  0.00    +0.199 A 
ATOM      9  C   UNL     1      -3.365  -6.487   0.236  0.00  0.00    +0.072 A 
ATOM     10  C   UNL     1      -1.980  -6.061   0.006  0.00  0.00    +0.199 A 
ATOM     11  O   UNL     1      -1.061  -6.843  -0.165  0.00  0.00    -0.287 OA
ATOM     12  C   UNL     1      -3.947  -7.835   0.510  0.00  0.00    +0.145 C 
ATOM     13  N   UNL     1      -5.396  -7.623   0.661  0.00  0.00    -0.285 N 
ATOM     14  C   UNL     1      -5.645  -6.309   0.494  0.00  0.00    +0.283 C 
ATOM     15  O   UNL     1      -6.745  -5.795   0.555  0.00  0.00    -0.267 OA
ENDROOT
BRANCH  12  16
ATOM     16  C   UNL     1      -3.368  -8.404   1.780  0.00  0.00    -0.019 A 
ATOM     17  C   UNL     1      -3.840  -7.973   3.006  0.00  0.00    +0.009 A 
ATOM     18  C   UNL     1      -3.312  -8.492   4.173  0.00  0.00    +0.050 A 
ATOM     19  C   UNL     1      -2.308  -9.445   4.116  0.00  0.00    +0.162 A 
ATOM     20  C   UNL     1      -1.833  -9.879   2.882  0.00  0.00    +0.162 A 
ATOM     21  C   UNL     1      -2.370  -9.358   1.715  0.00  0.00    +0.055 A 
BRANCH  20  22
ATOM     22  O   UNL     1      -0.848 -10.814   2.821  0.00  0.00    -0.489 OA
BRANCH  22  23
ATOM     23  C   UNL     1      -0.411 -11.211   1.520  0.00  0.00    +0.226 C 
ATOM     24  C   UNL     1       0.693 -12.262   1.652  0.00  0.00    +0.048 C 
ENDBRANCH  22  23
ENDBRANCH  20  22
BRANCH  19  25
ATOM     25  O   UNL     1      -1.787  -9.956   5.264  0.00  0.00    -0.489 OA
BRANCH  25  26
ATOM     26  C   UNL     1      -2.322  -9.464   6.495  0.00  0.00    +0.226 C 
ATOM     27  C   UNL     1      -1.618 -10.150   7.667  0.00  0.00    +0.048 C 
ENDBRANCH  25  26
ENDBRANCH  19  25
ENDBRANCH  12  16
BRANCH   1  28
ATOM     28  O   UNL     1      -1.339  -0.499   0.012  0.00  0.00    -0.492 OA
BRANCH  28  30
ATOM     29  C   UNL     1      -0.019   1.526   0.010  0.00  0.00    +0.048 C 
ATOM     30  C   UNL     1       0.002  -0.004   0.002  0.00  0.00    +0.225 C 
ENDBRANCH  28  30
ENDBRANCH   1  28
BRANCH  13  31
ATOM     31  C   UNL     1      -6.393  -8.659   0.943  0.00  0.00    +0.090 C 
BRANCH  31  32
ATOM     32  C   UNL     1      -6.561  -8.807   2.456  0.00  0.00    -0.060 C 
BRANCH  32  33
ATOM     33  N   UNL     1      -7.560  -9.846   2.739  0.00  0.00    +0.377 N 
ATOM     34  C   UNL     1      -7.635 -10.072   4.188  0.00  0.00    -0.097 C 
ATOM     35  C   UNL     1      -8.873  -9.411   2.242  0.00  0.00    -0.097 C 
ATOM     36  H   UNL     1      -7.294 -10.703   2.278  0.00  0.00    -0.083 HD
ENDBRANCH  32  33
ENDBRANCH  31  32
ENDBRANCH  13  31
TORSDOF 10
