REMARK  Name = ZINC12699332
REMARK  9 active torsions:
REMARK  status: ('A' for Active; 'I' for Inactive)
REMARK    1  A    between atoms: C_1  and  C_2
REMARK    2  A    between atoms: C_5  and  C_36
REMARK    3  A    between atoms: C_13  and  S_21
REMARK    4  A    between atoms: N_14  and  C_15
REMARK    5  A    between atoms: C_15  and  C_16
REMARK    6  A    between atoms: S_21  and  C_22
REMARK    7  A    between atoms: C_22  and  C_23
REMARK    8  A    between atoms: N_25  and  N_26
REMARK    9  A    between atoms: C_27  and  C_29
REMARK                            x       y       z     vdW  Elec       q    Type
REMARK                         _______ _______ _______ _____ _____    ______ ____
ROOT
ATOM      1  C   UNL     1      -2.136  -1.391  -1.040  0.00  0.00    +0.009 C 
ATOM      2  C   UNL     1      -1.452  -1.934   0.217  0.00  0.00    +0.004 C 
ATOM      3  C   UNL     1      -2.118  -1.339   1.459  0.00  0.00    +0.009 C 
ATOM      4  C   UNL     1      -1.456  -1.906   2.717  0.00  0.00    +0.004 C 
ATOM      5  C   UNL     1       0.026  -1.517   2.729  0.00  0.00    +0.111 C 
ATOM      6  N   UNL     1       0.642  -1.960   1.470  0.00  0.00    -0.299 N 
ATOM      7  C   UNL     1       0.030  -1.546   0.200  0.00  0.00    +0.111 C 
ATOM      8  C   UNL     1       1.781  -2.755   1.481  0.00  0.00    +0.221 A 
ATOM      9  N   UNL     1       1.807  -4.061   1.586  0.00  0.00    -0.112 NA
ATOM     10  N   UNL     1       3.146  -4.471   1.556  0.00  0.00    -0.121 NA
ATOM     11  C   UNL     1       3.894  -3.401   1.434  0.00  0.00    +0.194 A 
ATOM     12  N   UNL     1       3.069  -2.313   1.378  0.00  0.00    -0.283 N 
ATOM     13  C   UNL     1      -2.144  -1.336   3.958  0.00  0.00    +0.009 C 
ENDROOT
BRANCH  12  14
ATOM     14  C   UNL     1       3.492  -0.917   1.237  0.00  0.00    +0.201 C 
BRANCH  14  15
ATOM     15  C   UNL     1       3.725  -0.323   2.602  0.00  0.00    +0.125 A 
ATOM     16  C   UNL     1       4.890  -0.327   3.274  0.00  0.00    +0.046 A 
ATOM     17  C   UNL     1       4.657   0.333   4.503  0.00  0.00    +0.041 A 
ATOM     18  C   UNL     1       3.363   0.702   4.508  0.00  0.00    +0.195 A 
ATOM     19  O   UNL     1       2.805   0.307   3.352  0.00  0.00    -0.466 OA
ENDBRANCH  14  15
ENDBRANCH  12  14
BRANCH  11  20
ATOM     20  S   UNL     1       5.654  -3.372   1.349  0.00  0.00    -0.077 S 
BRANCH  20  21
ATOM     21  C   UNL     1       6.128  -5.119   1.469  0.00  0.00    +0.174 C 
BRANCH  21  22
ATOM     22  C   UNL     1       7.630  -5.237   1.408  0.00  0.00    +0.239 C 
ATOM     23  O   UNL     1       8.312  -4.241   1.295  0.00  0.00    -0.273 OA
ATOM     24  N   UNL     1       8.213  -6.449   1.479  0.00  0.00    -0.233 N 
ATOM     25  H   UNL     1       7.667  -7.246   1.569  0.00  0.00    +0.173 HD
BRANCH  24  26
ATOM     26  N   UNL     1       9.609  -6.559   1.423  0.00  0.00    -0.230 N 
ATOM     27  C   UNL     1      10.193  -7.772   1.494  0.00  0.00    +0.263 C 
ATOM     28  O   UNL     1       9.508  -8.771   1.607  0.00  0.00    -0.269 OA
ATOM     29  H   UNL     1      10.155  -5.763   1.332  0.00  0.00    +0.173 HD
BRANCH  27  30
ATOM     30  C   UNL     1      11.664  -7.888   1.434  0.00  0.00    +0.073 A 
ATOM     31  C   UNL     1      12.454  -6.743   1.310  0.00  0.00    +0.016 A 
ATOM     32  C   UNL     1      13.826  -6.858   1.255  0.00  0.00    +0.001 A 
ATOM     33  C   UNL     1      14.424  -8.105   1.322  0.00  0.00    +0.003 A 
ATOM     34  C   UNL     1      13.651  -9.244   1.444  0.00  0.00    +0.039 A 
ATOM     35  C   UNL     1      12.273  -9.145   1.508  0.00  0.00    +0.136 A 
ATOM     36  F   UNL     1      11.518 -10.258   1.633  0.00  0.00    -0.205 F 
ENDBRANCH  27  30
ENDBRANCH  24  26
ENDBRANCH  21  22
ENDBRANCH  20  21
ENDBRANCH  11  20
TORSDOF 7
