REMARK  Name = ZINC10703179
REMARK  10 active torsions:
REMARK  status: ('A' for Active; 'I' for Inactive)
REMARK    1  A    between atoms: C_1  and  C_2
REMARK    2  A    between atoms: C_2  and  O_3
REMARK    3  A    between atoms: O_3  and  C_4
REMARK    4  A    between atoms: C_7  and  C_9
REMARK    5  A    between atoms: C_13  and  N_14
REMARK    6  A    between atoms: C_15  and  C_17
REMARK    7  A    between atoms: C_17  and  C_18
REMARK    8  A    between atoms: C_21  and  C_25
REMARK    9  A    between atoms: C_22  and  C_24
REMARK   10  A    between atoms: C_27  and  C_31
REMARK                            x       y       z     vdW  Elec       q    Type
REMARK                         _______ _______ _______ _____ _____    ______ ____
ROOT
ATOM      1  C   UNL     1      -0.171   1.654  -2.551  0.00  0.00    +0.069 A 
ATOM      2  C   UNL     1      -0.755   1.593  -1.222  0.00  0.00    -0.023 A 
ATOM      3  C   UNL     1      -2.032   2.025  -1.135  0.00  0.00    -0.004 A 
ATOM      4  S   UNL     1      -2.461   2.506  -2.783  0.00  0.00    -0.077 S 
ATOM      5  C   UNL     1      -0.967   2.140  -3.580  0.00  0.00    +0.084 A 
ATOM      6  C   UNL     1      -2.885   2.078   0.095  0.00  0.00    +0.046 C 
ATOM      7  C   UNL     1      -2.223   1.219   1.181  0.00  0.00    -0.009 C 
ATOM      8  C   UNL     1      -0.735   1.582   1.262  0.00  0.00    +0.008 C 
ATOM      9  C   UNL     1      -0.013   1.086   0.008  0.00  0.00    +0.037 C 
ATOM     10  C   UNL     1      -2.890   1.492   2.530  0.00  0.00    +0.008 C 
ENDROOT
BRANCH   1  14
ATOM     11  C   UNL     1       3.487   1.699  -2.919  0.00  0.00    +0.407 C 
ATOM     12  O   UNL     1       3.715   0.543  -3.215  0.00  0.00    -0.226 OA
ATOM     13  N   UNL     1       2.220   2.100  -2.693  0.00  0.00    -0.217 N 
ATOM     14  C   UNL     1       1.206   1.218  -2.796  0.00  0.00    +0.255 C 
ATOM     15  O   UNL     1       1.434   0.060  -3.094  0.00  0.00    -0.270 OA
ATOM     16  H   UNL     1       2.038   3.022  -2.456  0.00  0.00    +0.161 HD
BRANCH  11  17
ATOM     17  O   UNL     1       4.500   2.579  -2.815  0.00  0.00    -0.450 OA
BRANCH  17  19
ATOM     18  C   UNL     1       6.849   3.215  -2.908  0.00  0.00    +0.048 C 
ATOM     19  C   UNL     1       5.838   2.078  -3.072  0.00  0.00    +0.230 C 
ENDBRANCH  17  19
ENDBRANCH  11  17
ENDBRANCH   1  14
BRANCH   5  20
ATOM     20  N   UNL     1      -0.644   2.295  -4.919  0.00  0.00    -0.279 N 
ATOM     21  C   UNL     1      -1.556   2.789  -5.779  0.00  0.00    +0.222 C 
ATOM     22  O   UNL     1      -2.660   3.097  -5.382  0.00  0.00    -0.275 OA
ATOM     23  H   UNL     1       0.239   2.048  -5.237  0.00  0.00    +0.155 HD
BRANCH  21  24
ATOM     24  C   UNL     1      -1.205   2.957  -7.235  0.00  0.00    +0.131 C 
BRANCH  24  25
ATOM     25  C   UNL     1      -2.390   3.522  -7.976  0.00  0.00    -0.038 A 
ATOM     26  C   UNL     1      -3.321   2.672  -8.543  0.00  0.00    +0.004 A 
ATOM     27  C   UNL     1      -4.409   3.190  -9.218  0.00  0.00    +0.004 A 
ATOM     28  C   UNL     1      -4.563   4.559  -9.334  0.00  0.00    -0.048 A 
ATOM     29  C   UNL     1      -3.630   5.410  -8.771  0.00  0.00    -0.047 A 
ATOM     30  C   UNL     1      -2.543   4.891  -8.092  0.00  0.00    +0.007 A 
ATOM     31  C   UNL     1      -3.798   6.902  -8.898  0.00  0.00    +0.044 C 
ATOM     32  C   UNL     1      -5.748   5.124 -10.074  0.00  0.00    +0.044 C 
ENDBRANCH  24  25
ENDBRANCH  21  24
ENDBRANCH   5  20
TORSDOF 6
