REMARK  Name = ZINC66864828
REMARK  8 active torsions:
REMARK  status: ('A' for Active; 'I' for Inactive)
REMARK    1  A    between atoms: C_1  and  C_2
REMARK    2  A    between atoms: C_2  and  C_3
REMARK    3  A    between atoms: C_3  and  C_5
REMARK    4  A    between atoms: C_3  and  N_6
REMARK    5  A    between atoms: N_6  and  C_7
REMARK    6  A    between atoms: N_6  and  C_14
REMARK    7  A    between atoms: C_7  and  C_8
REMARK    8  A    between atoms: C_14  and  C_15
REMARK                            x       y       z     vdW  Elec       q    Type
REMARK                         _______ _______ _______ _____ _____    ______ ____
ROOT
ATOM      1  N   UNL     1       2.471  -0.034  -1.066  0.00  0.00    +0.388 N 
ATOM      2  H   UNL     1       3.251  -0.177  -0.442  0.00  0.00    -0.080 HD
ENDROOT
BRANCH   1   3
ATOM      3  C   UNL     1       1.295  -0.748  -0.551  0.00  0.00    -0.071 C 
ATOM      4  C   UNL     1       0.302  -0.984  -1.692  0.00  0.00    -0.013 C 
BRANCH   3   6
ATOM      5  C   UNL     1       2.640  -1.855   1.239  0.00  0.00    +0.002 C 
ATOM      6  C   UNL     1       1.730  -2.093   0.033  0.00  0.00    -0.019 C 
ENDBRANCH   3   6
ENDBRANCH   1   3
BRANCH   1   7
ATOM      7  C   UNL     1       2.172   1.402  -1.154  0.00  0.00    -0.042 C 
BRANCH   7   8
ATOM      8  C   UNL     1       1.974   1.960   0.232  0.00  0.00    -0.064 A 
ATOM      9  C   UNL     1       0.698   2.081   0.752  0.00  0.00    +0.002 A 
ATOM     10  C   UNL     1       0.516   2.592   2.023  0.00  0.00    +0.000 A 
ATOM     11  C   UNL     1       1.609   2.982   2.775  0.00  0.00    +0.000 A 
ATOM     12  C   UNL     1       2.884   2.859   2.256  0.00  0.00    +0.000 A 
ATOM     13  C   UNL     1       3.067   2.344   0.986  0.00  0.00    +0.002 A 
ENDBRANCH   7   8
ENDBRANCH   1   7
BRANCH   1  14
ATOM     14  C   UNL     1       2.810  -0.546  -2.400  0.00  0.00    -0.018 C 
BRANCH  14  15
ATOM     15  C   UNL     1       3.299  -1.966  -2.284  0.00  0.00    +0.074 A 
ATOM     16  C   UNL     1       4.503  -2.281  -1.736  0.00  0.00    +0.119 A 
ATOM     17  S   UNL     1       4.518  -3.956  -1.866  0.00  0.00    +0.048 S 
ATOM     18  N   UNL     1       3.078  -4.180  -2.570  0.00  0.00    -0.109 NA
ATOM     19  N   UNL     1       2.591  -2.995  -2.700  0.00  0.00    -0.147 NA
ATOM     20 CL   UNL     1       5.712  -1.226  -1.074  0.00  0.00    -0.072 Cl
ENDBRANCH  14  15
ENDBRANCH   1  14
TORSDOF 6
