REMARK  Name = ZINC20411458
REMARK  14 active torsions:
REMARK  status: ('A' for Active; 'I' for Inactive)
REMARK    1  A    between atoms: C_1  and  C_2
REMARK    2  A    between atoms: C_3  and  C_19
REMARK    3  A    between atoms: C_4  and  C_18
REMARK    4  A    between atoms: C_5  and  N_15
REMARK    5  A    between atoms: C_6  and  C_11
REMARK    6  A    between atoms: C_7  and  N_8
REMARK    7  A    between atoms: C_11  and  C_12
REMARK    8  A    between atoms: C_11  and  C_13
REMARK    9  A    between atoms: C_11  and  C_14
REMARK   10  A    between atoms: C_19  and  C_21
REMARK   11  A    between atoms: C_21  and  C_22
REMARK   12  A    between atoms: C_29  and  O_30
REMARK   13  A    between atoms: O_30  and  C_31
REMARK   14  A    between atoms: N_37  and  C_38
REMARK                            x       y       z     vdW  Elec       q    Type
REMARK                         _______ _______ _______ _____ _____    ______ ____
ROOT
ATOM      1  C   UNL     1      -2.954  -0.711   1.793  0.00  0.00    +0.166 C 
ATOM      2  O   UNL     1      -3.830  -1.534   1.951  0.00  0.00    -0.292 OA
ENDROOT
BRANCH   1   5
ATOM      3  C   UNL     1      -3.052  -0.227  -1.058  0.00  0.00    +0.047 C 
ATOM      4  C   UNL     1      -3.340   0.882  -0.079  0.00  0.00    -0.009 A 
ATOM      5  C   UNL     1      -3.289   0.633   1.296  0.00  0.00    +0.028 A 
ATOM      6  C   UNL     1      -3.564   1.667   2.197  0.00  0.00    -0.009 A 
ATOM      7  C   UNL     1      -3.872   2.925   1.724  0.00  0.00    +0.136 A 
ATOM      8  C   UNL     1      -3.920   3.163   0.361  0.00  0.00    +0.019 A 
ATOM      9  C   UNL     1      -3.655   2.144  -0.536  0.00  0.00    +0.136 A 
ATOM     10  C   UNL     1      -3.518   1.409   3.681  0.00  0.00    +0.047 C 
BRANCH   8  11
ATOM     11  C   UNL     1      -4.263   4.540  -0.147  0.00  0.00    -0.008 C 
ATOM     12  C   UNL     1      -4.976   4.422  -1.496  0.00  0.00    +0.016 C 
ATOM     13  C   UNL     1      -5.181   5.240   0.856  0.00  0.00    +0.016 C 
ATOM     14  C   UNL     1      -2.979   5.354  -0.319  0.00  0.00    +0.016 C 
ENDBRANCH   8  11
BRANCH   9  15
ATOM     15  N   UNL     1      -3.709   2.409  -1.992  0.00  0.00    +0.057 N 
ATOM     16  O   UNL     1      -4.723   2.159  -2.619  0.00  0.00    -0.126 OA
ATOM     17  O   UNL     1      -2.740   2.878  -2.562  0.00  0.00    -0.126 OA
ENDBRANCH   9  15
BRANCH   7  18
ATOM     18  N   UNL     1      -4.157   4.022   2.676  0.00  0.00    +0.057 N 
ATOM     19  O   UNL     1      -5.271   4.139   3.154  0.00  0.00    -0.126 OA
ATOM     20  O   UNL     1      -3.278   4.808   2.980  0.00  0.00    -0.126 OA
ENDBRANCH   7  18
ENDBRANCH   1   5
BRANCH   1  21
ATOM     21  C   UNL     1      -1.522  -1.066   2.099  0.00  0.00    +0.103 C 
BRANCH  21  22
ATOM     22  C   UNL     1      -1.453  -2.503   2.620  0.00  0.00    +0.098 C 
ATOM     23  C   UNL     1      -2.379  -2.649   3.800  0.00  0.00    +0.019 A 
ATOM     24  C   UNL     1      -3.186  -3.756   3.959  0.00  0.00    -0.034 A 
ATOM     25  C   UNL     1      -4.019  -3.853   5.063  0.00  0.00    +0.053 A 
ATOM     26  C   UNL     1      -4.051  -2.844   6.011  0.00  0.00    +0.170 A 
ATOM     27  C   UNL     1      -3.241  -1.724   5.853  0.00  0.00    +0.208 A 
ATOM     28  C   UNL     1      -2.407  -1.631   4.747  0.00  0.00    +0.170 A 
ATOM     29  O   UNL     1      -3.451  -0.881   6.906  0.00  0.00    -0.449 OA
ATOM     30  C   UNL     1      -4.091  -1.681   7.917  0.00  0.00    +0.467 C 
ATOM     31  O   UNL     1      -4.768  -2.705   7.164  0.00  0.00    -0.452 OA
ATOM     32  C   UNL     1      -3.192  -4.880   2.955  0.00  0.00    +0.051 C 
ATOM     33  C   UNL     1      -1.948  -4.797   2.070  0.00  0.00    +0.089 C 
ATOM     34  N   UNL     1      -1.839  -3.425   1.548  0.00  0.00    -0.298 NA
ATOM     35  C   UNL     1      -0.886  -3.362   0.431  0.00  0.00    +0.105 C 
BRANCH  28  36
ATOM     36  O   UNL     1      -1.614  -0.537   4.589  0.00  0.00    -0.491 OA
ATOM     37  C   UNL     1      -0.307  -0.596   5.164  0.00  0.00    +0.277 C 
ENDBRANCH  28  36
ENDBRANCH  21  22
ENDBRANCH   1  21
TORSDOF 7
