REMARK  Name = ZINC59057923
REMARK  9 active torsions:
REMARK  status: ('A' for Active; 'I' for Inactive)
REMARK    1  A    between atoms: C_1  and  C_2
REMARK    2  A    between atoms: C_5  and  C_32
REMARK    3  A    between atoms: N_8  and  C_10
REMARK    4  A    between atoms: C_10  and  C_11
REMARK    5  A    between atoms: C_14  and  C_17
REMARK    6  A    between atoms: C_17  and  N_18
REMARK    7  A    between atoms: C_19  and  C_21
REMARK    8  A    between atoms: C_21  and  C_22
REMARK    9  A    between atoms: C_25  and  C_27
REMARK                            x       y       z     vdW  Elec       q    Type
REMARK                         _______ _______ _______ _____ _____    ______ ____
ROOT
ATOM      1  C   UNL     1       2.971  -2.034   2.241  0.00  0.00    -0.064 A 
ATOM      2  C   UNL     1       3.870  -2.852   1.582  0.00  0.00    +0.002 A 
ATOM      3  C   UNL     1       5.189  -2.460   1.446  0.00  0.00    +0.005 A 
ATOM      4  C   UNL     1       5.609  -1.252   1.969  0.00  0.00    -0.030 A 
ATOM      5  C   UNL     1       4.710  -0.434   2.628  0.00  0.00    +0.005 A 
ATOM      6  C   UNL     1       3.390  -0.823   2.760  0.00  0.00    +0.002 A 
ENDROOT
BRANCH   1   7
ATOM      7  C   UNL     1       1.534  -2.461   2.390  0.00  0.00    -0.043 C 
BRANCH   7  13
ATOM      8  C   UNL     1      -0.019   1.526   0.010  0.00  0.00    +0.005 C 
ATOM      9  C   UNL     1       0.002  -0.004   0.002  0.00  0.00    -0.031 C 
ATOM     10  C   UNL     1      -1.434  -0.535   0.015  0.00  0.00    +0.003 C 
ATOM     11  C   UNL     1      -1.402  -2.064   0.086  0.00  0.00    -0.031 C 
ATOM     12  C   UNL     1      -0.613  -2.496   1.324  0.00  0.00    -0.075 C 
ATOM     13  N   UNL     1       0.758  -1.980   1.239  0.00  0.00    +0.383 N 
ATOM     14  C   UNL     1       0.740  -0.512   1.242  0.00  0.00    -0.075 C 
ATOM     15  C   UNL     1      -0.728  -2.620  -1.170  0.00  0.00    +0.005 C 
ATOM     16  H   UNL     1       1.188  -2.307   0.386  0.00  0.00    -0.081 HD
ENDBRANCH   7  13
ENDBRANCH   1   7
BRANCH   4  17
ATOM     17  C   UNL     1       7.047  -0.825   1.821  0.00  0.00    +0.139 C 
BRANCH  17  18
ATOM     18  N   UNL     1       7.205  -0.064   0.580  0.00  0.00    -0.311 N 
ATOM     19  C   UNL     1       8.415   0.422   0.237  0.00  0.00    +0.219 C 
ATOM     20  O   UNL     1       9.372   0.229   0.956  0.00  0.00    -0.275 OA
ATOM     21  H   UNL     1       6.440   0.090   0.004  0.00  0.00    +0.149 HD
BRANCH  19  22
ATOM     22  C   UNL     1       8.578   1.205  -1.040  0.00  0.00    +0.151 C 
BRANCH  22  23
ATOM     23  C   UNL     1      10.016   1.631  -1.188  0.00  0.00    +0.058 A 
ATOM     24  C   UNL     1      10.706   1.317  -2.316  0.00  0.00    +0.071 A 
ATOM     25  S   UNL     1      12.295   2.050  -1.946  0.00  0.00    -0.072 S 
ATOM     26  C   UNL     1      11.869   2.694  -0.334  0.00  0.00    +0.144 A 
ATOM     27  N   UNL     1      10.601   2.311  -0.230  0.00  0.00    -0.240 NA
BRANCH  26  28
ATOM     28  C   UNL     1      12.697   3.449   0.619  0.00  0.00    +0.160 A 
ATOM     29  C   UNL     1      13.996   3.816   0.434  0.00  0.00    +0.052 A 
ATOM     30  C   UNL     1      14.388   4.517   1.591  0.00  0.00    +0.042 A 
ATOM     31  C   UNL     1      13.323   4.545   2.416  0.00  0.00    +0.196 A 
ATOM     32  O   UNL     1      12.302   3.904   1.824  0.00  0.00    -0.461 OA
ENDBRANCH  26  28
ENDBRANCH  22  23
ENDBRANCH  19  22
ENDBRANCH  17  18
ENDBRANCH   4  17
TORSDOF 7
