REMARK  Name = ZINC13080597
REMARK  6 active torsions:
REMARK  status: ('A' for Active; 'I' for Inactive)
REMARK    1  A    between atoms: C_1  and  C_2
REMARK    2  A    between atoms: C_6  and  N_8
REMARK    3  A    between atoms: C_9  and  C_11
REMARK    4  A    between atoms: C_12  and  C_35
REMARK    5  A    between atoms: C_16  and  C_18
REMARK    6  A    between atoms: C_27  and  C_30
REMARK                            x       y       z     vdW  Elec       q    Type
REMARK                         _______ _______ _______ _____ _____    ______ ____
ROOT
ATOM      1  C   UNL     1       0.147  -4.470   3.805  0.00  0.00    +0.043 C 
ATOM      2  C   UNL     1       0.235  -5.804   3.932  0.00  0.00    +0.014 C 
ATOM      3  N   UNL     1       0.271  -6.380   5.172  0.00  0.00    -0.321 N 
ATOM      4  C   UNL     1      -0.172  -5.696   6.272  0.00  0.00    +0.016 C 
ATOM      5  C   UNL     1      -0.276  -4.351   6.246  0.00  0.00    +0.024 C 
ATOM      6  C   UNL     1       0.100  -3.573   5.007  0.00  0.00    +0.090 C 
ATOM      7  C   UNL     1      -0.727  -3.635   7.369  0.00  0.00    +0.162 C 
ATOM      8  O   UNL     1      -0.824  -2.426   7.307  0.00  0.00    -0.292 OA
ATOM      9  C   UNL     1      -1.091  -4.341   8.647  0.00  0.00    +0.091 C 
ATOM     10  C   UNL     1      -0.275  -5.634   8.753  0.00  0.00    +0.068 C 
ATOM     11  C   UNL     1      -0.544  -6.480   7.506  0.00  0.00    +0.062 C 
ATOM     12  C   UNL     1       0.295  -6.671   2.702  0.00  0.00    +0.061 C 
ATOM     13  H   UNL     1       0.613  -7.282   5.273  0.00  0.00    +0.152 HD
ENDROOT
BRANCH   6  14
ATOM     14  C   UNL     1       1.453  -2.941   5.205  0.00  0.00    -0.035 A 
ATOM     15  C   UNL     1       2.564  -3.736   5.414  0.00  0.00    +0.004 A 
ATOM     16  C   UNL     1       3.806  -3.156   5.596  0.00  0.00    +0.000 A 
ATOM     17  C   UNL     1       3.936  -1.780   5.569  0.00  0.00    +0.000 A 
ATOM     18  C   UNL     1       2.825  -0.984   5.360  0.00  0.00    +0.000 A 
ATOM     19  C   UNL     1       1.585  -1.565   5.174  0.00  0.00    +0.004 A 
ENDBRANCH   6  14
BRANCH  10  20
ATOM     20  C   UNL     1      -0.690  -6.395   9.986  0.00  0.00    +0.109 A 
ATOM     21  C   UNL     1       0.112  -6.722  11.015  0.00  0.00    +0.045 A 
ATOM     22  C   UNL     1      -0.684  -7.426  11.947  0.00  0.00    +0.041 A 
ATOM     23  C   UNL     1      -1.925  -7.488  11.431  0.00  0.00    +0.195 A 
ATOM     24  O   UNL     1      -1.924  -6.856  10.246  0.00  0.00    -0.468 OA
ENDBRANCH  10  20
BRANCH   1  26
ATOM     25  N   UNL     1       1.226  -3.820   1.769  0.00  0.00    -0.267 N 
ATOM     26  C   UNL     1       0.103  -3.897   2.510  0.00  0.00    +0.248 C 
ATOM     27  O   UNL     1      -0.950  -3.476   2.066  0.00  0.00    -0.270 OA
ATOM     28  H   UNL     1       2.049  -4.219   2.092  0.00  0.00    +0.157 HD
BRANCH  25  34
ATOM     29  C   UNL     1      -1.337  -1.605  -1.617  0.00  0.00    +0.065 C 
ATOM     30  C   UNL     1      -0.006  -2.096  -1.108  0.00  0.00    +0.040 A 
ATOM     31  C   UNL     1       1.131  -1.886  -1.863  0.00  0.00    +0.023 A 
ATOM     32  C   UNL     1       2.355  -2.340  -1.389  0.00  0.00    +0.005 A 
ATOM     33  C   UNL     1       2.390  -2.990  -0.168  0.00  0.00    +0.044 A 
ATOM     34  C   UNL     1       1.205  -3.166   0.539  0.00  0.00    +0.125 A 
ATOM     35  N   UNL     1       0.059  -2.714   0.056  0.00  0.00    -0.237 NA
ENDBRANCH  25  34
ENDBRANCH   1  26
TORSDOF 4
