REMARK  Name = ZINC08942340
REMARK  8 active torsions:
REMARK  status: ('A' for Active; 'I' for Inactive)
REMARK    1  A    between atoms: C_1  and  C_2
REMARK    2  A    between atoms: C_2  and  C_23
REMARK    3  A    between atoms: N_5  and  N_9
REMARK    4  A    between atoms: C_10  and  C_12
REMARK    5  A    between atoms: C_12  and  N_56
REMARK    6  A    between atoms: C_16  and  C_18
REMARK    7  A    between atoms: C_23  and  C_24
REMARK    8  A    between atoms: C_24  and  C_25
REMARK                            x       y       z     vdW  Elec       q    Type
REMARK                         _______ _______ _______ _____ _____    ______ ____
ROOT
ATOM      1  C   UNL     1      -0.652   3.116  -1.331  0.00  0.00    +0.041 C 
ATOM      2  C   UNL     1      -0.753   1.593  -1.232  0.00  0.00    +0.112 C 
ATOM      3  C   UNL     1      -0.207   0.936  -2.484  0.00  0.00    +0.263 C 
ATOM      4  O   UNL     1       0.924   1.008  -2.915  0.00  0.00    -0.271 OA
ATOM      5  N   UNL     1      -1.241   0.257  -3.019  0.00  0.00    -0.137 N 
ATOM      6  C   UNL     1      -2.352   0.391  -2.286  0.00  0.00    +0.326 C 
ATOM      7  O   UNL     1      -3.414  -0.129  -2.567  0.00  0.00    -0.251 OA
ATOM      8  N   UNL     1      -2.163   1.167  -1.204  0.00  0.00    -0.284 N 
ATOM      9  H   UNL     1      -2.826   1.401  -0.535  0.00  0.00    +0.151 HD
ENDROOT
BRANCH   5  10
ATOM     10  N   UNL     1      -1.161  -0.498  -4.197  0.00  0.00    -0.225 N 
ATOM     11  C   UNL     1      -1.701  -0.026  -5.338  0.00  0.00    +0.213 C 
ATOM     12  O   UNL     1      -2.256   1.053  -5.345  0.00  0.00    -0.276 OA
ATOM     13  H   UNL     1      -0.718  -1.361  -4.191  0.00  0.00    +0.173 HD
BRANCH  11  14
ATOM     14  C   UNL     1      -1.615  -0.838  -6.604  0.00  0.00    +0.021 C 
BRANCH  14  19
ATOM     15  C   UNL     1      -1.493   1.079  -8.086  0.00  0.00    -0.077 C 
ATOM     16  C   UNL     1      -1.183   0.951  -9.592  0.00  0.00    -0.020 C 
ATOM     17  C   UNL     1      -2.286  -0.017 -10.095  0.00  0.00    -0.012 C 
ATOM     18  C   UNL     1      -2.437  -0.974  -8.886  0.00  0.00    -0.030 C 
ATOM     19  N   UNL     1      -2.288  -0.100  -7.705  0.00  0.00    +0.390 N 
ATOM     20  H   UNL     1      -3.216   0.203  -7.388  0.00  0.00    -0.080 HD
BRANCH  18  21
ATOM     21  C   UNL     1      -3.803  -1.611  -8.888  0.00  0.00    -0.024 A 
ATOM     22  C   UNL     1      -4.157  -2.872  -9.237  0.00  0.00    +0.009 A 
ATOM     23  C   UNL     1      -5.486  -3.242  -9.156  0.00  0.00    +0.008 A 
ATOM     24  C   UNL     1      -6.398  -2.329  -8.741  0.00  0.00    +0.045 A 
ATOM     25  S   UNL     1      -5.377  -0.897  -8.440  0.00  0.00    -0.103 S 
ENDBRANCH  18  21
ENDBRANCH  14  19
ENDBRANCH  11  14
ENDBRANCH   5  10
BRANCH   2  26
ATOM     26  C   UNL     1      -0.013   1.086   0.008  0.00  0.00    +0.040 C 
BRANCH  26  27
ATOM     27  C   UNL     1      -0.729   1.579   1.267  0.00  0.00    +0.038 C 
BRANCH  27  28
ATOM     28  C   UNL     1       0.000   1.080   2.488  0.00  0.00    -0.047 A 
ATOM     29  C   UNL     1      -0.347  -0.133   3.052  0.00  0.00    +0.003 A 
ATOM     30  C   UNL     1       0.325  -0.593   4.169  0.00  0.00    +0.000 A 
ATOM     31  C   UNL     1       1.337   0.165   4.728  0.00  0.00    +0.000 A 
ATOM     32  C   UNL     1       1.680   1.380   4.167  0.00  0.00    +0.000 A 
ATOM     33  C   UNL     1       1.012   1.838   3.046  0.00  0.00    +0.003 A 
ENDBRANCH  27  28
ENDBRANCH  26  27
ENDBRANCH   2  26
TORSDOF 7
