REMARK  Name = ZINC39624643
REMARK  9 active torsions:
REMARK  status: ('A' for Active; 'I' for Inactive)
REMARK    1  A    between atoms: C_1  and  C_2
REMARK    2  A    between atoms: C_12  and  O_13
REMARK    3  A    between atoms: O_13  and  C_14
REMARK    4  A    between atoms: C_14  and  C_15
REMARK    5  A    between atoms: C_19  and  C_28
REMARK    6  A    between atoms: N_30  and  C_31
REMARK    7  A    between atoms: C_31  and  C_32
REMARK    8  A    between atoms: C_32  and  C_33
REMARK    9  A    between atoms: C_32  and  C_34
REMARK                            x       y       z     vdW  Elec       q    Type
REMARK                         _______ _______ _______ _____ _____    ______ ____
ROOT
ATOM      1  C   UNL     1       0.218  -6.183   3.539  0.00  0.00    +0.253 C 
ATOM      2  O   UNL     1       0.252  -6.521   2.375  0.00  0.00    -0.272 OA
ATOM      3  N   UNL     1       0.195  -7.116   4.512  0.00  0.00    -0.297 N 
ATOM      4  C   UNL     1       0.146  -6.901   5.977  0.00  0.00    +0.121 C 
ATOM      5  C   UNL     1      -0.808  -7.996   6.502  0.00  0.00    +0.100 C 
ATOM      6  C   UNL     1      -0.759  -9.103   5.435  0.00  0.00    -0.004 C 
ATOM      7  C   UNL     1       0.207  -8.591   4.356  0.00  0.00    +0.115 C 
ATOM      8  C   UNL     1      -0.233 -10.400   6.043  0.00  0.00    -0.010 C 
ATOM      9  C   UNL     1      -0.248 -11.500   4.979  0.00  0.00    -0.082 C 
ATOM     10  N   UNL     1      -1.618 -11.688   4.485  0.00  0.00    +0.379 N 
ATOM     11  C   UNL     1      -2.082 -10.465   3.819  0.00  0.00    -0.082 C 
ATOM     12  C   UNL     1      -2.145  -9.321   4.835  0.00  0.00    -0.010 C 
ATOM     13  H   UNL     1      -1.635 -12.454   3.829  0.00  0.00    -0.086 HD
ATOM     14  H   UNL     1      -2.228 -11.899   5.261  0.00  0.00    -0.086 HD
ENDROOT
BRANCH   5  15
ATOM     15  C   UNL     1      -2.208  -7.453   6.633  0.00  0.00    +0.218 C 
ATOM     16  O   UNL     1      -2.589  -6.573   5.891  0.00  0.00    -0.275 OA
ATOM     17  N   UNL     1      -3.036  -7.946   7.575  0.00  0.00    -0.315 N 
ATOM     18  H   UNL     1      -2.731  -8.650   8.169  0.00  0.00    +0.149 HD
BRANCH  17  19
ATOM     19  C   UNL     1      -4.397  -7.418   7.703  0.00  0.00    +0.107 C 
BRANCH  19  20
ATOM     20  C   UNL     1      -5.120  -8.144   8.839  0.00  0.00    -0.000 C 
ATOM     21  C   UNL     1      -6.496  -7.509   9.056  0.00  0.00    +0.009 C 
ATOM     22  C   UNL     1      -5.291  -9.620   8.475  0.00  0.00    +0.009 C 
ENDBRANCH  19  20
ENDBRANCH  17  19
ENDBRANCH   5  15
BRANCH   1  23
ATOM     23  C   UNL     1       0.201  -4.720   3.899  0.00  0.00    +0.324 C 
BRANCH  23  24
ATOM     24  O   UNL     1       0.230  -3.936   2.705  0.00  0.00    -0.479 OA
BRANCH  24  36
ATOM     25  C   UNL     1       0.253   1.998   0.847  0.00  0.00    +0.045 C 
ATOM     26  C   UNL     1       0.264   0.497   0.715  0.00  0.00    -0.033 A 
ATOM     27  C   UNL     1       0.301  -0.095  -0.506  0.00  0.00    +0.096 A 
ATOM     28  C   UNL     1       0.311  -1.503  -0.602  0.00  0.00    +0.338 A 
ATOM     29  O   UNL     1       0.345  -2.022  -1.703  0.00  0.00    -0.245 OA
ATOM     30  O   UNL     1       0.284  -2.284   0.488  0.00  0.00    -0.418 OA
ATOM     31  C   UNL     1       0.247  -1.758   1.732  0.00  0.00    +0.181 A 
ATOM     32  C   UNL     1       0.240  -0.364   1.902  0.00  0.00    +0.024 A 
ATOM     33  C   UNL     1       0.207   0.184   3.188  0.00  0.00    +0.012 A 
ATOM     34  C   UNL     1       0.185  -0.649   4.284  0.00  0.00    +0.004 A 
ATOM     35  C   UNL     1       0.197  -2.026   4.119  0.00  0.00    +0.049 A 
ATOM     36  C   UNL     1       0.219  -2.584   2.854  0.00  0.00    +0.164 A 
ENDBRANCH  24  36
ENDBRANCH  23  24
ENDBRANCH   1  23
TORSDOF 6
