REMARK  Name = ZINC59009324
REMARK  4 active torsions:
REMARK  status: ('A' for Active; 'I' for Inactive)
REMARK    1  A    between atoms: N_13  and  C_17
REMARK    2  A    between atoms: C_17  and  C_18
REMARK    3  A    between atoms: C_21  and  C_23
REMARK    4  A    between atoms: C_23  and  C_24
REMARK                            x       y       z     vdW  Elec       q    Type
REMARK                         _______ _______ _______ _____ _____    ______ ____
ROOT
ATOM      1  C   UNL     1      -0.017   1.377   0.010  0.00  0.00    +0.001 A 
ATOM      2  C   UNL     1       1.171   2.085   0.002  0.00  0.00    +0.004 A 
ATOM      3  C   UNL     1       2.375   1.410  -0.017  0.00  0.00    +0.046 A 
ATOM      4  C   UNL     1       2.398   0.019  -0.027  0.00  0.00    +0.126 A 
ATOM      5  C   UNL     1       1.207  -0.687  -0.013  0.00  0.00    +0.027 A 
ATOM      6  C   UNL     1       0.002  -0.004   0.002  0.00  0.00    +0.010 A 
ATOM      7  C   UNL     1       1.196  -2.190  -0.008  0.00  0.00    +0.144 C 
ATOM      8  C   UNL     1       2.550  -2.740  -0.447  0.00  0.00    +0.081 C 
ATOM      9  C   UNL     1       3.647  -1.989   0.320  0.00  0.00    +0.232 C 
ATOM     10  O   UNL     1       3.600  -0.612  -0.055  0.00  0.00    -0.492 OA
ATOM     11  C   UNL     1       0.098  -2.714  -0.904  0.00  0.00    +0.252 C 
ATOM     12  O   UNL     1      -0.020  -2.541  -2.098  0.00  0.00    -0.272 OA
ATOM     13  N   UNL     1      -0.723  -3.414  -0.095  0.00  0.00    -0.218 N 
ATOM     14  C   UNL     1      -0.295  -3.402   1.173  0.00  0.00    +0.310 C 
ATOM     15  O   UNL     1      -0.867  -3.964   2.086  0.00  0.00    -0.252 OA
ATOM     16  N   UNL     1       0.843  -2.697   1.324  0.00  0.00    -0.281 N 
ATOM     17  H   UNL     1       1.333  -2.553   2.149  0.00  0.00    +0.152 HD
ENDROOT
BRANCH  13  18
ATOM     18  C   UNL     1      -1.935  -4.103  -0.547  0.00  0.00    +0.173 C 
BRANCH  18  19
ATOM     19  C   UNL     1      -1.590  -5.514  -0.949  0.00  0.00    +0.067 A 
ATOM     20  C   UNL     1      -1.730  -6.552  -0.085  0.00  0.00    +0.071 A 
ATOM     21  S   UNL     1      -1.182  -7.909  -1.109  0.00  0.00    -0.080 S 
ATOM     22  C   UNL     1      -0.841  -7.025  -2.500  0.00  0.00    +0.083 A 
ATOM     23  N   UNL     1      -1.144  -5.798  -2.156  0.00  0.00    -0.247 NA
BRANCH  22  24
ATOM     24  C   UNL     1      -0.318  -7.525  -3.822  0.00  0.00    +0.098 C 
BRANCH  24  25
ATOM     25  C   UNL     1       1.188  -7.495  -3.811  0.00  0.00    -0.041 A 
ATOM     26  C   UNL     1       1.861  -6.363  -4.230  0.00  0.00    +0.005 A 
ATOM     27  C   UNL     1       3.242  -6.335  -4.219  0.00  0.00    +0.020 A 
ATOM     28  C   UNL     1       3.953  -7.442  -3.789  0.00  0.00    +0.041 A 
ATOM     29  C   UNL     1       3.280  -8.575  -3.370  0.00  0.00    +0.020 A 
ATOM     30  C   UNL     1       1.897  -8.600  -3.375  0.00  0.00    +0.005 A 
ATOM     31 CL   UNL     1       5.688  -7.408  -3.777  0.00  0.00    -0.084 Cl
ENDBRANCH  24  25
ENDBRANCH  22  24
ENDBRANCH  18  19
ENDBRANCH  13  18
TORSDOF 4
