REMARK  Name = ZINC35966527
REMARK  11 active torsions:
REMARK  status: ('A' for Active; 'I' for Inactive)
REMARK    1  A    between atoms: C_1  and  C_2
REMARK    2  A    between atoms: C_2  and  N_3
REMARK    3  A    between atoms: C_6  and  C_11
REMARK    4  A    between atoms: C_16  and  C_17
REMARK    5  A    between atoms: N_23  and  C_25
REMARK    6  A    between atoms: C_25  and  C_27
REMARK    7  A    between atoms: C_25  and  C_30
REMARK    8  A    between atoms: C_27  and  C_28
REMARK    9  A    between atoms: C_27  and  C_29
REMARK   10  A    between atoms: N_32  and  C_33
REMARK   11  A    between atoms: C_33  and  C_34
REMARK                            x       y       z     vdW  Elec       q    Type
REMARK                         _______ _______ _______ _____ _____    ______ ____
ROOT
ATOM      1  N   UNL     1      -1.228  -0.760  -1.583  0.00  0.00    -0.257 N 
ATOM      2  C   UNL     1      -1.374  -1.241  -2.853  0.00  0.00    +0.042 C 
ATOM      3  C   UNL     1      -0.334  -1.784  -3.519  0.00  0.00    +0.058 C 
ATOM      4  C   UNL     1       1.003  -1.842  -2.809  0.00  0.00    +0.142 C 
ATOM      5  N   UNL     1       1.057  -1.297  -1.442  0.00  0.00    -0.288 N 
ATOM      6  C   UNL     1      -0.070  -0.782  -0.911  0.00  0.00    +0.307 C 
ATOM      7  O   UNL     1      -0.034  -0.326   0.215  0.00  0.00    -0.252 OA
ATOM      8  C   UNL     1      -0.739  -2.203  -4.803  0.00  0.00    +0.247 C 
ATOM      9  O   UNL     1      -0.004  -2.728  -5.619  0.00  0.00    -0.270 OA
ATOM     10  N   UNL     1      -2.044  -1.948  -5.008  0.00  0.00    -0.280 N 
ATOM     11  C   UNL     1      -2.562  -1.314  -3.787  0.00  0.00    +0.160 C 
ATOM     12  H   UNL     1       1.885  -1.306  -0.936  0.00  0.00    +0.151 HD
ENDROOT
BRANCH   4  13
ATOM     13  C   UNL     1       2.007  -1.092  -3.647  0.00  0.00    -0.011 A 
ATOM     14  C   UNL     1       1.950   0.287  -3.724  0.00  0.00    +0.006 A 
ATOM     15  C   UNL     1       2.870   0.975  -4.492  0.00  0.00    +0.000 A 
ATOM     16  C   UNL     1       3.848   0.284  -5.184  0.00  0.00    +0.001 A 
ATOM     17  C   UNL     1       3.905  -1.095  -5.106  0.00  0.00    +0.013 A 
ATOM     18  C   UNL     1       2.987  -1.783  -4.334  0.00  0.00    +0.060 A 
BRANCH  18  19
ATOM     19  C   UNL     1       3.053  -3.285  -4.245  0.00  0.00    +0.418 C 
ATOM     20  F   UNL     1       4.079  -3.757  -5.071  0.00  0.00    -0.166 F 
ATOM     21  F   UNL     1       3.309  -3.664  -2.922  0.00  0.00    -0.166 F 
ATOM     22  F   UNL     1       1.833  -3.831  -4.659  0.00  0.00    -0.166 F 
ENDBRANCH  18  19
ENDBRANCH   4  13
BRANCH   1  24
ATOM     23  C   UNL     1      -2.475   1.313  -1.228  0.00  0.00    +0.025 C 
ATOM     24  C   UNL     1      -2.402  -0.184  -0.922  0.00  0.00    +0.111 C 
ENDBRANCH   1  24
BRANCH  10  25
ATOM     25  C   UNL     1      -2.807  -2.246  -6.223  0.00  0.00    +0.165 C 
BRANCH  25  26
ATOM     26  C   UNL     1      -2.773  -3.729  -6.486  0.00  0.00    +0.234 C 
ATOM     27  O   UNL     1      -1.937  -4.422  -5.947  0.00  0.00    -0.274 OA
ATOM     28  N   UNL     1      -3.673  -4.286  -7.321  0.00  0.00    -0.308 N 
ATOM     29  H   UNL     1      -4.285  -3.723  -7.820  0.00  0.00    +0.149 HD
BRANCH  28  30
ATOM     30  C   UNL     1      -3.726  -5.742  -7.475  0.00  0.00    +0.159 C 
BRANCH  30  31
ATOM     31  C   UNL     1      -4.810  -6.104  -8.458  0.00  0.00    +0.058 A 
ATOM     32  C   UNL     1      -4.487  -6.308  -9.787  0.00  0.00    +0.025 A 
ATOM     33  C   UNL     1      -5.491  -6.641 -10.682  0.00  0.00    +0.003 A 
ATOM     34  C   UNL     1      -6.788  -6.755 -10.207  0.00  0.00    +0.020 A 
ATOM     35  C   UNL     1      -7.035  -6.536  -8.865  0.00  0.00    +0.111 A 
ATOM     36  N   UNL     1      -6.054  -6.226  -8.040  0.00  0.00    -0.258 NA
ENDBRANCH  30  31
ENDBRANCH  28  30
ENDBRANCH  25  26
BRANCH  25  37
ATOM     37  C   UNL     1      -2.187  -1.504  -7.409  0.00  0.00    +0.012 C 
ATOM     38  C   UNL     1      -3.056  -1.712  -8.651  0.00  0.00    +0.009 C 
ATOM     39  C   UNL     1      -2.105  -0.009  -7.089  0.00  0.00    +0.009 C 
ENDBRANCH  25  37
ENDBRANCH  10  25
TORSDOF 8
