REMARK  Name = ZINC36586698
REMARK  13 active torsions:
REMARK  status: ('A' for Active; 'I' for Inactive)
REMARK    1  A    between atoms: C_1  and  C_2
REMARK    2  A    between atoms: C_2  and  C_3
REMARK    3  A    between atoms: C_2  and  C_4
REMARK    4  A    between atoms: C_2  and  N_5
REMARK    5  A    between atoms: N_5  and  C_6
REMARK    6  A    between atoms: C_6  and  C_8
REMARK    7  A    between atoms: C_6  and  C_20
REMARK    8  A    between atoms: C_17  and  O_18
REMARK    9  A    between atoms: O_18  and  C_19
REMARK   10  A    between atoms: N_22  and  C_23
REMARK   11  A    between atoms: C_29  and  C_31
REMARK   12  A    between atoms: C_32  and  O_38
REMARK   13  A    between atoms: C_36  and  O_37
REMARK                            x       y       z     vdW  Elec       q    Type
REMARK                         _______ _______ _______ _____ _____    ______ ____
ROOT
ATOM      1  C   UNL     1       1.866  -0.506  -3.443  0.00  0.00    +0.197 C 
ENDROOT
BRANCH   1   2
ATOM      2  C   UNL     1       3.134  -0.872  -2.715  0.00  0.00    +0.031 A 
ATOM      3  C   UNL     1       4.039  -1.780  -3.286  0.00  0.00    -0.009 A 
ATOM      4  C   UNL     1       3.790  -2.367  -4.539  0.00  0.00    +0.009 A 
ATOM      5  C   UNL     1       4.690  -3.243  -5.063  0.00  0.00    +0.001 A 
ATOM      6  C   UNL     1       5.857  -3.570  -4.375  0.00  0.00    +0.001 A 
ATOM      7  C   UNL     1       6.132  -3.022  -3.160  0.00  0.00    +0.008 A 
ATOM      8  C   UNL     1       5.227  -2.112  -2.587  0.00  0.00    -0.017 A 
ATOM      9  C   UNL     1       5.478  -1.526  -1.334  0.00  0.00    +0.012 A 
ATOM     10  C   UNL     1       4.581  -0.649  -0.808  0.00  0.00    +0.046 A 
ATOM     11  C   UNL     1       3.411  -0.317  -1.498  0.00  0.00    +0.126 A 
BRANCH  11  12
ATOM     12  O   UNL     1       2.537   0.567  -0.949  0.00  0.00    -0.495 OA
ATOM     13  C   UNL     1       2.934   1.200   0.269  0.00  0.00    +0.277 C 
ENDBRANCH  11  12
ENDBRANCH   1   2
BRANCH   1  14
ATOM     14  C   UNL     1       1.868   0.970  -3.745  0.00  0.00    +0.238 C 
ATOM     15  O   UNL     1       1.182   1.725  -3.088  0.00  0.00    -0.273 OA
ATOM     16  N   UNL     1       2.632   1.452  -4.745  0.00  0.00    -0.311 N 
ATOM     17  H   UNL     1       3.180   0.849  -5.270  0.00  0.00    +0.149 HD
BRANCH  16  18
ATOM     18  C   UNL     1       2.634   2.888  -5.039  0.00  0.00    +0.073 C 
ATOM     19  C   UNL     1       1.465   3.220  -5.968  0.00  0.00    +0.022 C 
ATOM     20  C   UNL     1       1.467   4.719  -6.275  0.00  0.00    +0.002 C 
ATOM     21  C   UNL     1       2.784   5.098  -6.956  0.00  0.00    +0.000 C 
ATOM     22  C   UNL     1       3.953   4.766  -6.026  0.00  0.00    +0.002 C 
ATOM     23  C   UNL     1       3.950   3.267  -5.719  0.00  0.00    +0.022 C 
ENDBRANCH  16  18
ENDBRANCH   1  14
BRANCH   1  24
ATOM     24  N   UNL     1       0.710  -0.831  -2.604  0.00  0.00    -0.277 N 
ATOM     25  C   UNL     1       0.889  -1.447  -1.418  0.00  0.00    +0.255 C 
ATOM     26  O   UNL     1       2.014  -1.631  -0.993  0.00  0.00    -0.270 OA
BRANCH  25  27
ATOM     27  C   UNL     1      -0.276  -1.897  -0.638  0.00  0.00    +0.119 A 
ATOM     28  C   UNL     1      -0.830  -3.165  -0.865  0.00  0.00    +0.133 A 
ATOM     29  C   UNL     1      -1.926  -3.578  -0.125  0.00  0.00    +0.046 A 
ATOM     30  C   UNL     1      -2.473  -2.746   0.834  0.00  0.00    +0.007 A 
ATOM     31  C   UNL     1      -1.935  -1.494   1.065  0.00  0.00    +0.046 A 
ATOM     32  C   UNL     1      -0.836  -1.062   0.340  0.00  0.00    +0.133 A 
BRANCH  32  33
ATOM     33  O   UNL     1      -0.305   0.164   0.573  0.00  0.00    -0.506 OA
ATOM     34  H   UNL     1      -0.692   0.869   0.034  0.00  0.00    +0.292 HD
ENDBRANCH  32  33
BRANCH  28  35
ATOM     35  O   UNL     1      -0.296  -3.984  -1.805  0.00  0.00    -0.506 OA
ATOM     36  H   UNL     1       0.400  -4.566  -1.470  0.00  0.00    +0.292 HD
ENDBRANCH  28  35
ENDBRANCH  25  27
BRANCH  24  38
ATOM     37  C   UNL     1      -0.568   0.176  -4.430  0.00  0.00    +0.031 C 
ATOM     38  C   UNL     1      -0.642  -0.487  -3.053  0.00  0.00    +0.030 C 
ATOM     39  C   UNL     1      -1.280   0.482  -2.055  0.00  0.00    +0.031 C 
ATOM     40  C   UNL     1      -1.489  -1.758  -3.143  0.00  0.00    +0.031 C 
ENDBRANCH  24  38
ENDBRANCH   1  24
TORSDOF 9
