REMARK  Name = ZINC01070493
REMARK  4 active torsions:
REMARK  status: ('A' for Active; 'I' for Inactive)
REMARK    1  A    between atoms: C_1  and  S_2
REMARK    2  A    between atoms: S_2  and  C_3
REMARK    3  A    between atoms: C_8  and  N_9
REMARK    4  A    between atoms: C_10  and  C_12
REMARK                            x       y       z     vdW  Elec       q    Type
REMARK                         _______ _______ _______ _____ _____    ______ ____
ROOT
ATOM      1  N   UNL     1      -2.420  -0.041   0.024  0.00  0.00    -0.279 N 
ATOM      2  C   UNL     1      -3.574  -0.730  -0.070  0.00  0.00    +0.270 C 
ATOM      3  O   UNL     1      -3.558  -1.946  -0.076  0.00  0.00    -0.268 OA
ATOM      4  H   UNL     1      -2.438   0.925   0.110  0.00  0.00    +0.155 HD
ENDROOT
BRANCH   2   5
ATOM      5  C   UNL     1      -4.861  -0.009  -0.166  0.00  0.00    +0.168 A 
ATOM      6  C   UNL     1      -6.124  -0.602  -0.268  0.00  0.00    +0.117 A 
ATOM      7  C   UNL     1      -7.061   0.418  -0.334  0.00  0.00    +0.175 A 
ATOM      8  N   UNL     1      -8.398   0.411  -0.437  0.00  0.00    -0.235 NA
ATOM      9  C   UNL     1      -9.075   1.533  -0.482  0.00  0.00    +0.114 A 
ATOM     10  C   UNL     1      -8.407   2.766  -0.421  0.00  0.00    +0.039 A 
ATOM     11  C   UNL     1      -7.057   2.788  -0.316  0.00  0.00    +0.116 A 
ATOM     12  N   UNL     1      -6.373   1.605  -0.272  0.00  0.00    -0.220 N 
ATOM     13  N   UNL     1      -5.010   1.307  -0.163  0.00  0.00    -0.159 NA
ATOM     14 CL   UNL     1      -6.457  -2.305  -0.306  0.00  0.00    -0.077 Cl
ENDBRANCH   2   5
BRANCH   1  20
ATOM     15  C   UNL     1      -0.067  -0.150   0.590  0.00  0.00    +0.029 A 
ATOM     16  C   UNL     1       1.145  -0.825   0.555  0.00  0.00    +0.016 A 
ATOM     17  C   UNL     1       1.229  -2.062  -0.055  0.00  0.00    +0.001 A 
ATOM     18  C   UNL     1       0.111  -2.626  -0.641  0.00  0.00    +0.002 A 
ATOM     19  C   UNL     1      -1.099  -1.959  -0.616  0.00  0.00    +0.024 A 
ATOM     20  C   UNL     1      -1.195  -0.719  -0.002  0.00  0.00    +0.047 A 
BRANCH  15  22
ATOM     21  C   UNL     1       1.502   1.736   1.977  0.00  0.00    +0.090 C 
ATOM     22  S   UNL     1      -0.179   1.425   1.373  0.00  0.00    -0.127 S 
ENDBRANCH  15  22
ENDBRANCH   1  20
TORSDOF 3
