REMARK  Name = ZINC34999945
REMARK  11 active torsions:
REMARK  status: ('A' for Active; 'I' for Inactive)
REMARK    1  A    between atoms: C_1  and  C_2
REMARK    2  A    between atoms: C_7  and  N_8
REMARK    3  A    between atoms: N_11  and  C_12
REMARK    4  A    between atoms: C_12  and  C_14
REMARK    5  A    between atoms: C_12  and  C_17
REMARK    6  A    between atoms: C_14  and  C_15
REMARK    7  A    between atoms: C_14  and  C_16
REMARK    8  A    between atoms: C_23  and  C_26
REMARK    9  A    between atoms: C_27  and  C_29
REMARK   10  A    between atoms: C_29  and  C_30
REMARK   11  A    between atoms: C_30  and  C_31
REMARK                            x       y       z     vdW  Elec       q    Type
REMARK                         _______ _______ _______ _____ _____    ______ ____
ROOT
ATOM      1  C   UNL     1      -1.443  -0.082   7.021  0.00  0.00    +0.236 C 
ATOM      2  O   UNL     1      -1.982   0.982   6.798  0.00  0.00    -0.274 OA
ATOM      3  N   UNL     1      -1.509  -0.627   8.252  0.00  0.00    -0.297 N 
ATOM      4  C   UNL     1      -0.770  -1.857   8.566  0.00  0.00    +0.127 C 
ATOM      5  C   UNL     1      -1.758  -2.898   9.107  0.00  0.00    +0.127 C 
ATOM      6  N   UNL     1      -2.570  -2.272  10.159  0.00  0.00    -0.296 N 
ATOM      7  C   UNL     1      -3.310  -1.041   9.845  0.00  0.00    +0.090 C 
ATOM      8  C   UNL     1      -2.317   0.003   9.306  0.00  0.00    +0.130 C 
ATOM      9  C   UNL     1      -3.980  -0.507  11.113  0.00  0.00    +0.029 C 
ATOM     10  C   UNL     1      -2.636  -2.816  11.390  0.00  0.00    +0.216 C 
ATOM     11  O   UNL     1      -3.398  -2.359  12.216  0.00  0.00    -0.276 OA
ENDROOT
BRANCH   1  12
ATOM     12  C   UNL     1      -0.700  -0.795   5.920  0.00  0.00    +0.163 C 
BRANCH  12  16
ATOM     13  N   UNL     1      -1.855  -1.216   2.455  0.00  0.00    -0.269 N 
ATOM     14  C   UNL     1      -1.236  -1.437   3.632  0.00  0.00    +0.304 C 
ATOM     15  O   UNL     1      -0.553  -2.432   3.783  0.00  0.00    -0.252 OA
ATOM     16  N   UNL     1      -1.373  -0.555   4.641  0.00  0.00    -0.288 N 
ATOM     17  H   UNL     1      -2.336  -0.387   2.308  0.00  0.00    +0.156 HD
ATOM     18  H   UNL     1      -1.917   0.239   4.521  0.00  0.00    +0.151 HD
BRANCH  13  25
ATOM     19  C   UNL     1      -4.079  -1.440   0.695  0.00  0.00    +0.045 C 
ATOM     20  C   UNL     1      -2.867  -2.327   0.565  0.00  0.00    -0.029 A 
ATOM     21  C   UNL     1      -2.812  -3.279  -0.435  0.00  0.00    +0.005 A 
ATOM     22  C   UNL     1      -1.701  -4.093  -0.554  0.00  0.00    +0.000 A 
ATOM     23  C   UNL     1      -0.642  -3.958   0.325  0.00  0.00    +0.002 A 
ATOM     24  C   UNL     1      -0.692  -3.007   1.326  0.00  0.00    +0.023 A 
ATOM     25  C   UNL     1      -1.804  -2.184   1.445  0.00  0.00    +0.038 A 
ENDBRANCH  13  25
ENDBRANCH  12  16
BRANCH  12  26
ATOM     26  C   UNL     1       0.734  -0.266   5.849  0.00  0.00    +0.012 C 
ATOM     27  C   UNL     1       1.450  -0.553   7.170  0.00  0.00    +0.009 C 
ATOM     28  C   UNL     1       1.477  -0.961   4.706  0.00  0.00    +0.009 C 
ENDBRANCH  12  26
ENDBRANCH   1  12
BRANCH  10  29
ATOM     29  C   UNL     1      -1.764  -3.994  11.741  0.00  0.00    +0.096 C 
BRANCH  29  30
ATOM     30  C   UNL     1      -2.032  -4.415  13.188  0.00  0.00    +0.013 C 
BRANCH  30  31
ATOM     31  C   UNL     1      -1.146  -5.610  13.544  0.00  0.00    -0.011 C 
ATOM     32  C   UNL     1      -1.587  -6.852  12.741  0.00  0.00    +0.003 C 
ATOM     33  C   UNL     1      -1.405  -8.028  13.732  0.00  0.00    +0.000 C 
ATOM     34  C   UNL     1      -1.850  -7.411  15.081  0.00  0.00    +0.000 C 
ATOM     35  C   UNL     1      -1.314  -5.966  15.031  0.00  0.00    +0.003 C 
ENDBRANCH  30  31
ENDBRANCH  29  30
ENDBRANCH  10  29
TORSDOF 7
