REMARK  Name = ZINC64962329
REMARK  7 active torsions:
REMARK  status: ('A' for Active; 'I' for Inactive)
REMARK    1  A    between atoms: C_3  and  C_10
REMARK    2  A    between atoms: C_5  and  C_7
REMARK    3  A    between atoms: C_10  and  N_11
REMARK    4  A    between atoms: N_11  and  S_12
REMARK    5  A    between atoms: S_12  and  C_15
REMARK    6  A    between atoms: C_18  and  S_21
REMARK    7  A    between atoms: S_21  and  C_22
REMARK                            x       y       z     vdW  Elec       q    Type
REMARK                         _______ _______ _______ _____ _____    ______ ____
ROOT
ATOM      1  N   UNL     1       4.101   2.449   1.357  0.00  0.00    -0.186 NA
ATOM      2  H   UNL     1       3.480   2.318   2.090  0.00  0.00    +0.148 HD
ENDROOT
BRANCH   1   3
ATOM      3  S   UNL     1       5.649   2.952   1.664  0.00  0.00    +0.059 S 
ATOM      4  O   UNL     1       5.748   3.127   3.071  0.00  0.00    -0.153 OA
ATOM      5  O   UNL     1       6.509   2.081   0.942  0.00  0.00    -0.153 OA
BRANCH   3   6
ATOM      6  C   UNL     1       5.830   4.550   0.944  0.00  0.00    +0.105 A 
ATOM      7  C   UNL     1       6.262   4.672  -0.364  0.00  0.00    +0.029 A 
ATOM      8  C   UNL     1       6.405   5.923  -0.931  0.00  0.00    +0.017 A 
ATOM      9  C   UNL     1       6.114   7.060  -0.186  0.00  0.00    +0.016 A 
ATOM     10  C   UNL     1       5.680   6.933   1.128  0.00  0.00    +0.017 A 
ATOM     11  C   UNL     1       5.534   5.678   1.687  0.00  0.00    +0.029 A 
BRANCH   9  12
ATOM     12  S   UNL     1       6.297   8.658  -0.905  0.00  0.00    -0.016 S 
BRANCH  12  13
ATOM     13  C   UNL     1       5.811   9.795   0.422  0.00  0.00    +0.448 C 
ATOM     14  F   UNL     1       6.655   9.613   1.523  0.00  0.00    -0.160 F 
ATOM     15  F   UNL     1       5.915  11.114  -0.032  0.00  0.00    -0.160 F 
ATOM     16  F   UNL     1       4.489   9.534   0.799  0.00  0.00    -0.160 F 
ENDBRANCH  12  13
ENDBRANCH   9  12
ENDBRANCH   3   6
ENDBRANCH   1   3
BRANCH   1  17
ATOM     17  C   UNL     1       3.671   2.203  -0.021  0.00  0.00    +0.141 C 
BRANCH  17  20
ATOM     18  C   UNL     1      -0.017   1.375   0.010  0.00  0.00    +0.001 A 
ATOM     19  C   UNL     1       1.170   2.086   0.002  0.00  0.00    +0.005 A 
ATOM     20  C   UNL     1       2.383   1.420  -0.013  0.00  0.00    -0.031 A 
ATOM     21  C   UNL     1       2.416   0.041  -0.021  0.00  0.00    +0.018 A 
ATOM     22  C   UNL     1       1.222  -0.682  -0.014  0.00  0.00    +0.037 A 
ATOM     23  C   UNL     1       0.002  -0.004   0.002  0.00  0.00    +0.013 A 
BRANCH  22  24
ATOM     24  C   UNL     1       1.250  -2.161  -0.023  0.00  0.00    +0.242 C 
ATOM     25  O   UNL     1       2.313  -2.748  -0.037  0.00  0.00    -0.270 OA
ATOM     26  N   UNL     1       0.095  -2.856  -0.016  0.00  0.00    -0.325 N 
ATOM     27  H   UNL     1      -0.754  -2.387  -0.004  0.00  0.00    +0.145 HD
ATOM     28  H   UNL     1       0.113  -3.826  -0.022  0.00  0.00    +0.145 HD
ENDBRANCH  22  24
ENDBRANCH  17  20
ENDBRANCH   1  17
TORSDOF 7
