REMARK  Name = ZINC16568189
REMARK  11 active torsions:
REMARK  status: ('A' for Active; 'I' for Inactive)
REMARK    1  A    between atoms: C_1  and  C_2
REMARK    2  A    between atoms: C_5  and  N_9
REMARK    3  A    between atoms: C_6  and  C_8
REMARK    4  A    between atoms: N_12  and  C_13
REMARK    5  A    between atoms: C_13  and  C_15
REMARK    6  A    between atoms: C_13  and  C_16
REMARK    7  A    between atoms: C_19  and  S_30
REMARK    8  A    between atoms: N_20  and  C_21
REMARK    9  A    between atoms: C_24  and  N_27
REMARK   10  A    between atoms: S_30  and  C_31
REMARK   11  A    between atoms: C_31  and  C_32
REMARK                            x       y       z     vdW  Elec       q    Type
REMARK                         _______ _______ _______ _____ _____    ______ ____
ROOT
ATOM      1  C   UNL     1      -0.408  -0.827   0.990  0.00  0.00    +0.159 A 
ATOM      2  N   UNL     1      -0.200  -2.045   0.576  0.00  0.00    -0.131 NA
ATOM      3  N   UNL     1       0.340  -2.030  -0.591  0.00  0.00    -0.122 NA
ATOM      4  C   UNL     1       0.503  -0.790  -0.992  0.00  0.00    +0.196 A 
ATOM      5  N   UNL     1       0.035   0.018   0.007  0.00  0.00    -0.273 N 
ENDROOT
BRANCH   5   6
ATOM      6  C   UNL     1       0.009   1.421   0.021  0.00  0.00    +0.050 A 
ATOM      7  C   UNL     1      -1.206   2.094   0.024  0.00  0.00    +0.028 A 
ATOM      8  C   UNL     1      -1.228   3.474   0.043  0.00  0.00    +0.035 A 
ATOM      9  C   UNL     1      -0.043   4.187   0.047  0.00  0.00    +0.126 A 
ATOM     10  C   UNL     1       1.168   3.519   0.038  0.00  0.00    +0.035 A 
ATOM     11  C   UNL     1       1.197   2.138   0.025  0.00  0.00    +0.028 A 
BRANCH   9  12
ATOM     12  N   UNL     1      -0.071   5.667   0.062  0.00  0.00    +0.056 N 
ATOM     13  O   UNL     1       0.973   6.295   0.065  0.00  0.00    -0.126 OA
ATOM     14  O   UNL     1      -1.137   6.256   0.071  0.00  0.00    -0.126 OA
ENDBRANCH   9  12
ENDBRANCH   5   6
BRANCH   1  15
ATOM     15  C   UNL     1      -1.024  -0.424   2.305  0.00  0.00    +0.140 C 
ATOM     16  C   UNL     1      -2.534  -0.665   2.256  0.00  0.00    +0.036 C 
BRANCH  15  20
ATOM     17  N   UNL     1       0.118  -1.478   5.637  0.00  0.00    -0.269 N 
ATOM     18  C   UNL     1      -0.422  -0.744   4.644  0.00  0.00    +0.304 C 
ATOM     19  O   UNL     1      -0.898   0.349   4.886  0.00  0.00    -0.252 OA
ATOM     20  N   UNL     1      -0.436  -1.221   3.384  0.00  0.00    -0.290 N 
ATOM     21  H   UNL     1       0.423  -2.381   5.461  0.00  0.00    +0.156 HD
ATOM     22  H   UNL     1      -0.057  -2.093   3.192  0.00  0.00    +0.151 HD
BRANCH  17  27
ATOM     23  C   UNL     1       0.609   0.720  10.844  0.00  0.00    +0.044 C 
ATOM     24  C   UNL     1       0.479   0.136   9.461  0.00  0.00    -0.050 A 
ATOM     25  C   UNL     1       0.426   0.973   8.361  0.00  0.00    +0.005 A 
ATOM     26  C   UNL     1       0.306   0.441   7.092  0.00  0.00    +0.024 A 
ATOM     27  C   UNL     1       0.240  -0.935   6.921  0.00  0.00    +0.038 A 
ATOM     28  C   UNL     1       0.288  -1.773   8.028  0.00  0.00    -0.029 A 
ATOM     29  C   UNL     1       0.412  -1.235   9.294  0.00  0.00    +0.008 A 
ATOM     30  C   UNL     1       0.209  -3.267   7.848  0.00  0.00    +0.045 C 
ENDBRANCH  17  27
ENDBRANCH  15  20
ENDBRANCH   1  15
BRANCH   4  31
ATOM     31  S   UNL     1       1.196  -0.268  -2.525  0.00  0.00    -0.081 S 
BRANCH  31  32
ATOM     32  C   UNL     1       1.560  -1.876  -3.270  0.00  0.00    +0.112 C 
BRANCH  32  33
ATOM     33  C   UNL     1       2.178  -1.672  -4.630  0.00  0.00    -0.037 A 
ATOM     34  C   UNL     1       1.373  -1.600  -5.751  0.00  0.00    +0.004 A 
ATOM     35  C   UNL     1       1.939  -1.407  -6.997  0.00  0.00    +0.000 A 
ATOM     36  C   UNL     1       3.312  -1.298  -7.123  0.00  0.00    +0.000 A 
ATOM     37  C   UNL     1       4.117  -1.376  -6.002  0.00  0.00    +0.000 A 
ATOM     38  C   UNL     1       3.550  -1.563  -4.756  0.00  0.00    +0.004 A 
ENDBRANCH  32  33
ENDBRANCH  31  32
ENDBRANCH   4  31
TORSDOF 8
