REMARK  Name = ZINC04534353
REMARK  11 active torsions:
REMARK  status: ('A' for Active; 'I' for Inactive)
REMARK    1  A    between atoms: C_1  and  C_2
REMARK    2  A    between atoms: C_2  and  O_4
REMARK    3  A    between atoms: O_4  and  C_5
REMARK    4  A    between atoms: C_5  and  C_6
REMARK    5  A    between atoms: C_8  and  O_32
REMARK    6  A    between atoms: C_10  and  O_28
REMARK    7  A    between atoms: C_12  and  N_15
REMARK    8  A    between atoms: O_28  and  C_29
REMARK    9  A    between atoms: C_29  and  C_31
REMARK   10  A    between atoms: O_32  and  C_33
REMARK   11  A    between atoms: C_33  and  C_35
REMARK                            x       y       z     vdW  Elec       q    Type
REMARK                         _______ _______ _______ _____ _____    ______ ____
ROOT
ATOM      1  C   UNL     1      -2.463  -2.721   0.011  0.00  0.00    +0.203 C 
ATOM      2  C   UNL     1      -2.385  -4.262   0.089  0.00  0.00    +0.253 C 
ATOM      3  C   UNL     1      -3.546  -4.742  -0.811  0.00  0.00    +0.269 C 
ATOM      4  C   UNL     1      -4.187  -3.434  -1.326  0.00  0.00    +0.268 C 
ATOM      5  O   UNL     1      -3.137  -2.446  -1.236  0.00  0.00    -0.342 OA
ENDROOT
BRANCH   4   6
ATOM      6  N   UNL     1      -4.624  -3.594  -2.715  0.00  0.00    -0.272 N 
ATOM      7  C   UNL     1      -5.916  -3.741  -3.146  0.00  0.00    +0.172 A 
ATOM      8  C   UNL     1      -5.850  -3.858  -4.539  0.00  0.00    +0.173 A 
ATOM      9  C   UNL     1      -7.054  -4.024  -5.262  0.00  0.00    +0.280 A 
ATOM     10  O   UNL     1      -7.043  -4.130  -6.476  0.00  0.00    -0.265 OA
ATOM     11  N   UNL     1      -8.216  -4.062  -4.573  0.00  0.00    -0.293 N 
ATOM     12  H   UNL     1      -9.055  -4.175  -5.048  0.00  0.00    +0.172 HD
ATOM     13  C   UNL     1      -8.216  -3.943  -3.215  0.00  0.00    +0.195 A 
ATOM     14  N   UNL     1      -7.104  -3.789  -2.532  0.00  0.00    -0.196 NA
ATOM     15  N   UNL     1      -9.411  -3.986  -2.542  0.00  0.00    -0.329 N 
ATOM     16  N   UNL     1      -4.542  -3.778  -4.888  0.00  0.00    -0.214 NA
ATOM     17  C   UNL     1      -3.819  -3.616  -3.817  0.00  0.00    +0.182 A 
ATOM     18 BR   UNL     1      -1.936  -3.444  -3.792  0.00  0.00    -0.008 Br
ATOM     19  H   UNL     1     -10.240  -4.100  -3.033  0.00  0.00    +0.145 HD
ATOM     20  H   UNL     1      -9.427  -3.903  -1.576  0.00  0.00    +0.145 HD
ENDBRANCH   4   6
BRANCH   1  21
ATOM     21  C   UNL     1      -1.057  -2.117   0.001  0.00  0.00    +0.267 C 
BRANCH  21  22
ATOM     22  O   UNL     1      -1.151  -0.691   0.009  0.00  0.00    -0.462 OA
BRANCH  22  24
ATOM     23  C   UNL     1      -0.018   1.503   0.010  0.00  0.00    +0.136 C 
ATOM     24  C   UNL     1       0.002  -0.004   0.002  0.00  0.00    +0.304 C 
ATOM     25  O   UNL     1       1.056  -0.594  -0.011  0.00  0.00    -0.251 OA
ENDBRANCH  22  24
ENDBRANCH  21  22
ENDBRANCH   1  21
BRANCH   3  26
ATOM     26  O   UNL     1      -3.046  -5.521  -1.899  0.00  0.00    -0.453 OA
BRANCH  26  27
ATOM     27  C   UNL     1      -3.851  -6.481  -2.382  0.00  0.00    +0.304 C 
ATOM     28  O   UNL     1      -4.943  -6.654  -1.895  0.00  0.00    -0.251 OA
ATOM     29  C   UNL     1      -3.392  -7.343  -3.530  0.00  0.00    +0.136 C 
ENDBRANCH  26  27
ENDBRANCH   3  26
BRANCH   2  30
ATOM     30  O   UNL     1      -2.575  -4.705   1.434  0.00  0.00    -0.455 OA
BRANCH  30  31
ATOM     31  C   UNL     1      -1.474  -4.854   2.187  0.00  0.00    +0.304 C 
ATOM     32  O   UNL     1      -0.385  -4.616   1.720  0.00  0.00    -0.251 OA
ATOM     33  C   UNL     1      -1.595  -5.318   3.616  0.00  0.00    +0.136 C 
ENDBRANCH  30  31
ENDBRANCH   2  30
TORSDOF 8
