REMARK  Name = ZINC39653152
REMARK  14 active torsions:
REMARK  status: ('A' for Active; 'I' for Inactive)
REMARK    1  A    between atoms: C_1  and  C_2
REMARK    2  A    between atoms: C_2  and  C_3
REMARK    3  A    between atoms: C_2  and  C_4
REMARK    4  A    between atoms: C_4  and  C_6
REMARK    5  A    between atoms: C_4  and  O_34
REMARK    6  A    between atoms: C_10  and  C_19
REMARK    7  A    between atoms: N_21  and  C_22
REMARK    8  A    between atoms: C_22  and  C_23
REMARK    9  A    between atoms: C_23  and  C_24
REMARK   10  A    between atoms: C_26  and  O_32
REMARK   11  A    between atoms: C_28  and  O_30
REMARK   12  A    between atoms: O_30  and  C_31
REMARK   13  A    between atoms: O_32  and  C_33
REMARK   14  A    between atoms: O_34  and  C_35
REMARK                            x       y       z     vdW  Elec       q    Type
REMARK                         _______ _______ _______ _____ _____    ______ ____
ROOT
ATOM      1  C   UNL     1      -1.536  -1.955  -0.069  0.00  0.00    +0.257 C 
ATOM      2  O   UNL     1      -2.015  -2.582   0.852  0.00  0.00    -0.272 OA
ATOM      3  N   UNL     1      -1.029  -2.605  -1.136  0.00  0.00    -0.297 N 
ATOM      4  C   UNL     1      -0.481  -2.017  -2.381  0.00  0.00    +0.121 C 
ATOM      5  C   UNL     1       0.744  -2.895  -2.721  0.00  0.00    +0.100 C 
ATOM      6  C   UNL     1       0.468  -4.240  -2.028  0.00  0.00    -0.004 C 
ATOM      7  C   UNL     1      -0.886  -4.068  -1.325  0.00  0.00    +0.115 C 
ATOM      8  C   UNL     1       1.556  -4.538  -1.000  0.00  0.00    -0.010 C 
ATOM      9  C   UNL     1       1.290  -5.906  -0.366  0.00  0.00    -0.082 C 
ATOM     10  N   UNL     1       1.279  -6.938  -1.410  0.00  0.00    +0.379 N 
ATOM     11  C   UNL     1       0.172  -6.695  -2.343  0.00  0.00    -0.082 C 
ATOM     12  C   UNL     1       0.390  -5.360  -3.061  0.00  0.00    -0.010 C 
ATOM     13  H   UNL     1       2.153  -6.913  -1.914  0.00  0.00    -0.086 HD
ATOM     14  H   UNL     1       1.165  -7.845  -0.984  0.00  0.00    -0.086 HD
ENDROOT
BRANCH   5  15
ATOM     15  C   UNL     1       0.858  -3.083  -4.212  0.00  0.00    +0.218 C 
ATOM     16  O   UNL     1      -0.130  -2.998  -4.910  0.00  0.00    -0.275 OA
ATOM     17  N   UNL     1       2.057  -3.346  -4.768  0.00  0.00    -0.315 N 
ATOM     18  H   UNL     1       2.846  -3.414  -4.209  0.00  0.00    +0.149 HD
BRANCH  17  19
ATOM     19  C   UNL     1       2.167  -3.529  -6.218  0.00  0.00    +0.109 C 
BRANCH  19  20
ATOM     20  C   UNL     1       3.624  -3.814  -6.586  0.00  0.00    +0.054 C 
BRANCH  20  21
ATOM     21  C   UNL     1       3.738  -4.003  -8.077  0.00  0.00    -0.039 A 
ATOM     22  C   UNL     1       3.588  -5.262  -8.627  0.00  0.00    +0.049 A 
ATOM     23  C   UNL     1       3.692  -5.438  -9.999  0.00  0.00    +0.124 A 
ATOM     24  C   UNL     1       3.946  -4.349 -10.819  0.00  0.00    +0.091 A 
ATOM     25  C   UNL     1       4.096  -3.087 -10.266  0.00  0.00    +0.124 A 
ATOM     26  C   UNL     1       3.985  -2.915  -8.893  0.00  0.00    +0.049 A 
BRANCH  25  27
ATOM     27  O   UNL     1       4.345  -2.018 -11.067  0.00  0.00    -0.495 OA
ATOM     28  C   UNL     1       4.440  -2.268 -12.471  0.00  0.00    +0.277 C 
ENDBRANCH  25  27
BRANCH  23  29
ATOM     29  O   UNL     1       3.546  -6.676 -10.539  0.00  0.00    -0.495 OA
ATOM     30  C   UNL     1       3.666  -6.784 -11.959  0.00  0.00    +0.277 C 
ENDBRANCH  23  29
ENDBRANCH  20  21
ENDBRANCH  19  20
ENDBRANCH  17  19
ENDBRANCH   5  15
BRANCH   1  31
ATOM     31  C   UNL     1      -1.509  -0.449  -0.021  0.00  0.00    +0.261 C 
BRANCH  31  33
ATOM     32  C   UNL     1      -0.022   1.559   0.007  0.00  0.00    +0.011 C 
ATOM     33  C   UNL     1      -0.060   0.031   0.090  0.00  0.00    +0.033 C 
ATOM     34  C   UNL     1       0.525  -0.421   1.429  0.00  0.00    +0.011 C 
ENDBRANCH  31  33
BRANCH  31  35
ATOM     35  O   UNL     1      -2.250   0.005   1.113  0.00  0.00    -0.479 OA
BRANCH  35  36
ATOM     36  C   UNL     1      -2.926   1.176   0.980  0.00  0.00    +0.122 A 
ATOM     37  C   UNL     1      -2.955   1.826  -0.246  0.00  0.00    +0.045 A 
ATOM     38  C   UNL     1      -3.644   3.016  -0.379  0.00  0.00    +0.004 A 
ATOM     39  C   UNL     1      -4.304   3.560   0.708  0.00  0.00    +0.000 A 
ATOM     40  C   UNL     1      -4.276   2.914   1.930  0.00  0.00    +0.004 A 
ATOM     41  C   UNL     1      -3.594   1.721   2.067  0.00  0.00    +0.045 A 
ENDBRANCH  35  36
ENDBRANCH  31  35
ENDBRANCH   1  31
TORSDOF 10
