REMARK  Name = ZINC18249795
REMARK  2 active torsions:
REMARK  status: ('A' for Active; 'I' for Inactive)
REMARK    1  A    between atoms: C_10  and  N_11
REMARK    2  A    between atoms: C_16  and  C_34
REMARK                            x       y       z     vdW  Elec       q    Type
REMARK                         _______ _______ _______ _____ _____    ______ ____
ROOT
ATOM      1  N   UNL     1       4.873   0.100  -0.044  0.00  0.00    -0.209 N 
ATOM      2  C   UNL     1       5.508   0.461   1.077  0.00  0.00    +0.233 C 
ATOM      3  O   UNL     1       5.131   0.219   2.204  0.00  0.00    -0.274 OA
ATOM      4  C   UNL     1       6.768   1.215   0.721  0.00  0.00    +0.125 C 
ATOM      5  C   UNL     1       6.609   2.695   1.132  0.00  0.00    +0.164 C 
ATOM      6  O   UNL     1       5.955   3.328   0.009  0.00  0.00    -0.348 OA
ATOM      7  C   UNL     1       6.555   2.744  -1.156  0.00  0.00    +0.206 C 
ATOM      8  C   UNL     1       6.747   1.235  -0.834  0.00  0.00    +0.138 C 
ATOM      9  C   UNL     1       5.484   0.476  -1.173  0.00  0.00    +0.234 C 
ATOM     10  O   UNL     1       5.084   0.246  -2.295  0.00  0.00    -0.274 OA
ATOM     11  C   UNL     1       5.687   2.932  -2.369  0.00  0.00    +0.204 C 
ATOM     12  O   UNL     1       4.543   2.552  -2.503  0.00  0.00    -0.288 OA
ATOM     13  C   UNL     1       6.491   3.666  -3.365  0.00  0.00    +0.031 A 
ATOM     14  C   UNL     1       6.173   4.095  -4.655  0.00  0.00    +0.012 A 
ATOM     15  C   UNL     1       7.110   4.775  -5.410  0.00  0.00    +0.001 A 
ATOM     16  C   UNL     1       8.367   5.038  -4.895  0.00  0.00    +0.001 A 
ATOM     17  C   UNL     1       8.703   4.623  -3.621  0.00  0.00    +0.012 A 
ATOM     18  C   UNL     1       7.771   3.933  -2.841  0.00  0.00    +0.031 A 
ATOM     19  C   UNL     1       7.874   3.391  -1.473  0.00  0.00    +0.204 C 
ATOM     20  O   UNL     1       8.840   3.455  -0.742  0.00  0.00    -0.288 OA
ENDROOT
BRANCH   1  30
ATOM     21  C   UNL     1      -0.016   1.357   0.009  0.00  0.00    +0.001 A 
ATOM     22  C   UNL     1       1.169   2.090   0.002  0.00  0.00    +0.001 A 
ATOM     23  C   UNL     1       2.378   1.466  -0.013  0.00  0.00    +0.010 A 
ATOM     24  C   UNL     1       2.437   0.064  -0.021  0.00  0.00    +0.004 A 
ATOM     25  C   UNL     1       1.233  -0.683  -0.013  0.00  0.00    -0.016 A 
ATOM     26  C   UNL     1       0.002  -0.004   0.002  0.00  0.00    +0.008 A 
ATOM     27  C   UNL     1       1.290  -2.087  -0.021  0.00  0.00    +0.008 A 
ATOM     28  C   UNL     1       2.496  -2.718  -0.035  0.00  0.00    +0.002 A 
ATOM     29  C   UNL     1       3.685  -1.995  -0.042  0.00  0.00    +0.024 A 
ATOM     30  C   UNL     1       3.672  -0.617  -0.036  0.00  0.00    +0.052 A 
ENDBRANCH   1  30
BRANCH   5  31
ATOM     31  C   UNL     1       5.755   2.807   2.368  0.00  0.00    +0.000 A 
ATOM     32  C   UNL     1       4.398   3.039   2.253  0.00  0.00    +0.007 A 
ATOM     33  C   UNL     1       3.614   3.142   3.387  0.00  0.00    +0.000 A 
ATOM     34  C   UNL     1       4.188   3.011   4.638  0.00  0.00    +0.001 A 
ATOM     35  C   UNL     1       5.545   2.778   4.755  0.00  0.00    +0.020 A 
ATOM     36  C   UNL     1       6.329   2.670   3.620  0.00  0.00    +0.047 A 
ATOM     37 CL   UNL     1       8.033   2.371   3.766  0.00  0.00    -0.083 Cl
ENDBRANCH   5  31
TORSDOF 2
