REMARK  Name = ZINC38650594
REMARK  12 active torsions:
REMARK  status: ('A' for Active; 'I' for Inactive)
REMARK    1  A    between atoms: C_1  and  C_2
REMARK    2  A    between atoms: C_2  and  C_3
REMARK    3  A    between atoms: C_3  and  O_4
REMARK    4  A    between atoms: O_4  and  C_5
REMARK    5  A    between atoms: C_8  and  C_11
REMARK    6  A    between atoms: C_16  and  O_25
REMARK    7  A    between atoms: C_20  and  N_24
REMARK    8  A    between atoms: C_21  and  C_22
REMARK    9  A    between atoms: O_25  and  C_26
REMARK   10  A    between atoms: C_26  and  C_28
REMARK   11  A    between atoms: C_31  and  O_34
REMARK   12  A    between atoms: O_34  and  C_35
REMARK                            x       y       z     vdW  Elec       q    Type
REMARK                         _______ _______ _______ _____ _____    ______ ____
ROOT
ATOM      1  C   UNL     1      -6.361  -4.633   0.065  0.00  0.00    +0.098 C 
ATOM      2  C   UNL     1      -6.492  -5.475  -1.177  0.00  0.00    +0.008 A 
ATOM      3  C   UNL     1      -6.868  -4.878  -2.367  0.00  0.00    +0.012 A 
ATOM      4  C   UNL     1      -6.994  -5.633  -3.516  0.00  0.00    +0.047 A 
ATOM      5  C   UNL     1      -6.742  -6.998  -3.479  0.00  0.00    +0.135 A 
ATOM      6  C   UNL     1      -6.365  -7.599  -2.289  0.00  0.00    +0.093 A 
ATOM      7  C   UNL     1      -6.239  -6.837  -1.135  0.00  0.00    +0.138 A 
ATOM      8  O   UNL     1      -5.869  -7.440   0.022  0.00  0.00    -0.441 OA
ATOM      9  C   UNL     1      -6.110  -6.838   1.198  0.00  0.00    +0.199 C 
ATOM     10  C   UNL     1      -6.349  -5.511   1.285  0.00  0.00    +0.098 C 
ENDROOT
BRANCH   1  14
ATOM     11  C   UNL     1      -2.718  -2.406  -0.111  0.00  0.00    +0.121 A 
ATOM     12  C   UNL     1      -3.934  -1.744  -0.030  0.00  0.00    +0.046 A 
ATOM     13  C   UNL     1      -5.110  -2.466   0.026  0.00  0.00    +0.008 A 
ATOM     14  C   UNL     1      -5.076  -3.848   0.003  0.00  0.00    -0.034 A 
ATOM     15  C   UNL     1      -3.865  -4.511  -0.077  0.00  0.00    +0.008 A 
ATOM     16  C   UNL     1      -2.687  -3.793  -0.140  0.00  0.00    +0.046 A 
BRANCH  11  17
ATOM     17  O   UNL     1      -1.559  -1.698  -0.167  0.00  0.00    -0.492 OA
BRANCH  17  18
ATOM     18  C   UNL     1      -1.668  -0.274  -0.133  0.00  0.00    +0.229 C 
BRANCH  18  20
ATOM     19  C   UNL     1      -0.386   1.871  -0.168  0.00  0.00    +0.007 C 
ATOM     20  C   UNL     1      -0.270   0.346  -0.205  0.00  0.00    +0.038 C 
ENDBRANCH  18  20
ENDBRANCH  17  18
ENDBRANCH  11  17
ENDBRANCH   1  14
BRANCH   9  21
ATOM     21  N   UNL     1      -6.111  -7.593   2.345  0.00  0.00    -0.328 N 
ATOM     22  H   UNL     1      -5.940  -8.546   2.298  0.00  0.00    +0.145 HD
ATOM     23  H   UNL     1      -6.284  -7.173   3.202  0.00  0.00    +0.145 HD
ENDBRANCH   9  21
BRANCH  10  24
ATOM     24  C   UNL     1      -6.598  -4.930   2.570  0.00  0.00    +0.101 C 
ATOM     25  N   UNL     1      -6.795  -4.469   3.589  0.00  0.00    -0.191 NA
ENDBRANCH  10  24
BRANCH   5  26
ATOM     26  O   UNL     1      -6.864  -7.743  -4.609  0.00  0.00    -0.422 OA
BRANCH  26  27
ATOM     27  C   UNL     1      -7.881  -8.625  -4.678  0.00  0.00    +0.344 C 
ATOM     28  O   UNL     1      -8.714  -8.663  -3.794  0.00  0.00    -0.245 OA
BRANCH  27  29
ATOM     29  C   UNL     1      -7.983  -9.545  -5.826  0.00  0.00    +0.060 A 
ATOM     30  C   UNL     1      -7.023  -9.508  -6.841  0.00  0.00    +0.018 A 
ATOM     31  C   UNL     1      -7.121 -10.368  -7.911  0.00  0.00    +0.046 A 
ATOM     32  C   UNL     1      -8.174 -11.274  -7.983  0.00  0.00    +0.120 A 
ATOM     33  C   UNL     1      -9.131 -11.314  -6.976  0.00  0.00    +0.046 A 
ATOM     34  C   UNL     1      -9.037 -10.461  -5.899  0.00  0.00    +0.018 A 
BRANCH  32  35
ATOM     35  O   UNL     1      -8.267 -12.120  -9.039  0.00  0.00    -0.495 OA
ATOM     36  C   UNL     1      -9.373 -13.025  -9.050  0.00  0.00    +0.277 C 
ENDBRANCH  32  35
ENDBRANCH  27  29
ENDBRANCH  26  27
ENDBRANCH   5  26
TORSDOF 10
