REMARK  Name = ZINC36800690
REMARK  8 active torsions:
REMARK  status: ('A' for Active; 'I' for Inactive)
REMARK    1  A    between atoms: C_2  and  C_3
REMARK    2  A    between atoms: C_3  and  N_4
REMARK    3  A    between atoms: C_13  and  S_14
REMARK    4  A    between atoms: S_14  and  C_15
REMARK    5  A    between atoms: C_15  and  C_16
REMARK    6  A    between atoms: C_19  and  C_21
REMARK    7  A    between atoms: C_24  and  O_27
REMARK    8  A    between atoms: O_27  and  C_28
REMARK                            x       y       z     vdW  Elec       q    Type
REMARK                         _______ _______ _______ _____ _____    ______ ____
ROOT
ATOM      1  C   UNL     1       0.945  -5.722   1.593  0.00  0.00    +0.230 C 
ATOM      2  O   UNL     1       1.005  -5.025   2.583  0.00  0.00    -0.274 OA
ATOM      3  N   UNL     1       1.404  -6.988   1.632  0.00  0.00    -0.252 N 
ATOM      4  C   UNL     1       1.930  -7.480   2.771  0.00  0.00    +0.250 C 
ATOM      5  O   UNL     1       1.991  -6.781   3.763  0.00  0.00    -0.270 OA
ATOM      6  H   UNL     1       1.355  -7.546   0.840  0.00  0.00    +0.158 HD
ENDROOT
BRANCH   4   7
ATOM      7  C   UNL     1       2.433  -8.866   2.813  0.00  0.00    +0.037 A 
ATOM      8  C   UNL     1       2.369  -9.670   1.671  0.00  0.00    +0.016 A 
ATOM      9  C   UNL     1       2.839 -10.963   1.714  0.00  0.00    +0.046 A 
ATOM     10  C   UNL     1       3.376 -11.470   2.892  0.00  0.00    +0.127 A 
ATOM     11  C   UNL     1       3.441 -10.674   4.030  0.00  0.00    +0.046 A 
ATOM     12  C   UNL     1       2.979  -9.378   3.993  0.00  0.00    +0.016 A 
BRANCH  10  13
ATOM     13  O   UNL     1       3.838 -12.745   2.931  0.00  0.00    -0.434 OA
BRANCH  13  14
ATOM     14  C   UNL     1       4.377 -13.203   4.173  0.00  0.00    +0.541 C 
ATOM     15  F   UNL     1       5.463 -12.398   4.534  0.00  0.00    -0.166 F 
ATOM     16  F   UNL     1       3.392 -13.129   5.164  0.00  0.00    -0.166 F 
ENDBRANCH  13  14
ENDBRANCH  10  13
ENDBRANCH   4   7
BRANCH   1  17
ATOM     17  C   UNL     1       0.356  -5.172   0.319  0.00  0.00    +0.173 C 
BRANCH  17  18
ATOM     18  S   UNL     1      -0.167  -3.456   0.587  0.00  0.00    -0.078 S 
BRANCH  18  28
ATOM     19  N   UNL     1      -1.318  -1.700  -1.126  0.00  0.00    -0.283 N 
ATOM     20  C   UNL     1      -1.822  -1.286  -2.303  0.00  0.00    +0.263 A 
ATOM     21  O   UNL     1      -2.254  -0.152  -2.425  0.00  0.00    -0.267 OA
ATOM     22  C   UNL     1      -1.844  -2.192  -3.409  0.00  0.00    +0.072 A 
ATOM     23  C   UNL     1      -2.330  -1.981  -4.762  0.00  0.00    +0.023 A 
ATOM     24  C   UNL     1      -2.252  -2.983  -5.650  0.00  0.00    +0.048 A 
ATOM     25  S   UNL     1      -1.506  -4.306  -4.717  0.00  0.00    -0.077 S 
ATOM     26  C   UNL     1      -1.320  -3.475  -3.160  0.00  0.00    +0.116 A 
ATOM     27  N   UNL     1      -0.837  -3.820  -1.973  0.00  0.00    -0.216 NA
ATOM     28  C   UNL     1      -0.824  -2.963  -0.972  0.00  0.00    +0.173 A 
BRANCH  19  29
ATOM     29  C   UNL     1      -1.293  -0.775   0.010  0.00  0.00    +0.154 C 
BRANCH  29  31
ATOM     30  C   UNL     1      -0.016   1.306   0.009  0.00  0.00    +0.005 C 
ATOM     31  C   UNL     1       0.002  -0.004   0.002  0.00  0.00    -0.013 C 
ENDBRANCH  29  31
ENDBRANCH  19  29
ENDBRANCH  18  28
ENDBRANCH  17  18
ENDBRANCH   1  17
TORSDOF 8
