REMARK  Name = ZINC31974203
REMARK  7 active torsions:
REMARK  status: ('A' for Active; 'I' for Inactive)
REMARK    1  A    between atoms: C_1  and  C_2
REMARK    2  A    between atoms: C_5  and  C_20
REMARK    3  A    between atoms: C_6  and  C_10
REMARK    4  A    between atoms: C_13  and  O_16
REMARK    5  A    between atoms: O_16  and  C_17
REMARK    6  A    between atoms: C_17  and  C_18
REMARK    7  A    between atoms: C_17  and  C_19
REMARK                            x       y       z     vdW  Elec       q    Type
REMARK                         _______ _______ _______ _____ _____    ______ ____
ROOT
ATOM      1  C   UNL     1      -7.879  -1.523  -4.556  0.00  0.00    +0.075 C 
ATOM      2  C   UNL     1      -6.804  -1.178  -3.557  0.00  0.00    +0.099 A 
ATOM      3  N   UNL     1      -5.942  -0.207  -3.586  0.00  0.00    -0.162 NA
ATOM      4  N   UNL     1      -5.009  -0.035  -2.568  0.00  0.00    -0.203 N 
ATOM      5  C   UNL     1      -3.965   0.846  -2.240  0.00  0.00    +0.133 A 
ATOM      6  C   UNL     1      -3.433   0.404  -1.024  0.00  0.00    +0.102 A 
ATOM      7  N   UNL     1      -4.128  -0.672  -0.651  0.00  0.00    -0.219 NA
ATOM      8  C   UNL     1      -5.048  -0.932  -1.546  0.00  0.00    +0.197 A 
ATOM      9  S   UNL     1      -6.387  -2.000  -2.027  0.00  0.00    -0.033 S 
ENDROOT
BRANCH   6  10
ATOM     10  C   UNL     1      -2.308   1.019  -0.285  0.00  0.00    +0.003 A 
ATOM     11  C   UNL     1      -1.282   0.220   0.221  0.00  0.00    +0.013 A 
ATOM     12  C   UNL     1      -0.234   0.797   0.904  0.00  0.00    +0.046 A 
ATOM     13  C   UNL     1      -0.201   2.173   1.095  0.00  0.00    +0.121 A 
ATOM     14  C   UNL     1      -1.223   2.971   0.598  0.00  0.00    +0.046 A 
ATOM     15  C   UNL     1      -2.275   2.401  -0.086  0.00  0.00    +0.013 A 
BRANCH  13  16
ATOM     16  O   UNL     1       0.834   2.739   1.768  0.00  0.00    -0.489 OA
BRANCH  16  17
ATOM     17  C   UNL     1       1.800   1.852   2.337  0.00  0.00    +0.167 C 
ATOM     18  C   UNL     1       2.808   1.439   1.263  0.00  0.00    +0.051 C 
ATOM     19  C   UNL     1       2.532   2.560   3.479  0.00  0.00    +0.051 C 
ENDBRANCH  16  17
ENDBRANCH  13  16
ENDBRANCH   6  10
BRANCH   5  20
ATOM     20  C   UNL     1      -3.537   1.951  -2.987  0.00  0.00    +0.280 C 
ATOM     21  O   UNL     1      -2.553   2.575  -2.640  0.00  0.00    -0.294 OA
ENDBRANCH   5  20
TORSDOF 4
