REMARK  Name = ZINC12507682
REMARK  5 active torsions:
REMARK  status: ('A' for Active; 'I' for Inactive)
REMARK    1  A    between atoms: C_3  and  C_12
REMARK    2  A    between atoms: C_6  and  O_7
REMARK    3  A    between atoms: O_7  and  C_8
REMARK    4  A    between atoms: C_8  and  C_9
REMARK    5  A    between atoms: C_9  and  O_10
REMARK                            x       y       z     vdW  Elec       q    Type
REMARK                         _______ _______ _______ _____ _____    ______ ____
ROOT
ATOM      1  C   UNL     1       3.671   2.188  -0.023  0.00  0.00    +0.210 C 
ATOM      2  N   UNL     1       3.448   3.539  -0.569  0.00  0.00    -0.294 N 
ATOM      3  C   UNL     1       2.955   4.529   0.241  0.00  0.00    +0.160 C 
ATOM      4  N   UNL     1       3.200   4.543   1.539  0.00  0.00    -0.302 N 
ATOM      5  C   UNL     1       3.905   3.516   2.073  0.00  0.00    +0.213 A 
ATOM      6  N   UNL     1       4.161   2.364   1.349  0.00  0.00    -0.286 N 
ATOM      7  C   UNL     1       4.902   1.522   2.144  0.00  0.00    +0.076 A 
ATOM      8  C   UNL     1       5.457   0.262   1.968  0.00  0.00    +0.077 A 
ATOM      9  C   UNL     1       6.168  -0.327   2.996  0.00  0.00    +0.164 A 
ATOM     10  C   UNL     1       6.333   0.334   4.209  0.00  0.00    +0.164 A 
ATOM     11  C   UNL     1       5.786   1.585   4.403  0.00  0.00    +0.079 A 
ATOM     12  C   UNL     1       5.064   2.193   3.371  0.00  0.00    +0.095 A 
ATOM     13  N   UNL     1       4.422   3.396   3.267  0.00  0.00    -0.212 NA
ATOM     14  O   UNL     1       7.042  -0.264   5.212  0.00  0.00    -0.488 OA
ATOM     15  C   UNL     1       6.439  -1.417   5.803  0.00  0.00    +0.232 C 
ATOM     16  C   UNL     1       6.751  -2.664   4.991  0.00  0.00    +0.082 C 
ATOM     17  C   UNL     1       6.138  -2.618   3.600  0.00  0.00    +0.232 C 
ATOM     18  O   UNL     1       6.717  -1.567   2.825  0.00  0.00    -0.488 OA
ATOM     19  N   UNL     1       2.193   5.525  -0.308  0.00  0.00    -0.332 N 
ATOM     20  H   UNL     1       2.007   5.525  -1.260  0.00  0.00    +0.145 HD
ATOM     21  H   UNL     1       1.839   6.231   0.256  0.00  0.00    +0.145 HD
ATOM     22  H   UNL     1       3.649   3.728  -1.499  0.00  0.00    +0.151 HD
ATOM     23  H   UNL     1       2.883   5.271   2.097  0.00  0.00    +0.171 HD
ENDROOT
BRANCH   1  26
ATOM     24  C   UNL     1       0.480   0.566   1.175  0.00  0.00    +0.046 A 
ATOM     25  C   UNL     1       1.667   1.274   1.163  0.00  0.00    +0.012 A 
ATOM     26  C   UNL     1       2.377   1.415  -0.013  0.00  0.00    +0.007 A 
ATOM     27  C   UNL     1       1.903   0.849  -1.183  0.00  0.00    +0.028 A 
ATOM     28  C   UNL     1       0.716   0.140  -1.177  0.00  0.00    +0.061 A 
ATOM     29  C   UNL     1       0.001  -0.003   0.003  0.00  0.00    +0.122 A 
ATOM     30 BR   UNL     1       2.878   1.044  -2.792  0.00  0.00    -0.050 Br
BRANCH  29  31
ATOM     31  O   UNL     1      -1.165  -0.700   0.012  0.00  0.00    -0.490 OA
BRANCH  31  32
ATOM     32  C   UNL     1      -1.597  -1.258  -1.230  0.00  0.00    +0.256 C 
BRANCH  32  33
ATOM     33  C   UNL     1      -2.919  -2.000  -1.024  0.00  0.00    +0.196 C 
BRANCH  33  34
ATOM     34  O   UNL     1      -3.937  -1.067  -0.655  0.00  0.00    -0.392 OA
ATOM     35  H   UNL     1      -4.804  -1.468  -0.508  0.00  0.00    +0.210 HD
ENDBRANCH  33  34
ENDBRANCH  32  33
ENDBRANCH  31  32
ENDBRANCH  29  31
ENDBRANCH   1  26
TORSDOF 5
