REMARK  Name = ZINC35041860
REMARK  14 active torsions:
REMARK  status: ('A' for Active; 'I' for Inactive)
REMARK    1  A    between atoms: C_1  and  C_2
REMARK    2  A    between atoms: C_2  and  C_3
REMARK    3  A    between atoms: C_3  and  C_5
REMARK    4  A    between atoms: C_3  and  N_25
REMARK    5  A    between atoms: N_15  and  C_16
REMARK    6  A    between atoms: C_19  and  O_22
REMARK    7  A    between atoms: O_22  and  C_23
REMARK    8  A    between atoms: C_23  and  C_24
REMARK    9  A    between atoms: N_25  and  C_26
REMARK   10  A    between atoms: C_26  and  C_27
REMARK   11  A    between atoms: C_27  and  O_28
REMARK   12  A    between atoms: O_28  and  C_29
REMARK   13  A    between atoms: N_32  and  C_33
REMARK   14  A    between atoms: C_38  and  C_39
REMARK                            x       y       z     vdW  Elec       q    Type
REMARK                         _______ _______ _______ _____ _____    ______ ____
ROOT
ATOM      1  C   UNL     1       0.344  -2.080   1.245  0.00  0.00    +0.138 A 
ATOM      2  N   UNL     1       0.489  -2.925   0.269  0.00  0.00    -0.231 NA
ATOM      3  C   UNL     1       0.069  -4.210   0.373  0.00  0.00    +0.078 A 
ATOM      4  C   UNL     1       0.226  -5.119  -0.675  0.00  0.00    +0.028 A 
ATOM      5  C   UNL     1      -0.214  -6.415  -0.526  0.00  0.00    +0.002 A 
ATOM      6  C   UNL     1      -0.813  -6.832   0.656  0.00  0.00    +0.001 A 
ATOM      7  C   UNL     1      -0.978  -5.954   1.705  0.00  0.00    +0.015 A 
ATOM      8  C   UNL     1      -0.540  -4.638   1.575  0.00  0.00    +0.065 A 
ATOM      9  C   UNL     1      -0.689  -3.657   2.660  0.00  0.00    +0.266 A 
ATOM     10  O   UNL     1      -1.205  -3.961   3.720  0.00  0.00    -0.267 OA
ATOM     11  N   UNL     1      -0.226  -2.405   2.437  0.00  0.00    -0.263 N 
ENDROOT
BRANCH  11  12
ATOM     12  C   UNL     1      -0.339  -1.434   3.441  0.00  0.00    +0.051 A 
ATOM     13  C   UNL     1      -1.181  -0.344   3.261  0.00  0.00    +0.030 A 
ATOM     14  C   UNL     1      -1.291   0.613   4.250  0.00  0.00    +0.047 A 
ATOM     15  C   UNL     1      -0.561   0.486   5.423  0.00  0.00    +0.121 A 
ATOM     16  C   UNL     1       0.281  -0.602   5.603  0.00  0.00    +0.047 A 
ATOM     17  C   UNL     1       0.387  -1.563   4.617  0.00  0.00    +0.030 A 
BRANCH  15  18
ATOM     18  O   UNL     1      -0.670   1.428   6.397  0.00  0.00    -0.492 OA
BRANCH  18  19
ATOM     19  C   UNL     1       0.110   1.234   7.578  0.00  0.00    +0.225 C 
ATOM     20  C   UNL     1      -0.143   2.388   8.552  0.00  0.00    +0.048 C 
ENDBRANCH  18  19
ENDBRANCH  15  18
ENDBRANCH  11  12
BRANCH   1  21
ATOM     21  C   UNL     1       0.837  -0.670   1.049  0.00  0.00    +0.144 C 
BRANCH  21  22
ATOM     22  N   UNL     1       2.295  -0.678   0.903  0.00  0.00    -0.273 N 
ATOM     23  C   UNL     1       3.064   0.002   1.777  0.00  0.00    +0.307 C 
ATOM     24  O   UNL     1       2.547   0.623   2.686  0.00  0.00    -0.252 OA
ATOM     25  N   UNL     1       4.405  -0.006   1.642  0.00  0.00    -0.269 N 
ATOM     26  H   UNL     1       4.821  -0.560   0.964  0.00  0.00    +0.156 HD
BRANCH  25  27
ATOM     27  C   UNL     1       5.197   0.786   2.482  0.00  0.00    +0.038 A 
ATOM     28  C   UNL     1       4.660   1.918   3.080  0.00  0.00    +0.023 A 
ATOM     29  C   UNL     1       5.444   2.697   3.909  0.00  0.00    +0.002 A 
ATOM     30  C   UNL     1       6.762   2.350   4.142  0.00  0.00    +0.000 A 
ATOM     31  C   UNL     1       7.299   1.224   3.548  0.00  0.00    +0.005 A 
ATOM     32  C   UNL     1       6.519   0.437   2.723  0.00  0.00    -0.029 A 
ATOM     33  C   UNL     1       7.103  -0.794   2.081  0.00  0.00    +0.045 C 
ENDBRANCH  25  27
BRANCH  22  34
ATOM     34  C   UNL     1       2.917  -1.426  -0.192  0.00  0.00    +0.138 C 
BRANCH  34  35
ATOM     35  C   UNL     1       3.056  -0.518  -1.415  0.00  0.00    +0.178 C 
BRANCH  35  36
ATOM     36  O   UNL     1       3.965   0.545  -1.119  0.00  0.00    -0.381 OA
ATOM     37  C   UNL     1       4.167   1.456  -2.201  0.00  0.00    +0.194 C 
ENDBRANCH  35  36
ENDBRANCH  34  35
ENDBRANCH  22  34
ENDBRANCH  21  22
BRANCH  21  39
ATOM     38  C   UNL     1       0.612   1.390  -0.346  0.00  0.00    +0.006 C 
ATOM     39  C   UNL     1       0.202  -0.077  -0.210  0.00  0.00    +0.027 C 
ENDBRANCH  21  39
ENDBRANCH   1  21
TORSDOF 10
