REMARK  Name = ZINC22113151
REMARK  12 active torsions:
REMARK  status: ('A' for Active; 'I' for Inactive)
REMARK    1  A    between atoms: C_1  and  C_2
REMARK    2  A    between atoms: C_2  and  C_3
REMARK    3  A    between atoms: C_3  and  O_4
REMARK    4  A    between atoms: O_4  and  C_5
REMARK    5  A    between atoms: C_8  and  N_15
REMARK    6  A    between atoms: C_10  and  O_11
REMARK    7  A    between atoms: O_11  and  C_12
REMARK    8  A    between atoms: C_12  and  C_13
REMARK    9  A    between atoms: C_13  and  C_14
REMARK   10  A    between atoms: N_20  and  C_23
REMARK   11  A    between atoms: C_23  and  C_24
REMARK   12  A    between atoms: N_29  and  C_30
REMARK                            x       y       z     vdW  Elec       q    Type
REMARK                         _______ _______ _______ _____ _____    ______ ____
ROOT
ATOM      1  N   UNL     1       0.063  -4.178  -0.022  0.00  0.00    -0.186 N 
ATOM      2  C   UNL     1      -1.023  -4.981  -0.011  0.00  0.00    +0.314 C 
ATOM      3  O   UNL     1      -2.188  -4.642   0.009  0.00  0.00    -0.264 OA
ATOM      4  C   UNL     1      -0.484  -6.380  -0.030  0.00  0.00    +0.310 C 
ATOM      5  O   UNL     1      -1.121  -7.413  -0.029  0.00  0.00    -0.264 OA
ATOM      6  N   UNL     1       0.860  -6.248  -0.042  0.00  0.00    -0.209 N 
ATOM      7  C   UNL     1       1.167  -4.941  -0.038  0.00  0.00    +0.323 C 
ATOM      8  O   UNL     1       2.301  -4.505  -0.047  0.00  0.00    -0.251 OA
ENDROOT
BRANCH   1  12
ATOM      9  C   UNL     1       0.002  -0.004   0.002  0.00  0.00    +0.162 A 
ATOM     10  C   UNL     1       1.211  -0.681  -0.019  0.00  0.00    +0.051 A 
ATOM     11  C   UNL     1       1.231  -2.062  -0.021  0.00  0.00    +0.028 A 
ATOM     12  C   UNL     1       0.040  -2.776  -0.014  0.00  0.00    +0.050 A 
ATOM     13  C   UNL     1      -1.173  -2.101   0.002  0.00  0.00    +0.073 A 
ATOM     14  C   UNL     1      -1.194  -0.716   0.010  0.00  0.00    +0.164 A 
BRANCH   9  15
ATOM     15  O   UNL     1      -0.016   1.356   0.009  0.00  0.00    -0.488 OA
BRANCH  15  16
ATOM     16  C   UNL     1       1.248   2.022   0.001  0.00  0.00    +0.229 C 
BRANCH  16  18
ATOM     17  C   UNL     1       2.381   4.249   0.002  0.00  0.00    +0.007 C 
ATOM     18  C   UNL     1       1.027   3.536   0.011  0.00  0.00    +0.038 C 
ENDBRANCH  16  18
ENDBRANCH  15  16
ENDBRANCH   9  15
BRANCH  14  19
ATOM     19  O   UNL     1      -2.381  -0.053   0.025  0.00  0.00    -0.488 OA
BRANCH  19  20
ATOM     20  C   UNL     1      -3.568  -0.849   0.032  0.00  0.00    +0.229 C 
BRANCH  20  21
ATOM     21  C   UNL     1      -4.794   0.066   0.048  0.00  0.00    +0.038 C 
ATOM     22  C   UNL     1      -6.066  -0.786   0.056  0.00  0.00    +0.007 C 
ENDBRANCH  20  21
ENDBRANCH  19  20
ENDBRANCH  14  19
ENDBRANCH   1  12
BRANCH   6  23
ATOM     23  C   UNL     1       1.824  -7.351  -0.058  0.00  0.00    +0.214 C 
BRANCH  23  24
ATOM     24  C   UNL     1       2.169  -7.737   1.358  0.00  0.00    +0.238 C 
ATOM     25  O   UNL     1       1.659  -7.149   2.287  0.00  0.00    -0.274 OA
ATOM     26  N   UNL     1       3.043  -8.736   1.590  0.00  0.00    -0.239 N 
ATOM     27  C   UNL     1       3.351  -9.081   2.855  0.00  0.00    +0.306 C 
ATOM     28  O   UNL     1       2.841  -8.492   3.788  0.00  0.00    -0.252 OA
ATOM     29  N   UNL     1       4.226 -10.080   3.087  0.00  0.00    -0.296 N 
ATOM     30  H   UNL     1       3.506  -9.269   0.746  0.00  0.00    +0.159 HD
ATOM     31  H   UNL     1       4.688 -10.613   2.244  0.00  0.00    +0.151 HD
BRANCH  29  32
ATOM     32  C   UNL     1       4.561 -10.456   4.463  0.00  0.00    +0.074 C 
ATOM     33  C   UNL     1       5.682  -9.551   4.980  0.00  0.00    +0.022 C 
ATOM     34  C   UNL     1       6.032  -9.943   6.417  0.00  0.00    +0.002 C 
ATOM     35  C   UNL     1       6.496 -11.401   6.449  0.00  0.00    +0.000 C 
ATOM     36  C   UNL     1       5.376 -12.305   5.933  0.00  0.00    +0.002 C 
ATOM     37  C   UNL     1       5.026 -11.913   4.495  0.00  0.00    +0.022 C 
ENDBRANCH  29  32
ENDBRANCH  23  24
ENDBRANCH   6  23
TORSDOF 10
