REMARK  Name = ZINC09127029
REMARK  7 active torsions:
REMARK  status: ('A' for Active; 'I' for Inactive)
REMARK    1  A    between atoms: C_1  and  N_2
REMARK    2  A    between atoms: N_4  and  C_5
REMARK    3  A    between atoms: C_5  and  C_7
REMARK    4  A    between atoms: C_7  and  N_54
REMARK    5  A    between atoms: N_10  and  C_13
REMARK    6  A    between atoms: C_16  and  O_19
REMARK    7  A    between atoms: C_21  and  C_24
REMARK                            x       y       z     vdW  Elec       q    Type
REMARK                         _______ _______ _______ _____ _____    ______ ____
ROOT
ATOM      1  C   UNL     1      -5.342   0.044   0.155  0.00  0.00    +0.221 C 
ATOM      2  O   UNL     1      -4.646   1.041   0.154  0.00  0.00    -0.276 OA
ENDROOT
BRANCH   1   6
ATOM      3  C   UNL     1      -3.316  -3.803   0.036  0.00  0.00    +0.172 C 
ATOM      4  N   UNL     1      -2.746  -2.453   0.031  0.00  0.00    -0.274 N 
ATOM      5  C   UNL     1      -3.454  -1.275   0.035  0.00  0.00    +0.142 A 
ATOM      6  N   UNL     1      -4.784  -1.156   0.043  0.00  0.00    -0.164 NA
ATOM      7  C   UNL     1      -2.528  -0.220   0.035  0.00  0.00    +0.072 A 
ATOM      8  C   UNL     1      -1.264  -0.764   0.021  0.00  0.00    +0.066 A 
ATOM      9  N   UNL     1      -1.382  -2.132   0.022  0.00  0.00    -0.296 N 
ATOM     10  H   UNL     1      -0.649  -2.767   0.018  0.00  0.00    +0.187 HD
BRANCH   8  11
ATOM     11  C   UNL     1       0.003  -0.006   0.013  0.00  0.00    -0.000 A 
ATOM     12  C   UNL     1      -0.016   1.391   0.012  0.00  0.00    +0.011 A 
ATOM     13  C   UNL     1       1.171   2.093   0.004  0.00  0.00    +0.020 A 
ATOM     14  C   UNL     1       2.379   1.417  -0.002  0.00  0.00    +0.041 A 
ATOM     15  C   UNL     1       2.405   0.031  -0.002  0.00  0.00    +0.020 A 
ATOM     16  C   UNL     1       1.225  -0.682   0.005  0.00  0.00    +0.011 A 
ATOM     17 CL   UNL     1       3.869   2.308  -0.012  0.00  0.00    -0.084 Cl
ENDBRANCH   8  11
ENDBRANCH   1   6
BRANCH   1  18
ATOM     18  C   UNL     1      -6.838   0.169   0.284  0.00  0.00    +0.021 C 
BRANCH  18  24
ATOM     19  C   UNL     1      -6.698   2.167   1.645  0.00  0.00    -0.059 C 
ATOM     20  C   UNL     1      -7.029   3.661   1.683  0.00  0.00    +0.086 C 
ATOM     21  N   UNL     1      -8.483   3.841   1.572  0.00  0.00    -0.333 N 
ATOM     22  C   UNL     1      -8.988   3.262   0.320  0.00  0.00    +0.086 C 
ATOM     23  C   UNL     1      -8.658   1.768   0.281  0.00  0.00    -0.059 C 
ATOM     24  N   UNL     1      -7.191   1.602   0.372  0.00  0.00    +0.387 N 
ATOM     25  H   UNL     1      -6.750   2.103  -0.409  0.00  0.00    -0.081 HD
BRANCH  21  26
ATOM     26  C   UNL     1      -8.831   5.193   1.676  0.00  0.00    +0.030 A 
ATOM     27  C   UNL     1      -9.556   5.803   0.661  0.00  0.00    +0.026 A 
ATOM     28  C   UNL     1      -9.904   7.136   0.767  0.00  0.00    +0.047 A 
ATOM     29  C   UNL     1      -9.518   7.867   1.881  0.00  0.00    +0.117 A 
ATOM     30  C   UNL     1      -8.789   7.259   2.892  0.00  0.00    +0.047 A 
ATOM     31  C   UNL     1      -8.446   5.925   2.791  0.00  0.00    +0.026 A 
BRANCH  29  32
ATOM     32  O   UNL     1      -9.857   9.180   1.982  0.00  0.00    -0.507 OA
ATOM     33  H   UNL     1      -9.203   9.785   1.604  0.00  0.00    +0.292 HD
ENDBRANCH  29  32
ENDBRANCH  21  26
ENDBRANCH  18  24
ENDBRANCH   1  18
TORSDOF 6
