REMARK  Name = ZINC37277498
REMARK  7 active torsions:
REMARK  status: ('A' for Active; 'I' for Inactive)
REMARK    1  A    between atoms: C_1  and  C_2
REMARK    2  A    between atoms: C_5  and  S_8
REMARK    3  A    between atoms: S_8  and  N_11
REMARK    4  A    between atoms: N_11  and  C_12
REMARK    5  A    between atoms: N_15  and  C_18
REMARK    6  A    between atoms: C_23  and  C_24
REMARK    7  A    between atoms: N_26  and  C_27
REMARK                            x       y       z     vdW  Elec       q    Type
REMARK                         _______ _______ _______ _____ _____    ______ ____
ROOT
ATOM      1  C   UNL     1       6.384  -4.079   2.463  0.00  0.00    +0.042 A 
ATOM      2  C   UNL     1       6.955  -3.693   3.669  0.00  0.00    +0.024 A 
ATOM      3  C   UNL     1       8.322  -3.534   3.767  0.00  0.00    +0.002 A 
ATOM      4  C   UNL     1       9.135  -3.756   2.666  0.00  0.00    +0.001 A 
ATOM      5  C   UNL     1       8.587  -4.138   1.462  0.00  0.00    +0.015 A 
ATOM      6  C   UNL     1       7.204  -4.309   1.348  0.00  0.00    +0.058 A 
ENDROOT
BRANCH   1  10
ATOM      7  C   UNL     1       2.316  -4.356   3.223  0.00  0.00    +0.079 C 
ATOM      8  C   UNL     1       3.303  -5.459   3.613  0.00  0.00    +0.039 C 
ATOM      9  C   UNL     1       4.395  -5.563   2.543  0.00  0.00    +0.106 C 
ATOM     10  N   UNL     1       5.008  -4.240   2.362  0.00  0.00    -0.329 N 
ATOM     11  C   UNL     1       4.138  -3.092   2.074  0.00  0.00    +0.106 C 
ATOM     12  C   UNL     1       3.050  -3.015   3.149  0.00  0.00    +0.039 C 
BRANCH   7  13
ATOM     13  N   UNL     1       1.253  -4.275   4.228  0.00  0.00    -0.187 NA
ATOM     14  H   UNL     1       1.383  -3.746   5.030  0.00  0.00    +0.148 HD
BRANCH  13  15
ATOM     15  S   UNL     1      -0.171  -5.088   3.993  0.00  0.00    +0.059 S 
ATOM     16  O   UNL     1      -0.603  -4.779   2.676  0.00  0.00    -0.153 OA
ATOM     17  O   UNL     1      -0.975  -4.837   5.138  0.00  0.00    -0.153 OA
BRANCH  15  22
ATOM     18  C   UNL     1       1.109 -10.985   4.047  0.00  0.00    +0.044 C 
ATOM     19  C   UNL     1       0.789  -9.512   4.034  0.00  0.00    -0.050 A 
ATOM     20  C   UNL     1       0.465  -8.864   5.211  0.00  0.00    +0.005 A 
ATOM     21  C   UNL     1       0.172  -7.513   5.199  0.00  0.00    +0.029 A 
ATOM     22  C   UNL     1       0.204  -6.810   4.009  0.00  0.00    +0.105 A 
ATOM     23  C   UNL     1       0.529  -7.457   2.832  0.00  0.00    +0.029 A 
ATOM     24  C   UNL     1       0.826  -8.807   2.845  0.00  0.00    +0.005 A 
ENDBRANCH  15  22
ENDBRANCH  13  15
ENDBRANCH   7  13
ENDBRANCH   1  10
BRANCH   6  25
ATOM     25  C   UNL     1       6.612  -4.724   0.063  0.00  0.00    +0.246 C 
ATOM     26  O   UNL     1       5.403  -4.772  -0.061  0.00  0.00    -0.270 OA
ATOM     27  N   UNL     1       7.409  -5.051  -0.973  0.00  0.00    -0.304 N 
ATOM     28  H   UNL     1       8.373  -5.013  -0.873  0.00  0.00    +0.150 HD
BRANCH  27  29
ATOM     29  C   UNL     1       6.820  -5.463  -2.249  0.00  0.00    +0.104 C 
ATOM     30  C   UNL     1       7.812  -6.349  -2.999  0.00  0.00    +0.027 C 
ATOM     31  C   UNL     1       7.273  -6.590  -4.414  0.00  0.00    +0.007 C 
ATOM     32  C   UNL     1       7.362  -5.279  -5.192  0.00  0.00    +0.035 C 
ATOM     33  C   UNL     1       6.731  -4.156  -4.413  0.00  0.00    -0.042 A 
ATOM     34  C   UNL     1       6.486  -4.239  -3.061  0.00  0.00    -0.024 A 
ATOM     35  C   UNL     1       5.907  -3.164  -2.400  0.00  0.00    +0.006 A 
ATOM     36  C   UNL     1       5.573  -2.015  -3.088  0.00  0.00    +0.000 A 
ATOM     37  C   UNL     1       5.816  -1.934  -4.446  0.00  0.00    +0.000 A 
ATOM     38  C   UNL     1       6.391  -3.000  -5.103  0.00  0.00    +0.004 A 
ENDBRANCH  27  29
ENDBRANCH   6  25
TORSDOF 6
