REMARK  Name = ZINC12498158
REMARK  11 active torsions:
REMARK  status: ('A' for Active; 'I' for Inactive)
REMARK    1  A    between atoms: C_1  and  C_2
REMARK    2  A    between atoms: C_2  and  C_3
REMARK    3  A    between atoms: C_3  and  C_4
REMARK    4  A    between atoms: C_4  and  C_32
REMARK    5  A    between atoms: C_9  and  C_11
REMARK    6  A    between atoms: N_20  and  C_23
REMARK    7  A    between atoms: C_27  and  C_29
REMARK    8  A    between atoms: C_29  and  C_31
REMARK    9  A    between atoms: C_32  and  O_34
REMARK   10  A    between atoms: O_34  and  C_35
REMARK   11  A    between atoms: C_35  and  C_36
REMARK                            x       y       z     vdW  Elec       q    Type
REMARK                         _______ _______ _______ _____ _____    ______ ____
ROOT
ATOM      1  C   UNL     1       3.246  -3.346  -0.656  0.00  0.00    +0.044 C 
ATOM      2  C   UNL     1       2.656  -2.641  -1.883  0.00  0.00    +0.086 C 
ATOM      3  C   UNL     1       1.150  -2.695  -1.399  0.00  0.00    +0.077 C 
ATOM      4  C   UNL     1       1.233  -2.186  -0.021  0.00  0.00    -0.024 C 
ATOM      5  C   UNL     1       0.459  -2.404  -2.636  0.00  0.00    +0.229 C 
ATOM      6  O   UNL     1      -0.554  -1.754  -2.784  0.00  0.00    -0.275 OA
ATOM      7  N   UNL     1       1.197  -3.026  -3.605  0.00  0.00    -0.210 N 
ATOM      8  C   UNL     1       2.432  -3.405  -3.159  0.00  0.00    +0.229 C 
ATOM      9  O   UNL     1       3.190  -4.192  -3.683  0.00  0.00    -0.275 OA
ATOM     10  N   UNL     1       2.546  -2.695   0.472  0.00  0.00    +0.395 N 
ATOM     11  H   UNL     1       3.110  -1.914   0.827  0.00  0.00    -0.083 HD
ATOM     12  H   UNL     1       2.393  -3.376   1.226  0.00  0.00    -0.083 HD
ENDROOT
BRANCH   4  13
ATOM     13  C   UNL     1       1.211  -0.679  -0.013  0.00  0.00    -0.025 A 
ATOM     14  C   UNL     1       2.397   0.030  -0.021  0.00  0.00    +0.005 A 
ATOM     15  C   UNL     1       2.377   1.412  -0.013  0.00  0.00    +0.000 A 
ATOM     16  C   UNL     1       1.171   2.087   0.002  0.00  0.00    +0.003 A 
ATOM     17  C   UNL     1      -0.017   1.381   0.010  0.00  0.00    +0.038 A 
ATOM     18  C   UNL     1       0.002  -0.004   0.002  0.00  0.00    +0.125 A 
ATOM     19  F   UNL     1      -1.158  -0.696   0.009  0.00  0.00    -0.205 F 
ENDBRANCH   4  13
BRANCH   7  20
ATOM     20  C   UNL     1       0.745  -3.241  -4.915  0.00  0.00    +0.045 A 
ATOM     21  C   UNL     1       1.571  -3.865  -5.841  0.00  0.00    +0.024 A 
ATOM     22  C   UNL     1       1.130  -4.084  -7.133  0.00  0.00    +0.003 A 
ATOM     23  C   UNL     1      -0.131  -3.675  -7.515  0.00  0.00    +0.011 A 
ATOM     24  C   UNL     1      -0.969  -3.041  -6.592  0.00  0.00    +0.019 A 
ATOM     25  C   UNL     1      -0.523  -2.825  -5.285  0.00  0.00    +0.035 A 
BRANCH  24  26
ATOM     26  C   UNL     1      -2.315  -2.603  -6.996  0.00  0.00    +0.160 C 
ATOM     27  O   UNL     1      -3.039  -2.053  -6.194  0.00  0.00    -0.292 OA
ATOM     28  C   UNL     1      -2.793  -2.837  -8.406  0.00  0.00    +0.091 C 
ENDBRANCH  24  26
ENDBRANCH   7  20
BRANCH   1  29
ATOM     29  C   UNL     1       2.918  -4.817  -0.676  0.00  0.00    +0.297 C 
ATOM     30  O   UNL     1       2.690  -5.371  -1.725  0.00  0.00    -0.252 OA
BRANCH  29  31
ATOM     31  O   UNL     1       2.880  -5.512   0.472  0.00  0.00    -0.466 OA
BRANCH  31  32
ATOM     32  C   UNL     1       2.557  -6.924   0.378  0.00  0.00    +0.228 C 
ATOM     33  C   UNL     1       2.561  -7.543   1.777  0.00  0.00    +0.048 C 
ENDBRANCH  31  32
ENDBRANCH  29  31
ENDBRANCH   1  29
BRANCH   1  34
ATOM     34  C   UNL     1       4.758  -3.127  -0.579  0.00  0.00    -0.001 C 
BRANCH  34  36
ATOM     35  C   UNL     1       6.828  -3.623   0.730  0.00  0.00    +0.004 C 
ATOM     36  C   UNL     1       5.316  -3.842   0.653  0.00  0.00    -0.004 C 
ENDBRANCH  34  36
ENDBRANCH   1  34
TORSDOF 8
