REMARK  Name = ZINC06887695
REMARK  6 active torsions:
REMARK  status: ('A' for Active; 'I' for Inactive)
REMARK    1  A    between atoms: C_1  and  C_2
REMARK    2  A    between atoms: C_5  and  C_18
REMARK    3  A    between atoms: C_7  and  S_8
REMARK    4  A    between atoms: S_8  and  N_11
REMARK    5  A    between atoms: C_19  and  C_24
REMARK    6  A    between atoms: C_20  and  C_23
REMARK                            x       y       z     vdW  Elec       q    Type
REMARK                         _______ _______ _______ _____ _____    ______ ____
ROOT
ATOM      1  C   UNL     1      -0.148   1.655   0.090  0.00  0.00    +0.046 C 
ATOM      2  C   UNL     1       0.015   0.159  -0.006  0.00  0.00    -0.024 A 
ATOM      3  C   UNL     1       0.108  -0.445  -1.247  0.00  0.00    +0.006 A 
ATOM      4  C   UNL     1       0.258  -1.813  -1.342  0.00  0.00    +0.012 A 
ATOM      5  C   UNL     1       0.315  -2.588  -0.182  0.00  0.00    +0.022 A 
ATOM      6  C   UNL     1       0.221  -1.972   1.067  0.00  0.00    +0.040 A 
ATOM      7  C   UNL     1       0.077  -0.602   1.147  0.00  0.00    +0.112 A 
ENDROOT
BRANCH   5   8
ATOM      8  C   UNL     1       0.475  -4.054  -0.276  0.00  0.00    +0.170 A 
ATOM      9  C   UNL     1      -0.228  -4.888  -1.091  0.00  0.00    +0.019 A 
ATOM     10  C   UNL     1       0.231  -6.195  -0.873  0.00  0.00    +0.084 A 
ATOM     11  N   UNL     1       1.168  -6.154   0.033  0.00  0.00    -0.083 NA
ATOM     12  O   UNL     1       1.345  -4.805   0.424  0.00  0.00    -0.354 OA
ATOM     13  C   UNL     1      -0.274  -7.435  -1.566  0.00  0.00    +0.069 C 
ATOM     14  C   UNL     1      -1.309  -4.478  -2.058  0.00  0.00    +0.049 C 
ENDBRANCH   5   8
BRANCH   7  15
ATOM     15  S   UNL     1      -0.036   0.178   2.723  0.00  0.00    +0.074 S 
ATOM     16  O   UNL     1       0.025  -0.857   3.695  0.00  0.00    -0.150 OA
ATOM     17  O   UNL     1       0.884   1.262   2.707  0.00  0.00    -0.150 OA
BRANCH  15  18
ATOM     18  N   UNL     1      -1.548   0.843   2.833  0.00  0.00    -0.199 N 
ATOM     19  C   UNL     1      -2.671   0.023   2.816  0.00  0.00    +0.138 A 
ATOM     20  C   UNL     1      -3.940   0.592   2.793  0.00  0.00    +0.045 A 
ATOM     21  C   UNL     1      -5.048  -0.235   2.776  0.00  0.00    +0.005 A 
ATOM     22  C   UNL     1      -4.849  -1.610   2.782  0.00  0.00    +0.020 A 
ATOM     23  C   UNL     1      -3.561  -2.106   2.805  0.00  0.00    +0.113 A 
ATOM     24  N   UNL     1      -2.522  -1.293   2.815  0.00  0.00    -0.239 NA
ATOM     25  H   UNL     1      -1.651   1.804   2.910  0.00  0.00    +0.175 HD
ENDBRANCH  15  18
ENDBRANCH   7  15
TORSDOF 3
