REMARK  Name = ZINC04760026
REMARK  8 active torsions:
REMARK  status: ('A' for Active; 'I' for Inactive)
REMARK    1  A    between atoms: C_1  and  C_2
REMARK    2  A    between atoms: C_13  and  C_14
REMARK    3  A    between atoms: C_13  and  O_19
REMARK    4  A    between atoms: C_15  and  C_16
REMARK    5  A    between atoms: C_16  and  N_61
REMARK    6  A    between atoms: C_17  and  N_61
REMARK    7  A    between atoms: C_18  and  N_61
REMARK    8  A    between atoms: C_24  and  O_30
REMARK                            x       y       z     vdW  Elec       q    Type
REMARK                         _______ _______ _______ _____ _____    ______ ____
ROOT
ATOM      1  C   UNL     1      -2.540   3.480   2.869  0.00  0.00    +0.015 C 
ATOM      2  C   UNL     1      -2.203   2.115   3.478  0.00  0.00    +0.011 C 
ATOM      3  C   UNL     1      -0.714   2.002   3.709  0.00  0.00    +0.011 C 
ATOM      4  C   UNL     1      -0.062   1.195   2.569  0.00  0.00    +0.005 C 
ATOM      5  C   UNL     1      -0.743   1.567   1.262  0.00  0.00    -0.000 C 
ATOM      6  C   UNL     1      -2.150   0.945   1.235  0.00  0.00    -0.003 C 
ATOM      7  C   UNL     1      -2.733   0.957   2.611  0.00  0.00    +0.002 C 
ATOM      8  C   UNL     1      -4.255   1.139   2.719  0.00  0.00    +0.008 C 
ATOM      9  C   UNL     1      -4.462   1.565   4.197  0.00  0.00    +0.049 C 
ATOM     10  C   UNL     1      -3.069   1.963   4.743  0.00  0.00    +0.132 C 
ATOM     11  C   UNL     1      -2.960   1.600   0.130  0.00  0.00    +0.008 C 
ATOM     12  C   UNL     1      -2.305   1.225  -1.212  0.00  0.00    +0.031 C 
ATOM     13  C   UNL     1      -0.827   1.574  -1.165  0.00  0.00    -0.068 C 
ATOM     14  C   UNL     1      -0.339   2.292  -2.134  0.00  0.00    +0.003 C 
ATOM     15  C   UNL     1       1.099   2.720  -2.196  0.00  0.00    +0.137 C 
ATOM     16  C   UNL     1       1.951   1.704  -1.429  0.00  0.00    +0.036 C 
ATOM     17  C   UNL     1       1.412   1.605  -0.003  0.00  0.00    +0.011 C 
ATOM     18  C   UNL     1      -0.013   1.083   0.008  0.00  0.00    +0.018 C 
ENDROOT
BRANCH  10  19
ATOM     19  C   UNL     1      -3.145   3.246   5.455  0.00  0.00    -0.069 C 
ATOM     20  C   UNL     1      -3.205   4.272   6.024  0.00  0.00    -0.118 C 
BRANCH  20  21
ATOM     21  C   UNL     1      -3.281   5.557   6.738  0.00  0.00    +0.011 C 
BRANCH  21  24
ATOM     22  C   UNL     1      -5.284   6.249   5.567  0.00  0.00    -0.095 C 
ATOM     23  C   UNL     1      -3.759   7.912   6.443  0.00  0.00    -0.095 C 
ATOM     24  N   UNL     1      -3.867   6.570   5.834  0.00  0.00    +0.383 N 
ATOM     25  H   UNL     1      -3.350   6.563   4.947  0.00  0.00    -0.081 HD
ENDBRANCH  21  24
ENDBRANCH  20  21
ENDBRANCH  10  19
BRANCH  10  26
ATOM     26  O   UNL     1      -2.549   0.941   5.587  0.00  0.00    -0.376 OA
ATOM     27  H   UNL     1      -3.057   0.804   6.398  0.00  0.00    +0.211 HD
ENDBRANCH  10  26
BRANCH  15  28
ATOM     28  O   UNL     1       1.525   2.773  -3.558  0.00  0.00    -0.388 OA
ATOM     29  H   UNL     1       1.027   3.399  -4.102  0.00  0.00    +0.210 HD
ENDBRANCH  15  28
TORSDOF 5
