REMARK  Name = ZINC62038612
REMARK  7 active torsions:
REMARK  status: ('A' for Active; 'I' for Inactive)
REMARK    1  A    between atoms: C_1  and  C_2
REMARK    2  A    between atoms: C_2  and  C_4
REMARK    3  A    between atoms: C_2  and  S_15
REMARK    4  A    between atoms: N_6  and  C_7
REMARK    5  A    between atoms: C_12  and  O_13
REMARK    6  A    between atoms: S_15  and  C_16
REMARK    7  A    between atoms: C_21  and  C_26
REMARK                            x       y       z     vdW  Elec       q    Type
REMARK                         _______ _______ _______ _____ _____    ______ ____
ROOT
ATOM      1  S   UNL     1       0.857  -0.562  -1.489  0.00  0.00    -0.075 S 
ENDROOT
BRANCH   1   2
ATOM      2  C   UNL     1      -0.180  -0.017  -2.805  0.00  0.00    +0.171 A 
ATOM      3  N   UNL     1      -1.278   0.652  -2.525  0.00  0.00    -0.185 NA
ATOM      4  C   UNL     1      -2.108   1.095  -3.474  0.00  0.00    +0.283 A 
ATOM      5  O   UNL     1      -3.117   1.712  -3.172  0.00  0.00    -0.265 OA
ATOM      6  C   UNL     1      -1.791   0.830  -4.896  0.00  0.00    +0.083 A 
ATOM      7  C   UNL     1      -2.531   1.206  -6.097  0.00  0.00    +0.039 A 
ATOM      8  C   UNL     1      -2.033   0.846  -7.307  0.00  0.00    +0.059 A 
ATOM      9  S   UNL     1      -0.534  -0.024  -6.889  0.00  0.00    -0.078 S 
ATOM     10  C   UNL     1      -0.614   0.117  -5.124  0.00  0.00    +0.093 A 
ATOM     11  N   UNL     1       0.176  -0.291  -4.092  0.00  0.00    -0.328 N 
ATOM     12  H   UNL     1       0.993  -0.782  -4.273  0.00  0.00    +0.168 HD
BRANCH   7  13
ATOM     13  C   UNL     1      -3.795   1.964  -5.997  0.00  0.00    +0.136 A 
ATOM     14  C   UNL     1      -4.107   3.091  -6.691  0.00  0.00    +0.050 A 
ATOM     15  C   UNL     1      -5.403   3.471  -6.286  0.00  0.00    +0.042 A 
ATOM     16  C   UNL     1      -5.813   2.568  -5.376  0.00  0.00    +0.196 A 
ATOM     17  O   UNL     1      -4.841   1.655  -5.208  0.00  0.00    -0.463 OA
ENDBRANCH   7  13
ENDBRANCH   1   2
BRANCH   1  19
ATOM     18  C   UNL     1      -0.008   1.544   0.027  0.00  0.00    +0.029 C 
ATOM     19  C   UNL     1       0.008   0.014   0.007  0.00  0.00    +0.137 C 
BRANCH  19  20
ATOM     20  C   UNL     1       0.733  -0.497   1.225  0.00  0.00    +0.230 C 
ATOM     21  O   UNL     1       1.913  -0.772   1.157  0.00  0.00    -0.274 OA
ATOM     22  N   UNL     1       0.071  -0.647   2.389  0.00  0.00    -0.282 N 
ATOM     23  H   UNL     1      -0.854  -0.367   2.461  0.00  0.00    +0.155 HD
BRANCH  22  24
ATOM     24  C   UNL     1       0.721  -1.210   3.497  0.00  0.00    +0.077 A 
ATOM     25  C   UNL     1       2.071  -0.969   3.707  0.00  0.00    +0.047 A 
ATOM     26  C   UNL     1       2.709  -1.524   4.801  0.00  0.00    +0.043 A 
ATOM     27  C   UNL     1       2.005  -2.321   5.686  0.00  0.00    +0.023 A 
ATOM     28  C   UNL     1       0.659  -2.565   5.481  0.00  0.00    +0.049 A 
ATOM     29  C   UNL     1       0.011  -2.007   4.391  0.00  0.00    +0.138 A 
ATOM     30 CL   UNL     1       4.399  -1.222   5.063  0.00  0.00    -0.083 Cl
BRANCH  29  31
ATOM     31  O   UNL     1      -1.313  -2.242   4.193  0.00  0.00    -0.505 OA
ATOM     32  H   UNL     1      -1.498  -3.024   3.656  0.00  0.00    +0.292 HD
ENDBRANCH  29  31
ENDBRANCH  22  24
ENDBRANCH  19  20
ENDBRANCH   1  19
TORSDOF 6
