REMARK  Name = ZINC16690138
REMARK  7 active torsions:
REMARK  status: ('A' for Active; 'I' for Inactive)
REMARK    1  A    between atoms: C_1  and  C_2
REMARK    2  A    between atoms: C_2  and  C_3
REMARK    3  A    between atoms: C_9  and  C_11
REMARK    4  A    between atoms: C_11  and  C_13
REMARK    5  A    between atoms: C_11  and  N_18
REMARK    6  A    between atoms: C_20  and  C_27
REMARK    7  A    between atoms: C_23  and  C_26
REMARK                            x       y       z     vdW  Elec       q    Type
REMARK                         _______ _______ _______ _____ _____    ______ ____
ROOT
ATOM      1  C   UNL     1      -0.099   0.979   2.425  0.00  0.00    +0.012 C 
ENDROOT
BRANCH   1   8
ATOM      2  C   UNL     1      -1.942   3.426   7.540  0.00  0.00    +0.152 A 
ATOM      3  N   UNL     1      -2.870   3.096   6.644  0.00  0.00    -0.205 NA
ATOM      4  C   UNL     1      -2.291   2.579   5.595  0.00  0.00    +0.199 A 
ATOM      5  N   UNL     1      -0.943   2.556   5.782  0.00  0.00    -0.170 N 
ATOM      6  N   UNL     1      -0.762   3.121   7.071  0.00  0.00    -0.146 NA
ATOM      7  C   UNL     1      -0.176   2.038   4.766  0.00  0.00    +0.282 A 
ATOM      8  C   UNL     1      -0.747   1.579   3.646  0.00  0.00    +0.051 A 
ATOM      9  S   UNL     1      -2.478   1.873   3.975  0.00  0.00    -0.050 S 
ATOM     10  O   UNL     1       1.177   1.991   4.900  0.00  0.00    -0.265 OA
BRANCH   2  12
ATOM     11  C   UNL     1      -2.199   5.576   8.748  0.00  0.00    +0.012 C 
ATOM     12  C   UNL     1      -2.211   4.053   8.884  0.00  0.00    +0.075 C 
ENDBRANCH   2  12
ENDBRANCH   1   8
BRANCH   1  13
ATOM     13  N   UNL     1      -0.700   1.559   1.216  0.00  0.00    +0.388 N 
ATOM     14  C   UNL     1      -0.013   1.086   0.008  0.00  0.00    -0.074 C 
ATOM     15  C   UNL     1      -0.752   1.593  -1.232  0.00  0.00    -0.031 C 
ATOM     16  C   UNL     1      -0.788   3.123  -1.209  0.00  0.00    +0.003 C 
ATOM     17  C   UNL     1      -1.465   3.591   0.082  0.00  0.00    -0.031 C 
ATOM     18  C   UNL     1      -0.705   3.026   1.284  0.00  0.00    -0.074 C 
ATOM     19  C   UNL     1      -2.911   3.091   0.111  0.00  0.00    +0.005 C 
ATOM     20  C   UNL     1      -0.024   1.117  -2.491  0.00  0.00    +0.005 C 
ATOM     21  H   UNL     1      -1.745   1.222   1.161  0.00  0.00    -0.080 HD
ENDBRANCH   1  13
BRANCH   1  22
ATOM     22  C   UNL     1      -0.313  -0.513   2.425  0.00  0.00    -0.019 A 
ATOM     23  C   UNL     1       0.542  -1.498   2.793  0.00  0.00    +0.010 A 
ATOM     24  C   UNL     1       0.125  -2.813   2.713  0.00  0.00    +0.008 A 
ATOM     25  C   UNL     1      -1.124  -3.080   2.259  0.00  0.00    +0.045 A 
ATOM     26  S   UNL     1      -1.756  -1.442   1.934  0.00  0.00    -0.103 S 
ENDBRANCH   1  22
TORSDOF 4
