REMARK  Name = ZINC14460911
REMARK  4 active torsions:
REMARK  status: ('A' for Active; 'I' for Inactive)
REMARK    1  A    between atoms: C_6  and  S_7
REMARK    2  A    between atoms: S_7  and  N_10
REMARK    3  A    between atoms: C_24  and  C_27
REMARK    4  A    between atoms: C_32  and  O_33
REMARK                            x       y       z     vdW  Elec       q    Type
REMARK                         _______ _______ _______ _____ _____    ______ ____
ROOT
ATOM      1  C   UNL     1       5.513   2.072  -2.626  0.00  0.00    +0.030 A 
ATOM      2  C   UNL     1       4.584   1.166  -3.098  0.00  0.00    +0.025 A 
ATOM      3  C   UNL     1       3.546   0.743  -2.278  0.00  0.00    +0.031 A 
ATOM      4  C   UNL     1       3.434   1.222  -0.981  0.00  0.00    -0.018 A 
ATOM      5  C   UNL     1       4.375   2.132  -0.518  0.00  0.00    +0.034 A 
ATOM      6  C   UNL     1       5.405   2.553  -1.334  0.00  0.00    +0.106 A 
ATOM      7  C   UNL     1       2.342   0.783  -0.045  0.00  0.00    +0.049 C 
ATOM      8  C   UNL     1       1.308   1.870   0.124  0.00  0.00    -0.023 C 
ATOM      9  C   UNL     1       0.110   1.347   0.211  0.00  0.00    -0.030 C 
ATOM     10  C   UNL     1       0.182  -0.165   0.117  0.00  0.00    +0.033 C 
ATOM     11  C   UNL     1       1.545  -0.418  -0.590  0.00  0.00    +0.029 C 
ATOM     12  C   UNL     1       1.311  -0.272  -2.097  0.00  0.00    +0.108 C 
ATOM     13  N   UNL     1       2.610  -0.172  -2.771  0.00  0.00    -0.336 N 
ATOM     14  H   UNL     1       2.815  -0.727  -3.540  0.00  0.00    +0.147 HD
ENDROOT
BRANCH  12  15
ATOM     15  C   UNL     1       0.564  -1.475  -2.611  0.00  0.00    +0.015 A 
ATOM     16  C   UNL     1      -0.772  -1.367  -2.948  0.00  0.00    +0.024 A 
ATOM     17  C   UNL     1      -1.458  -2.471  -3.420  0.00  0.00    +0.018 A 
ATOM     18  C   UNL     1      -0.810  -3.686  -3.555  0.00  0.00    +0.019 A 
ATOM     19  C   UNL     1       0.525  -3.798  -3.220  0.00  0.00    +0.047 A 
ATOM     20  C   UNL     1       1.217  -2.690  -2.751  0.00  0.00    +0.122 A 
ATOM     21 BR   UNL     1      -3.286  -2.320  -3.881  0.00  0.00    -0.050 Br
BRANCH  20  22
ATOM     22  O   UNL     1       2.533  -2.797  -2.425  0.00  0.00    -0.506 OA
ATOM     23  H   UNL     1       2.691  -3.043  -1.504  0.00  0.00    +0.292 HD
ENDBRANCH  20  22
ENDBRANCH  12  15
BRANCH   6  24
ATOM     24  S   UNL     1       6.588   3.710  -0.728  0.00  0.00    +0.061 S 
ATOM     25  O   UNL     1       7.139   4.361  -1.865  0.00  0.00    -0.153 OA
ATOM     26  O   UNL     1       5.955   4.423   0.326  0.00  0.00    -0.153 OA
BRANCH  24  27
ATOM     27  N   UNL     1       7.816   2.839  -0.039  0.00  0.00    -0.177 NA
ATOM     28  C   UNL     1       7.730   2.511   1.366  0.00  0.00    +0.109 C 
ATOM     29  C   UNL     1       8.369   3.635   2.208  0.00  0.00    +0.017 C 
ATOM     30  C   UNL     1       9.831   3.626   2.045  0.00  0.00    +0.001 C 
ATOM     31  C   UNL     1      10.306   3.901   0.622  0.00  0.00    +0.001 C 
ATOM     32  C   UNL     1      10.305   2.613  -0.163  0.00  0.00    +0.017 C 
ATOM     33  C   UNL     1       8.957   2.434  -0.884  0.00  0.00    +0.109 C 
ENDBRANCH  24  27
ENDBRANCH   6  24
TORSDOF 4
