REMARK  Name = ZINC00648693
REMARK  7 active torsions:
REMARK  status: ('A' for Active; 'I' for Inactive)
REMARK    1  A    between atoms: C_1  and  C_2
REMARK    2  A    between atoms: C_2  and  C_3
REMARK    3  A    between atoms: C_9  and  C_11
REMARK    4  A    between atoms: C_11  and  S_12
REMARK    5  A    between atoms: S_12  and  C_13
REMARK    6  A    between atoms: C_16  and  C_24
REMARK    7  A    between atoms: N_17  and  C_18
REMARK                            x       y       z     vdW  Elec       q    Type
REMARK                         _______ _______ _______ _____ _____    ______ ____
ROOT
ATOM      1  C   UNL     1       0.595   4.304   0.950  0.00  0.00    +0.197 A 
ATOM      2  N   UNL     1       0.847   5.543   0.591  0.00  0.00    -0.122 NA
ATOM      3  N   UNL     1       1.491   5.559  -0.521  0.00  0.00    -0.128 NA
ATOM      4  C   UNL     1       1.696   4.332  -0.939  0.00  0.00    +0.170 A 
ATOM      5  N   UNL     1       1.123   3.488  -0.013  0.00  0.00    -0.270 N 
ENDROOT
BRANCH   4   6
ATOM      6  C   UNL     1       2.405   3.931  -2.173  0.00  0.00    +0.034 A 
ATOM      7  C   UNL     1       1.839   2.987  -3.031  0.00  0.00    +0.013 A 
ATOM      8  C   UNL     1       2.505   2.618  -4.181  0.00  0.00    +0.001 A 
ATOM      9  C   UNL     1       3.732   3.181  -4.485  0.00  0.00    +0.001 A 
ATOM     10  C   UNL     1       4.300   4.116  -3.639  0.00  0.00    +0.016 A 
ATOM     11  C   UNL     1       3.641   4.499  -2.487  0.00  0.00    +0.029 A 
ATOM     12 BR   UNL     1       4.415   5.783  -1.335  0.00  0.00    -0.050 Br
ENDBRANCH   4   6
BRANCH   5  13
ATOM     13  C   UNL     1       1.093   2.087  -0.046  0.00  0.00    +0.051 A 
ATOM     14  C   UNL     1      -0.114   1.421  -0.206  0.00  0.00    +0.026 A 
ATOM     15  C   UNL     1      -0.140   0.040  -0.239  0.00  0.00    +0.002 A 
ATOM     16  C   UNL     1       1.034  -0.678  -0.114  0.00  0.00    +0.000 A 
ATOM     17  C   UNL     1       2.239  -0.017   0.045  0.00  0.00    +0.002 A 
ATOM     18  C   UNL     1       2.271   1.363   0.080  0.00  0.00    +0.026 A 
ENDBRANCH   5  13
BRANCH   1  19
ATOM     19  S   UNL     1      -0.263   3.790   2.401  0.00  0.00    -0.076 S 
BRANCH  19  20
ATOM     20  C   UNL     1      -0.631   5.402   3.136  0.00  0.00    +0.173 C 
BRANCH  20  27
ATOM     21  C   UNL     1      -3.781   6.113   8.623  0.00  0.00    +0.103 A 
ATOM     22  N   UNL     1      -3.476   4.978   8.027  0.00  0.00    -0.145 NA
ATOM     23  N   UNL     1      -2.843   4.973   6.935  0.00  0.00    -0.126 NA
ATOM     24  C   UNL     1      -2.462   6.093   6.344  0.00  0.00    +0.188 A 
ATOM     25  S   UNL     1      -3.063   7.276   7.468  0.00  0.00    -0.035 S 
ATOM     26  N   UNL     1      -1.767   6.274   5.153  0.00  0.00    -0.263 N 
ATOM     27  C   UNL     1      -1.385   5.206   4.427  0.00  0.00    +0.229 C 
ATOM     28  O   UNL     1      -1.647   4.086   4.811  0.00  0.00    -0.275 OA
ATOM     29  H   UNL     1      -1.558   7.170   4.846  0.00  0.00    +0.157 HD
BRANCH  21  31
ATOM     30  C   UNL     1      -3.520   6.402  11.072  0.00  0.00    +0.011 C 
ATOM     31  C   UNL     1      -4.519   6.361   9.913  0.00  0.00    +0.061 C 
ENDBRANCH  21  31
ENDBRANCH  20  27
ENDBRANCH  19  20
ENDBRANCH   1  19
TORSDOF 6
