REMARK  Name = ZINC09216078
REMARK  4 active torsions:
REMARK  status: ('A' for Active; 'I' for Inactive)
REMARK    1  A    between atoms: C_15  and  C_17
REMARK    2  A    between atoms: C_17  and  C_19
REMARK    3  A    between atoms: N_26  and  C_29
REMARK    4  A    between atoms: C_33  and  C_35
REMARK                            x       y       z     vdW  Elec       q    Type
REMARK                         _______ _______ _______ _____ _____    ______ ____
ROOT
ATOM      1  C   UNL     1      -1.753   7.731  -0.332  0.00  0.00    +0.001 A 
ATOM      2  C   UNL     1      -1.739   6.910   0.782  0.00  0.00    +0.000 A 
ATOM      3  C   UNL     1      -0.797   5.902   0.894  0.00  0.00    +0.006 A 
ATOM      4  C   UNL     1       0.130   5.713  -0.105  0.00  0.00    -0.021 A 
ATOM      5  C   UNL     1       0.127   6.540  -1.235  0.00  0.00    -0.019 A 
ATOM      6  C   UNL     1      -0.828   7.553  -1.340  0.00  0.00    +0.008 A 
ATOM      7  C   UNL     1       1.125   6.343  -2.305  0.00  0.00    +0.022 C 
ATOM      8  C   UNL     1       1.800   5.179  -2.375  0.00  0.00    +0.054 C 
ATOM      9  C   UNL     1       1.163   4.620  -0.014  0.00  0.00    +0.100 C 
ATOM     10  C   UNL     1       0.612   3.378   0.682  0.00  0.00    +0.113 C 
ATOM     11  C   UNL     1       1.196   2.188  -0.139  0.00  0.00    +0.116 C 
ATOM     12  C   UNL     1       1.422   2.790  -1.541  0.00  0.00    +0.144 C 
ATOM     13  C   UNL     1      -0.005   1.258  -0.215  0.00  0.00    +0.232 C 
ATOM     14  O   UNL     1       0.032   0.070  -0.451  0.00  0.00    -0.274 OA
ATOM     15  N   UNL     1      -1.113   1.979   0.017  0.00  0.00    -0.210 N 
ATOM     16  C   UNL     1      -0.874   3.235   0.429  0.00  0.00    +0.232 C 
ATOM     17  O   UNL     1      -1.706   4.106   0.570  0.00  0.00    -0.274 OA
ATOM     18  N   UNL     1       1.819   4.195  -1.228  0.00  0.00    -0.384 NA
ATOM     19  H   UNL     1       2.812   4.137  -0.976  0.00  0.00    +0.127 HD
ENDROOT
BRANCH  15  20
ATOM     20  C   UNL     1      -2.406   1.464  -0.152  0.00  0.00    +0.045 A 
ATOM     21  C   UNL     1      -2.863   0.446   0.675  0.00  0.00    +0.025 A 
ATOM     22  C   UNL     1      -4.139  -0.056   0.510  0.00  0.00    +0.022 A 
ATOM     23  C   UNL     1      -4.958   0.447  -0.486  0.00  0.00    +0.053 A 
ATOM     24  C   UNL     1      -4.503   1.458  -1.315  0.00  0.00    +0.075 A 
ATOM     25  C   UNL     1      -3.230   1.967  -1.150  0.00  0.00    +0.037 A 
ATOM     26 CL   UNL     1      -6.559  -0.190  -0.695  0.00  0.00    -0.083 Cl
BRANCH  24  27
ATOM     27  C   UNL     1      -5.397   2.003  -2.398  0.00  0.00    +0.419 C 
ATOM     28  F   UNL     1      -4.722   3.008  -3.099  0.00  0.00    -0.166 F 
ATOM     29  F   UNL     1      -5.744   0.973  -3.279  0.00  0.00    -0.166 F 
ATOM     30  F   UNL     1      -6.557   2.534  -1.823  0.00  0.00    -0.166 F 
ENDBRANCH  24  27
ENDBRANCH  15  20
BRANCH  12  31
ATOM     31  C   UNL     1       0.266   2.436  -2.441  0.00  0.00    +0.217 C 
ATOM     32  O   UNL     1      -0.565   3.277  -2.722  0.00  0.00    -0.287 OA
BRANCH  31  33
ATOM     33  C   UNL     1       0.147   1.126  -2.957  0.00  0.00    +0.172 A 
ATOM     34  C   UNL     1      -0.858   0.665  -3.784  0.00  0.00    +0.053 A 
ATOM     35  C   UNL     1      -0.572  -0.682  -4.045  0.00  0.00    +0.042 A 
ATOM     36  C   UNL     1       0.565  -0.987  -3.378  0.00  0.00    +0.196 A 
ATOM     37  O   UNL     1       0.994   0.100  -2.726  0.00  0.00    -0.460 OA
ENDBRANCH  31  33
ENDBRANCH  12  31
TORSDOF 4
