REMARK  Name = ZINC34903853
REMARK  13 active torsions:
REMARK  status: ('A' for Active; 'I' for Inactive)
REMARK    1  A    between atoms: C_1  and  N_2
REMARK    2  A    between atoms: N_2  and  C_3
REMARK    3  A    between atoms: N_2  and  C_4
REMARK    4  A    between atoms: C_4  and  C_5
REMARK    5  A    between atoms: C_5  and  C_7
REMARK    6  A    between atoms: C_5  and  C_31
REMARK    7  A    between atoms: C_10  and  O_13
REMARK    8  A    between atoms: O_13  and  C_14
REMARK    9  A    between atoms: C_16  and  O_30
REMARK   10  A    between atoms: C_18  and  O_29
REMARK   11  A    between atoms: C_20  and  O_28
REMARK   12  A    between atoms: C_22  and  C_25
REMARK   13  A    between atoms: C_31  and  O_37
REMARK                            x       y       z     vdW  Elec       q    Type
REMARK                         _______ _______ _______ _____ _____    ______ ____
ROOT
ATOM      1  C   UNL     1      -1.447  -0.699   2.298  0.00  0.00    -0.043 A 
ATOM      2  C   UNL     1      -1.594  -2.062   2.119  0.00  0.00    +0.007 A 
ATOM      3  C   UNL     1      -2.855  -2.610   1.982  0.00  0.00    +0.046 A 
ATOM      4  C   UNL     1      -3.974  -1.791   2.023  0.00  0.00    +0.124 A 
ATOM      5  C   UNL     1      -3.824  -0.424   2.203  0.00  0.00    +0.046 A 
ATOM      6  C   UNL     1      -2.562   0.118   2.346  0.00  0.00    +0.007 A 
ENDROOT
BRANCH   1   7
ATOM      7  C   UNL     1      -0.071  -0.103   2.448  0.00  0.00    +0.034 C 
BRANCH   7   8
ATOM      8  C   UNL     1       0.565  -0.608   3.745  0.00  0.00    +0.071 C 
ATOM      9  C   UNL     1      -0.371  -0.316   4.919  0.00  0.00    +0.035 C 
ATOM     10  C   UNL     1       0.265  -0.821   6.216  0.00  0.00    +0.003 C 
ATOM     11  C   UNL     1       1.601  -0.110   6.439  0.00  0.00    +0.000 C 
ATOM     12  C   UNL     1       2.537  -0.402   5.265  0.00  0.00    +0.003 C 
ATOM     13  C   UNL     1       1.901   0.103   3.968  0.00  0.00    +0.035 C 
BRANCH   8  14
ATOM     14  O   UNL     1       0.785  -2.017   3.650  0.00  0.00    -0.388 OA
ATOM     15  H   UNL     1       1.187  -2.406   4.439  0.00  0.00    +0.210 HD
ENDBRANCH   8  14
ENDBRANCH   7   8
BRANCH   7  16
ATOM     16  C   UNL     1       0.797  -0.520   1.258  0.00  0.00    -0.069 C 
BRANCH  16  18
ATOM     17  C   UNL     1       0.358   1.529   0.091  0.00  0.00    -0.097 C 
ATOM     18  N   UNL     1       0.252   0.065   0.026  0.00  0.00    +0.376 N 
ATOM     19  C   UNL     1       1.012  -0.430  -1.129  0.00  0.00    -0.097 C 
ATOM     20  H   UNL     1      -0.717  -0.198  -0.071  0.00  0.00    -0.083 HD
ENDBRANCH  16  18
ENDBRANCH   7  16
ENDBRANCH   1   7
BRANCH   4  21
ATOM     21  O   UNL     1      -5.215  -2.328   1.887  0.00  0.00    -0.461 OA
BRANCH  21  22
ATOM     22  C   UNL     1      -6.322  -1.425   1.940  0.00  0.00    +0.340 C 
ATOM     23  C   UNL     1      -7.617  -2.187   1.647  0.00  0.00    +0.214 C 
ATOM     24  C   UNL     1      -7.831  -3.250   2.729  0.00  0.00    +0.180 C 
ATOM     25  C   UNL     1      -7.856  -2.568   4.101  0.00  0.00    +0.186 C 
ATOM     26  C   UNL     1      -6.552  -1.791   4.299  0.00  0.00    +0.266 C 
ATOM     27  O   UNL     1      -6.398  -0.842   3.242  0.00  0.00    -0.322 OA
BRANCH  26  28
ATOM     28  C   UNL     1      -6.593  -1.070   5.622  0.00  0.00    +0.387 C 
ATOM     29  O   UNL     1      -6.629  -1.705   6.662  0.00  0.00    -0.243 OA
ATOM     30  O   UNL     1      -6.591   0.149   5.651  0.00  0.00    -0.243 OA
ENDBRANCH  26  28
BRANCH  25  31
ATOM     31  O   UNL     1      -8.964  -1.668   4.167  0.00  0.00    -0.386 OA
ATOM     32  H   UNL     1      -9.041  -1.200   5.009  0.00  0.00    +0.210 HD
ENDBRANCH  25  31
BRANCH  24  33
ATOM     33  O   UNL     1      -9.074  -3.918   2.503  0.00  0.00    -0.386 OA
ATOM     34  H   UNL     1      -9.275  -4.606   3.153  0.00  0.00    +0.210 HD
ENDBRANCH  24  33
BRANCH  23  35
ATOM     35  O   UNL     1      -8.717  -1.276   1.646  0.00  0.00    -0.383 OA
ATOM     36  H   UNL     1      -8.645  -0.573   0.986  0.00  0.00    +0.210 HD
ENDBRANCH  23  35
ENDBRANCH  21  22
ENDBRANCH   4  21
TORSDOF 11
