REMARK  Name = ZINC20940729
REMARK  7 active torsions:
REMARK  status: ('A' for Active; 'I' for Inactive)
REMARK    1  A    between atoms: C_1  and  C_2
REMARK    2  A    between atoms: C_3  and  C_31
REMARK    3  A    between atoms: C_4  and  C_22
REMARK    4  A    between atoms: C_8  and  C_11
REMARK    5  A    between atoms: N_13  and  C_14
REMARK    6  A    between atoms: C_25  and  N_28
REMARK    7  A    between atoms: N_33  and  C_34
REMARK                            x       y       z     vdW  Elec       q    Type
REMARK                         _______ _______ _______ _____ _____    ______ ____
ROOT
ATOM      1  C   UNL     1      -1.559   8.520  -1.160  0.00  0.00    +0.061 C 
ATOM      2  C   UNL     1      -2.442   7.552  -0.414  0.00  0.00    +0.017 C 
ATOM      3  C   UNL     1      -3.635   7.972   0.030  0.00  0.00    +0.060 C 
ATOM      4  C   UNL     1      -4.586   7.092   0.796  0.00  0.00    +0.176 C 
ATOM      5  N   UNL     1      -4.144   5.699   0.707  0.00  0.00    -0.238 N 
ATOM      6  C   UNL     1      -2.921   5.341   0.243  0.00  0.00    +0.134 A 
ATOM      7  C   UNL     1      -2.841   3.964   0.302  0.00  0.00    +0.096 A 
ATOM      8  C   UNL     1      -4.073   3.504   0.831  0.00  0.00    +0.149 A 
ATOM      9  N   UNL     1      -4.832   4.542   1.063  0.00  0.00    -0.176 NA
ATOM     10  N   UNL     1      -1.999   6.268  -0.210  0.00  0.00    -0.302 N 
ATOM     11  H   UNL     1      -0.948   6.011  -0.406  0.00  0.00    +0.153 HD
ENDROOT
BRANCH   4  12
ATOM     12  C   UNL     1      -4.612   7.519   2.241  0.00  0.00    -0.018 A 
ATOM     13  C   UNL     1      -3.454   7.483   2.993  0.00  0.00    +0.008 A 
ATOM     14  C   UNL     1      -3.477   7.879   4.318  0.00  0.00    +0.033 A 
ATOM     15  C   UNL     1      -4.661   8.302   4.892  0.00  0.00    +0.126 A 
ATOM     16  C   UNL     1      -5.821   8.333   4.141  0.00  0.00    +0.033 A 
ATOM     17  C   UNL     1      -5.797   7.942   2.815  0.00  0.00    +0.008 A 
BRANCH  15  18
ATOM     18  N   UNL     1      -4.687   8.720   6.312  0.00  0.00    +0.056 N 
ATOM     19  O   UNL     1      -5.730   9.092   6.818  0.00  0.00    -0.126 OA
ATOM     20  O   UNL     1      -3.665   8.693   6.973  0.00  0.00    -0.126 OA
ENDBRANCH  15  18
ENDBRANCH   4  12
BRANCH   7  21
ATOM     21  C   UNL     1      -1.696   3.136  -0.099  0.00  0.00    +0.253 C 
ATOM     22  O   UNL     1      -0.690   3.660  -0.540  0.00  0.00    -0.270 OA
ATOM     23  N   UNL     1      -1.759   1.795   0.022  0.00  0.00    -0.281 N 
ATOM     24  H   UNL     1      -2.699   1.314   0.331  0.00  0.00    +0.155 HD
BRANCH  23  25
ATOM     25  C   UNL     1      -0.628   1.014  -0.245  0.00  0.00    +0.034 A 
ATOM     26  C   UNL     1       0.242   1.377  -1.264  0.00  0.00    +0.026 A 
ATOM     27  C   UNL     1       1.354   0.602  -1.530  0.00  0.00    +0.040 A 
ATOM     28  C   UNL     1       1.601  -0.536  -0.781  0.00  0.00    +0.124 A 
ATOM     29  C   UNL     1       0.734  -0.900   0.236  0.00  0.00    +0.040 A 
ATOM     30  C   UNL     1      -0.379  -0.127   0.505  0.00  0.00    +0.026 A 
ATOM     31  F   UNL     1       2.689  -1.293  -1.043  0.00  0.00    -0.205 F 
ENDBRANCH  23  25
ENDBRANCH   7  21
BRANCH   3  32
ATOM     32  C   UNL     1      -4.020   9.308  -0.234  0.00  0.00    +0.248 C 
ATOM     33  O   UNL     1      -3.234  10.075  -0.761  0.00  0.00    -0.270 OA
ATOM     34  N   UNL     1      -5.255   9.732   0.098  0.00  0.00    -0.282 N 
ATOM     35  H   UNL     1      -5.939   9.063   0.642  0.00  0.00    +0.155 HD
BRANCH  34  36
ATOM     36  C   UNL     1      -5.669  11.022  -0.249  0.00  0.00    +0.034 A 
ATOM     37  C   UNL     1      -4.774  12.081  -0.180  0.00  0.00    +0.023 A 
ATOM     38  C   UNL     1      -5.184  13.354  -0.527  0.00  0.00    +0.002 A 
ATOM     39  C   UNL     1      -6.487  13.575  -0.934  0.00  0.00    +0.000 A 
ATOM     40  C   UNL     1      -7.382  12.523  -0.999  0.00  0.00    +0.002 A 
ATOM     41  C   UNL     1      -6.977  11.247  -0.658  0.00  0.00    +0.023 A 
ENDBRANCH  34  36
ENDBRANCH   3  32
TORSDOF 6
