REMARK  Name = ZINC63980142
REMARK  5 active torsions:
REMARK  status: ('A' for Active; 'I' for Inactive)
REMARK    1  A    between atoms: C_1  and  C_2
REMARK    2  A    between atoms: C_7  and  C_27
REMARK    3  A    between atoms: N_15  and  C_16
REMARK    4  A    between atoms: C_16  and  C_17
REMARK    5  A    between atoms: C_17  and  C_18
REMARK                            x       y       z     vdW  Elec       q    Type
REMARK                         _______ _______ _______ _____ _____    ______ ____
ROOT
ATOM      1  C   UNL     1      -0.018   1.503   0.010  0.00  0.00    +0.060 C 
ATOM      2  C   UNL     1       0.002  -0.004   0.002  0.00  0.00    +0.008 C 
ATOM      3  C   UNL     1       0.005  -0.653  -1.174  0.00  0.00    +0.085 C 
ATOM      4  C   UNL     1      -0.011  -2.063  -1.259  0.00  0.00    +0.245 C 
ATOM      5  O   UNL     1       0.010  -2.607  -2.349  0.00  0.00    -0.270 OA
ATOM      6  N   UNL     1      -0.051  -2.805  -0.141  0.00  0.00    -0.238 N 
ATOM      7  C   UNL     1      -0.258  -4.257  -0.176  0.00  0.00    +0.198 C 
ATOM      8  N   UNL     1      -1.423  -4.530   0.687  0.00  0.00    -0.295 N 
ATOM      9  C   UNL     1      -1.600  -3.768   1.817  0.00  0.00    +0.180 C 
ATOM     10  N   UNL     1      -0.949  -2.676   2.046  0.00  0.00    -0.215 NA
ATOM     11  C   UNL     1       0.080  -2.145   1.164  0.00  0.00    +0.290 C 
ATOM     12  N   UNL     1       0.022  -0.678   1.193  0.00  0.00    -0.311 N 
ATOM     13  N   UNL     1      -2.518  -4.189   2.750  0.00  0.00    -0.317 N 
ATOM     14  H   UNL     1      -0.003  -0.198   2.036  0.00  0.00    +0.149 HD
ATOM     15  H   UNL     1      -3.021  -5.006   2.602  0.00  0.00    +0.149 HD
ATOM     16  H   UNL     1      -2.052  -5.233   0.460  0.00  0.00    +0.151 HD
ENDROOT
BRANCH   7  17
ATOM     17  C   UNL     1       0.960  -4.966   0.357  0.00  0.00    -0.009 A 
ATOM     18  C   UNL     1       2.211  -4.394   0.215  0.00  0.00    +0.008 A 
ATOM     19  C   UNL     1       3.328  -5.044   0.703  0.00  0.00    +0.020 A 
ATOM     20  C   UNL     1       3.195  -6.268   1.336  0.00  0.00    +0.041 A 
ATOM     21  C   UNL     1       1.944  -6.840   1.478  0.00  0.00    +0.020 A 
ATOM     22  C   UNL     1       0.826  -6.186   0.994  0.00  0.00    +0.008 A 
ATOM     23 CL   UNL     1       4.599  -7.085   1.949  0.00  0.00    -0.084 Cl
ENDBRANCH   7  17
BRANCH  13  24
ATOM     24  C   UNL     1      -2.736  -3.405   3.968  0.00  0.00    +0.108 C 
BRANCH  24  25
ATOM     25  C   UNL     1      -3.799  -4.088   4.831  0.00  0.00    +0.052 C 
BRANCH  25  26
ATOM     26  C   UNL     1      -4.024  -3.282   6.084  0.00  0.00    -0.040 C 
ATOM     27  C   UNL     1      -4.981  -2.349   6.290  0.00  0.00    -0.001 A 
ATOM     28  C   UNL     1      -6.058  -1.825   5.441  0.00  0.00    +0.010 A 
ATOM     29  C   UNL     1      -6.878  -0.870   5.936  0.00  0.00    +0.001 A 
ATOM     30  C   UNL     1      -6.724  -0.369   7.236  0.00  0.00    +0.002 A 
ATOM     31  C   UNL     1      -5.759  -0.800   8.075  0.00  0.00    +0.026 A 
ATOM     32  C   UNL     1      -4.841  -1.804   7.659  0.00  0.00    +0.043 A 
ATOM     33  N   UNL     1      -3.836  -2.377   8.275  0.00  0.00    -0.380 N 
ATOM     34  C   UNL     1      -3.228  -3.357   7.368  0.00  0.00    +0.144 C 
ATOM     35  H   UNL     1      -3.545  -2.188   9.181  0.00  0.00    +0.160 HD
ENDBRANCH  25  26
ENDBRANCH  24  25
ENDBRANCH  13  24
TORSDOF 4
