REMARK  Name = ZINC23327708
REMARK  12 active torsions:
REMARK  status: ('A' for Active; 'I' for Inactive)
REMARK    1  A    between atoms: C_1  and  C_2
REMARK    2  A    between atoms: C_2  and  C_3
REMARK    3  A    between atoms: C_2  and  C_4
REMARK    4  A    between atoms: C_7  and  C_10
REMARK    5  A    between atoms: C_10  and  S_11
REMARK    6  A    between atoms: S_11  and  C_12
REMARK    7  A    between atoms: C_15  and  S_17
REMARK    8  A    between atoms: S_17  and  C_18
REMARK    9  A    between atoms: C_18  and  C_19
REMARK   10  A    between atoms: N_24  and  C_25
REMARK   11  A    between atoms: C_25  and  C_26
REMARK   12  A    between atoms: C_26  and  C_27
REMARK                            x       y       z     vdW  Elec       q    Type
REMARK                         _______ _______ _______ _____ _____    ______ ____
ROOT
ATOM      1  S   UNL     1       1.298  -8.928  -2.198  0.00  0.00    -0.088 S 
ENDROOT
BRANCH   1   5
ATOM      2  C   UNL     1       1.246  -4.536  -1.575  0.00  0.00    +0.160 A 
ATOM      3  N   UNL     1       1.266  -5.277  -0.484  0.00  0.00    -0.134 NA
ATOM      4  N   UNL     1       1.283  -6.648  -0.587  0.00  0.00    -0.134 NA
ATOM      5  C   UNL     1       1.280  -7.217  -1.777  0.00  0.00    +0.160 A 
ATOM      6  S   UNL     1       1.243  -5.788  -2.849  0.00  0.00    -0.033 S 
BRANCH   2   7
ATOM      7  S   UNL     1       1.220  -2.782  -1.734  0.00  0.00    -0.092 S 
BRANCH   7   8
ATOM      8  C   UNL     1       1.229  -2.186  -0.021  0.00  0.00    +0.111 C 
BRANCH   8  12
ATOM      9  C   UNL     1       1.171   2.086   0.002  0.00  0.00    -0.045 A 
ATOM     10  C   UNL     1      -0.017   1.378   0.010  0.00  0.00    +0.004 A 
ATOM     11  C   UNL     1       0.002  -0.004   0.002  0.00  0.00    +0.005 A 
ATOM     12  C   UNL     1       1.208  -0.679  -0.013  0.00  0.00    -0.037 A 
ATOM     13  C   UNL     1       2.396   0.029  -0.022  0.00  0.00    +0.005 A 
ATOM     14  C   UNL     1       2.377   1.411  -0.015  0.00  0.00    +0.004 A 
BRANCH   9  16
ATOM     15  C   UNL     1       1.876   4.106   1.255  0.00  0.00    +0.012 C 
ATOM     16  C   UNL     1       1.151   3.592   0.010  0.00  0.00    +0.013 C 
ATOM     17  C   UNL     1       1.853   4.119  -1.243  0.00  0.00    +0.012 C 
ENDBRANCH   9  16
ENDBRANCH   8  12
ENDBRANCH   7   8
ENDBRANCH   2   7
ENDBRANCH   1   5
BRANCH   1  18
ATOM     18  C   UNL     1       1.325  -9.774  -0.593  0.00  0.00    +0.172 C 
BRANCH  18  19
ATOM     19  C   UNL     1       1.342 -11.265  -0.811  0.00  0.00    +0.231 C 
ATOM     20  O   UNL     1       1.337 -11.713  -1.938  0.00  0.00    -0.274 OA
ATOM     21  N   UNL     1       1.363 -12.100   0.246  0.00  0.00    -0.240 N 
ATOM     22  C   UNL     1       1.379 -13.434   0.051  0.00  0.00    +0.306 C 
ATOM     23  O   UNL     1       1.374 -13.883  -1.079  0.00  0.00    -0.252 OA
ATOM     24  N   UNL     1       1.400 -14.269   1.108  0.00  0.00    -0.299 N 
ATOM     25  H   UNL     1       1.368 -11.694   1.268  0.00  0.00    +0.159 HD
ATOM     26  H   UNL     1       1.405 -13.863   2.130  0.00  0.00    +0.150 HD
BRANCH  24  27
ATOM     27  C   UNL     1       1.417 -15.719   0.896  0.00  0.00    +0.111 C 
BRANCH  27  28
ATOM     28  C   UNL     1       1.440 -16.432   2.249  0.00  0.00    +0.061 C 
BRANCH  28  29
ATOM     29  C   UNL     1       1.457 -17.923   2.031  0.00  0.00    -0.009 A 
ATOM     30  C   UNL     1       2.520 -18.753   1.892  0.00  0.00    +0.011 A 
ATOM     31  C   UNL     1       2.295 -20.104   1.702  0.00  0.00    +0.008 A 
ATOM     32  C   UNL     1       1.019 -20.557   1.650  0.00  0.00    +0.045 A 
ATOM     33  S   UNL     1       0.084 -19.053   1.881  0.00  0.00    -0.102 S 
ENDBRANCH  28  29
ENDBRANCH  27  28
ENDBRANCH  24  27
ENDBRANCH  18  19
ENDBRANCH   1  18
TORSDOF 10
