REMARK  Name = ZINC28807295
REMARK  7 active torsions:
REMARK  status: ('A' for Active; 'I' for Inactive)
REMARK    1  A    between atoms: C_1  and  C_2
REMARK    2  A    between atoms: C_2  and  C_4
REMARK    3  A    between atoms: C_2  and  S_21
REMARK    4  A    between atoms: C_9  and  C_12
REMARK    5  A    between atoms: C_16  and  N_18
REMARK    6  A    between atoms: S_21  and  C_22
REMARK    7  A    between atoms: C_25  and  C_28
REMARK                            x       y       z     vdW  Elec       q    Type
REMARK                         _______ _______ _______ _____ _____    ______ ____
ROOT
ATOM      1  C   UNL     1       1.935   9.537   0.034  0.00  0.00    +0.232 C 
ATOM      2  O   UNL     1       0.803   9.971   0.047  0.00  0.00    -0.274 OA
ATOM      3  N   UNL     1       2.147   8.207   0.025  0.00  0.00    -0.264 N 
ATOM      4  C   UNL     1       1.069   7.331   0.030  0.00  0.00    +0.165 A 
ATOM      5  N   UNL     1       1.064   6.011   0.028  0.00  0.00    -0.225 NA
ATOM      6  C   UNL     1      -0.070   5.327   0.029  0.00  0.00    +0.080 A 
ATOM      7  C   UNL     1      -1.260   6.001   0.044  0.00  0.00    +0.076 A 
ATOM      8  S   UNL     1      -0.682   7.693   0.048  0.00  0.00    -0.060 S 
ATOM      9  H   UNL     1       3.175   7.814   0.013  0.00  0.00    +0.157 HD
ENDROOT
BRANCH   6  10
ATOM     10  C   UNL     1      -0.050   3.844   0.022  0.00  0.00    +0.003 A 
ATOM     11  C   UNL     1      -1.246   3.128   0.030  0.00  0.00    +0.010 A 
ATOM     12  C   UNL     1      -1.222   1.749   0.017  0.00  0.00    +0.003 A 
ATOM     13  C   UNL     1      -0.013   1.076   0.008  0.00  0.00    +0.033 A 
ATOM     14  C   UNL     1       1.177   1.781   0.000  0.00  0.00    +0.127 A 
ATOM     15  C   UNL     1       1.165   3.161   0.007  0.00  0.00    +0.042 A 
BRANCH  14  16
ATOM     16  N   UNL     1       2.467   1.054  -0.015  0.00  0.00    +0.056 N 
ATOM     17  O   UNL     1       2.479  -0.164  -0.022  0.00  0.00    -0.126 OA
ATOM     18  O   UNL     1       3.515   1.674  -0.022  0.00  0.00    -0.126 OA
ENDBRANCH  14  16
ENDBRANCH   6  10
BRANCH   1  20
ATOM     19  C   UNL     1       3.567  10.719  -1.412  0.00  0.00    +0.029 C 
ATOM     20  C   UNL     1       3.106  10.487   0.029  0.00  0.00    +0.137 C 
BRANCH  20  21
ATOM     21  S   UNL     1       2.606  12.064   0.763  0.00  0.00    -0.074 S 
BRANCH  21  22
ATOM     22  C   UNL     1       4.156  12.903   0.769  0.00  0.00    +0.185 A 
ATOM     23  N   UNL     1       4.390  14.169   1.224  0.00  0.00    -0.201 NA
ATOM     24  H   UNL     1       5.539  11.445  -0.100  0.00  0.00    +0.191 HD
ATOM     25  C   UNL     1       5.733  14.392   1.028  0.00  0.00    +0.182 A 
ATOM     26  N   UNL     1       6.228  13.306   0.481  0.00  0.00    -0.152 NA
ATOM     27  N   UNL     1       5.302  12.427   0.336  0.00  0.00    -0.253 N 
BRANCH  25  28
ATOM     28  C   UNL     1       6.479  15.622   1.371  0.00  0.00    +0.021 A 
ATOM     29  C   UNL     1       5.814  16.710   1.937  0.00  0.00    +0.013 A 
ATOM     30  C   UNL     1       6.516  17.853   2.258  0.00  0.00    +0.021 A 
ATOM     31  C   UNL     1       7.877  17.926   2.010  0.00  0.00    +0.041 A 
ATOM     32  C   UNL     1       8.541  16.851   1.443  0.00  0.00    +0.021 A 
ATOM     33  C   UNL     1       7.850  15.701   1.123  0.00  0.00    +0.013 A 
ATOM     34 CL   UNL     1       8.752  19.370   2.411  0.00  0.00    -0.084 Cl
ENDBRANCH  25  28
ENDBRANCH  21  22
ENDBRANCH  20  21
ENDBRANCH   1  20
TORSDOF 6
