REMARK  Name = ZINC00921932
REMARK  10 active torsions:
REMARK  status: ('A' for Active; 'I' for Inactive)
REMARK    1  A    between atoms: C_1  and  C_2
REMARK    2  A    between atoms: C_2  and  O_3
REMARK    3  A    between atoms: O_3  and  C_4
REMARK    4  A    between atoms: C_4  and  C_6
REMARK    5  A    between atoms: C_7  and  C_31
REMARK    6  A    between atoms: C_11  and  C_13
REMARK    7  A    between atoms: C_17  and  O_21
REMARK    8  A    between atoms: C_18  and  O_19
REMARK    9  A    between atoms: O_19  and  C_20
REMARK   10  A    between atoms: O_21  and  C_22
REMARK                            x       y       z     vdW  Elec       q    Type
REMARK                         _______ _______ _______ _____ _____    ______ ____
ROOT
ATOM      1  C   UNL     1       2.789   3.554   2.237  0.00  0.00    +0.065 C 
ATOM      2  C   UNL     1       3.546   4.385   2.966  0.00  0.00    +0.016 C 
ATOM      3  N   UNL     1       3.259   4.706   4.266  0.00  0.00    -0.317 N 
ATOM      4  C   UNL     1       2.319   3.948   4.931  0.00  0.00    +0.047 C 
ATOM      5  C   UNL     1       1.491   3.080   4.264  0.00  0.00    +0.034 C 
ATOM      6  C   UNL     1       1.542   2.898   2.768  0.00  0.00    +0.097 C 
ATOM      7  C   UNL     1       0.638   2.434   5.187  0.00  0.00    +0.193 C 
ATOM      8  O   UNL     1      -0.211   1.605   4.923  0.00  0.00    -0.287 OA
ATOM      9  C   UNL     1       0.968   2.950   6.534  0.00  0.00    +0.031 A 
ATOM     10  C   UNL     1       2.015   3.892   6.364  0.00  0.00    +0.007 A 
ATOM     11  C   UNL     1       2.554   4.562   7.451  0.00  0.00    +0.010 A 
ATOM     12  C   UNL     1       2.020   4.263   8.708  0.00  0.00    +0.001 A 
ATOM     13  C   UNL     1       1.006   3.349   8.869  0.00  0.00    +0.001 A 
ATOM     14  C   UNL     1       0.450   2.665   7.782  0.00  0.00    +0.012 A 
ATOM     15  C   UNL     1       4.768   4.993   2.327  0.00  0.00    +0.061 C 
ATOM     16  H   UNL     1       3.773   5.548   4.751  0.00  0.00    +0.152 HD
ENDROOT
BRANCH   6  17
ATOM     17  C   UNL     1       0.330   3.537   2.141  0.00  0.00    +0.010 A 
ATOM     18  C   UNL     1      -0.703   2.747   1.672  0.00  0.00    +0.008 A 
ATOM     19  C   UNL     1      -1.814   3.329   1.091  0.00  0.00    +0.004 A 
ATOM     20  C   UNL     1      -1.899   4.705   0.980  0.00  0.00    +0.049 A 
ATOM     21  C   UNL     1      -0.870   5.502   1.452  0.00  0.00    +0.162 A 
ATOM     22  C   UNL     1       0.249   4.916   2.038  0.00  0.00    +0.166 A 
BRANCH  22  23
ATOM     23  O   UNL     1       1.262   5.695   2.503  0.00  0.00    -0.491 OA
ATOM     24  C   UNL     1       1.072   6.313   3.777  0.00  0.00    +0.277 C 
ENDBRANCH  22  23
BRANCH  21  25
ATOM     25  O   UNL     1      -0.952   6.856   1.344  0.00  0.00    -0.491 OA
ATOM     26  C   UNL     1      -2.128   7.387   0.732  0.00  0.00    +0.277 C 
ENDBRANCH  21  25
ENDBRANCH   6  17
BRANCH   1  27
ATOM     27  C   UNL     1       3.179   3.279   0.905  0.00  0.00    +0.338 C 
ATOM     28  O   UNL     1       4.123   3.870   0.413  0.00  0.00    -0.245 OA
BRANCH  27  29
ATOM     29  O   UNL     1       2.506   2.361   0.180  0.00  0.00    -0.462 OA
BRANCH  29  31
ATOM     30  C   UNL     1       2.068   1.093  -1.830  0.00  0.00    +0.048 C 
ATOM     31  C   UNL     1       3.022   2.053  -1.116  0.00  0.00    +0.229 C 
ENDBRANCH  29  31
ENDBRANCH  27  29
ENDBRANCH   1  27
TORSDOF 6
