REMARK  Name = ZINC14878635
REMARK  7 active torsions:
REMARK  status: ('A' for Active; 'I' for Inactive)
REMARK    1  A    between atoms: C_1  and  C_2
REMARK    2  A    between atoms: C_2  and  C_3
REMARK    3  A    between atoms: C_3  and  C_20
REMARK    4  A    between atoms: N_6  and  C_10
REMARK    5  A    between atoms: C_10  and  C_11
REMARK    6  A    between atoms: C_25  and  C_26
REMARK    7  A    between atoms: C_25  and  N_61
REMARK                            x       y       z     vdW  Elec       q    Type
REMARK                         _______ _______ _______ _____ _____    ______ ____
ROOT
ATOM      1  C   UNL     1       1.161   5.722   5.315  0.00  0.00    +0.115 C 
ATOM      2  C   UNL     1       1.222   7.231   5.445  0.00  0.00    +0.247 C 
ATOM      3  O   UNL     1       2.201   7.936   5.335  0.00  0.00    -0.273 OA
ATOM      4  N   UNL     1      -0.040   7.625   5.710  0.00  0.00    -0.220 N 
ATOM      5  C   UNL     1      -0.880   6.586   5.765  0.00  0.00    +0.310 C 
ATOM      6  O   UNL     1      -2.070   6.690   5.990  0.00  0.00    -0.252 OA
ATOM      7  N   UNL     1      -0.261   5.412   5.543  0.00  0.00    -0.285 N 
ATOM      8  H   UNL     1      -0.672   4.533   5.535  0.00  0.00    +0.151 HD
ENDROOT
BRANCH   1   9
ATOM      9  C   UNL     1       1.589   5.285   3.913  0.00  0.00    +0.018 C 
ATOM     10  C   UNL     1       0.735   6.009   2.868  0.00  0.00    -0.013 C 
ATOM     11  C   UNL     1       1.127   5.524   1.471  0.00  0.00    -0.078 C 
ATOM     12  C   UNL     1       1.763   3.353   2.340  0.00  0.00    -0.078 C 
ATOM     13  C   UNL     1       1.390   3.774   3.764  0.00  0.00    -0.013 C 
ATOM     14  N   UNL     1       0.890   4.067   1.385  0.00  0.00    +0.382 N 
ATOM     15  H   UNL     1      -0.091   3.875   1.622  0.00  0.00    -0.081 HD
BRANCH  14  16
ATOM     16  C   UNL     1       1.153   3.594   0.010  0.00  0.00    -0.042 C 
BRANCH  16  17
ATOM     17  C   UNL     1       1.172   2.087   0.002  0.00  0.00    -0.046 A 
ATOM     18  C   UNL     1       2.378   1.411  -0.013  0.00  0.00    +0.003 A 
ATOM     19  C   UNL     1       2.396   0.029  -0.021  0.00  0.00    +0.000 A 
ATOM     20  C   UNL     1       1.208  -0.678  -0.013  0.00  0.00    +0.001 A 
ATOM     21  C   UNL     1       0.002  -0.004   0.002  0.00  0.00    +0.020 A 
ATOM     22  C   UNL     1      -0.017   1.379   0.010  0.00  0.00    +0.042 A 
ATOM     23 CL   UNL     1      -1.532   2.227   0.021  0.00  0.00    -0.083 Cl
ENDBRANCH  16  17
ENDBRANCH  14  16
ENDBRANCH   1   9
BRANCH   1  25
ATOM     24  C   UNL     1       1.509   5.406   7.769  0.00  0.00    +0.006 C 
ATOM     25  C   UNL     1       2.035   5.051   6.377  0.00  0.00    +0.032 C 
ENDBRANCH   1  25
BRANCH   4  26
ATOM     26  C   UNL     1      -0.441   9.020   5.914  0.00  0.00    +0.153 C 
BRANCH  26  27
ATOM     27  C   UNL     1      -0.326   9.367   7.376  0.00  0.00    -0.026 A 
ATOM     28  C   UNL     1       0.859   9.876   7.873  0.00  0.00    +0.009 A 
ATOM     29  C   UNL     1       0.969  10.197   9.213  0.00  0.00    +0.050 A 
ATOM     30  C   UNL     1      -0.110  10.008  10.062  0.00  0.00    +0.166 A 
ATOM     31  C   UNL     1      -1.304   9.495   9.561  0.00  0.00    +0.167 A 
ATOM     32  C   UNL     1      -1.408   9.180   8.216  0.00  0.00    +0.054 A 
ATOM     33  O   UNL     1      -2.203   9.404  10.584  0.00  0.00    -0.453 OA
ATOM     34  C   UNL     1      -1.421   9.482  11.790  0.00  0.00    +0.466 C 
ATOM     35  O   UNL     1      -0.261  10.239  11.398  0.00  0.00    -0.453 OA
ENDBRANCH  26  27
ENDBRANCH   4  26
TORSDOF 6
