REMARK  Name = ZINC35804857
REMARK  10 active torsions:
REMARK  status: ('A' for Active; 'I' for Inactive)
REMARK    1  A    between atoms: C_1  and  C_2
REMARK    2  A    between atoms: C_2  and  O_4
REMARK    3  A    between atoms: O_4  and  C_5
REMARK    4  A    between atoms: C_5  and  C_6
REMARK    5  A    between atoms: C_6  and  C_8
REMARK    6  A    between atoms: C_14  and  C_35
REMARK    7  A    between atoms: C_16  and  O_34
REMARK    8  A    between atoms: C_31  and  C_32
REMARK    9  A    between atoms: C_37  and  C_39
REMARK   10  A    between atoms: C_37  and  C_40
REMARK                            x       y       z     vdW  Elec       q    Type
REMARK                         _______ _______ _______ _____ _____    ______ ____
ROOT
ATOM      1  C   UNL     1      -2.434  -4.151   0.065  0.00  0.00    +0.165 C 
ATOM      2  C   UNL     1      -1.913  -4.708  -1.294  0.00  0.00    +0.162 C 
ATOM      3  C   UNL     1      -3.110  -5.437  -1.961  0.00  0.00    +0.039 C 
ATOM      4  C   UNL     1      -4.313  -4.824  -1.232  0.00  0.00    +0.004 C 
ATOM      5  C   UNL     1      -3.819  -4.807   0.228  0.00  0.00    +0.012 C 
ATOM      6  C   UNL     1      -4.820  -4.078   1.082  0.00  0.00    +0.042 C 
ATOM      7  C   UNL     1      -6.229  -4.676   0.944  0.00  0.00    +0.120 C 
ATOM      8  C   UNL     1      -6.341  -5.787  -0.076  0.00  0.00    +0.035 C 
ATOM      9  C   UNL     1      -5.642  -5.496  -1.398  0.00  0.00    +0.002 C 
ATOM     10  C   UNL     1      -5.539  -6.783  -2.222  0.00  0.00    +0.045 C 
ATOM     11  C   UNL     1      -6.951  -7.277  -2.561  0.00  0.00    +0.193 C 
ATOM     12  C   UNL     1      -7.752  -7.377  -1.278  0.00  0.00    -0.023 C 
ATOM     13  C   UNL     1      -8.367  -8.522  -1.010  0.00  0.00    +0.053 C 
ATOM     14  C   UNL     1      -9.132  -8.695   0.233  0.00  0.00    +0.179 C 
ATOM     15  O   UNL     1      -9.716  -9.736   0.466  0.00  0.00    -0.288 OA
ATOM     16  C   UNL     1      -9.166  -7.579   1.192  0.00  0.00    +0.047 C 
ATOM     17  C   UNL     1      -8.554  -6.442   0.901  0.00  0.00    -0.012 C 
ATOM     18  C   UNL     1      -7.798  -6.186  -0.358  0.00  0.00    +0.016 C 
ATOM     19  C   UNL     1      -8.520  -5.047  -1.073  0.00  0.00    +0.020 C 
ATOM     20  F   UNL     1      -7.563  -6.407  -3.463  0.00  0.00    -0.241 F 
ATOM     21  C   UNL     1      -3.566  -6.215   0.778  0.00  0.00    +0.015 C 
ATOM     22  O   UNL     1      -0.912  -5.674  -0.935  0.00  0.00    -0.343 OA
ATOM     23  C   UNL     1      -0.408  -5.239   0.344  0.00  0.00    +0.166 C 
ATOM     24  O   UNL     1      -1.540  -4.699   1.050  0.00  0.00    -0.332 OA
ATOM     25  C   UNL     1       0.169  -6.436   1.112  0.00  0.00    +0.074 C 
ATOM     26  C   UNL     1       0.679  -4.176   0.158  0.00  0.00    +0.074 C 
ENDROOT
BRANCH   1  27
ATOM     27  C   UNL     1      -2.481  -2.649   0.089  0.00  0.00    +0.205 C 
ATOM     28  O   UNL     1      -2.601  -2.032  -0.942  0.00  0.00    -0.291 OA
BRANCH  27  29
ATOM     29  C   UNL     1      -2.377  -1.913   1.400  0.00  0.00    +0.309 C 
BRANCH  29  30
ATOM     30  O   UNL     1      -2.347  -0.506   1.155  0.00  0.00    -0.457 OA
BRANCH  30  32
ATOM     31  C   UNL     1      -2.220   1.793   2.046  0.00  0.00    +0.136 C 
ATOM     32  C   UNL     1      -2.256   0.297   2.227  0.00  0.00    +0.304 C 
ATOM     33  O   UNL     1      -2.203  -0.179   3.336  0.00  0.00    -0.251 OA
ENDBRANCH  30  32
ENDBRANCH  29  30
ENDBRANCH  27  29
ENDBRANCH   1  27
BRANCH   7  34
ATOM     34  O   UNL     1      -6.608  -5.174   2.241  0.00  0.00    -0.391 OA
ATOM     35  H   UNL     1      -6.630  -4.497   2.931  0.00  0.00    +0.210 HD
ENDBRANCH   7  34
TORSDOF 5
