REMARK  Name = ZINC14118546
REMARK  6 active torsions:
REMARK  status: ('A' for Active; 'I' for Inactive)
REMARK    1  A    between atoms: C_1  and  C_2
REMARK    2  A    between atoms: C_5  and  N_9
REMARK    3  A    between atoms: C_6  and  C_8
REMARK    4  A    between atoms: C_10  and  C_12
REMARK    5  A    between atoms: C_12  and  C_13
REMARK    6  A    between atoms: C_13  and  N_14
REMARK                            x       y       z     vdW  Elec       q    Type
REMARK                         _______ _______ _______ _____ _____    ______ ____
ROOT
ATOM      1  C   UNL     1      -0.023   1.073   0.008  0.00  0.00    +0.127 C 
ENDROOT
BRANCH   1   2
ATOM      2  N   UNL     1      -0.738   1.548  -1.179  0.00  0.00    -0.224 N 
ATOM      3  C   UNL     1      -0.482   2.718  -1.800  0.00  0.00    +0.247 C 
ATOM      4  O   UNL     1       0.351   3.544  -1.495  0.00  0.00    -0.273 OA
ATOM      5  C   UNL     1      -1.453   2.782  -2.957  0.00  0.00    +0.113 C 
ATOM      6  C   UNL     1      -0.699   2.838  -4.281  0.00  0.00    +0.035 C 
ATOM      7  C   UNL     1      -1.699   2.874  -5.439  0.00  0.00    +0.003 C 
ATOM      8  C   UNL     1      -2.602   4.101  -5.295  0.00  0.00    +0.000 C 
ATOM      9  C   UNL     1      -3.369   4.018  -3.974  0.00  0.00    +0.003 C 
ATOM     10  C   UNL     1      -2.376   3.987  -2.809  0.00  0.00    +0.035 C 
ATOM     11  N   UNL     1      -2.216   1.532  -2.851  0.00  0.00    -0.285 N 
ATOM     12  C   UNL     1      -1.723   0.874  -1.784  0.00  0.00    +0.309 C 
ATOM     13  O   UNL     1      -2.128  -0.210  -1.412  0.00  0.00    -0.252 OA
ATOM     14  H   UNL     1      -2.932   1.237  -3.436  0.00  0.00    +0.151 HD
ENDBRANCH   1   2
BRANCH   1  15
ATOM     15  C   UNL     1      -0.738   1.567   1.267  0.00  0.00    +0.115 C 
BRANCH  15  17
ATOM     16  N   UNL     1      -0.453   1.393   3.718  0.00  0.00    -0.285 N 
ATOM     17  C   UNL     1      -0.002   1.077   2.488  0.00  0.00    +0.219 C 
ATOM     18  O   UNL     1       0.996   0.400   2.363  0.00  0.00    -0.275 OA
ATOM     19  H   UNL     1      -1.203   2.000   3.819  0.00  0.00    +0.155 HD
BRANCH  16  24
ATOM     20  C   UNL     1       2.034  -0.830   8.307  0.00  0.00    +0.044 C 
ATOM     21  C   UNL     1       1.373  -0.239   7.088  0.00  0.00    -0.050 A 
ATOM     22  C   UNL     1       1.449  -0.899   5.875  0.00  0.00    +0.005 A 
ATOM     23  C   UNL     1       0.844  -0.361   4.756  0.00  0.00    +0.024 A 
ATOM     24  C   UNL     1       0.160   0.845   4.850  0.00  0.00    +0.036 A 
ATOM     25  C   UNL     1       0.091   1.507   6.068  0.00  0.00    -0.029 A 
ATOM     26  C   UNL     1       0.694   0.961   7.185  0.00  0.00    +0.008 A 
ATOM     27  C   UNL     1      -0.644   2.818   6.173  0.00  0.00    +0.045 C 
ENDBRANCH  16  24
ENDBRANCH  15  17
ENDBRANCH   1  15
TORSDOF 4
