REMARK  Name = ZINC43430660
REMARK  10 active torsions:
REMARK  status: ('A' for Active; 'I' for Inactive)
REMARK    1  A    between atoms: C_1  and  C_2
REMARK    2  A    between atoms: C_2  and  C_3
REMARK    3  A    between atoms: C_2  and  C_4
REMARK    4  A    between atoms: C_4  and  C_5
REMARK    5  A    between atoms: C_5  and  C_7
REMARK    6  A    between atoms: C_5  and  N_11
REMARK    7  A    between atoms: C_7  and  O_9
REMARK    8  A    between atoms: O_9  and  C_10
REMARK    9  A    between atoms: N_11  and  C_12
REMARK   10  A    between atoms: C_15  and  N_22
REMARK                            x       y       z     vdW  Elec       q    Type
REMARK                         _______ _______ _______ _____ _____    ______ ____
ROOT
ATOM      1  C   UNL     1       4.064  -0.672   0.100  0.00  0.00    +0.054 A 
ATOM      2  C   UNL     1       4.613   0.539  -0.261  0.00  0.00    +0.027 A 
ATOM      3  C   UNL     1       5.872   0.918   0.196  0.00  0.00    +0.025 A 
ATOM      4  C   UNL     1       6.599   0.089   1.023  0.00  0.00    +0.034 A 
ATOM      5  C   UNL     1       6.063  -1.156   1.410  0.00  0.00    +0.023 A 
ATOM      6  C   UNL     1       4.780  -1.541   0.949  0.00  0.00    +0.093 A 
ATOM      7  N   UNL     1       4.267  -2.719   1.318  0.00  0.00    -0.253 NA
ATOM      8  C   UNL     1       4.926  -3.532   2.107  0.00  0.00    +0.111 A 
ATOM      9  C   UNL     1       6.189  -3.212   2.600  0.00  0.00    +0.020 A 
ATOM     10  C   UNL     1       6.776  -2.028   2.252  0.00  0.00    +0.013 A 
ENDROOT
BRANCH   4  11
ATOM     11  N   UNL     1       7.862   0.481   1.475  0.00  0.00    -0.357 N 
ATOM     12  H   UNL     1       8.228   1.338   1.207  0.00  0.00    +0.142 HD
ATOM     13  H   UNL     1       8.372  -0.104   2.056  0.00  0.00    +0.142 HD
ENDBRANCH   4  11
BRANCH   1  14
ATOM     14  N   UNL     1       2.798  -1.036  -0.370  0.00  0.00    -0.330 N 
ATOM     15  H   UNL     1       2.381  -1.853  -0.058  0.00  0.00    +0.147 HD
BRANCH  14  16
ATOM     16  C   UNL     1       2.101  -0.181  -1.335  0.00  0.00    +0.180 C 
BRANCH  16  17
ATOM     17  C   UNL     1       2.608  -0.475  -2.724  0.00  0.00    +0.327 C 
ATOM     18  O   UNL     1       3.463  -1.312  -2.890  0.00  0.00    -0.249 OA
BRANCH  17  19
ATOM     19  O   UNL     1       2.109   0.193  -3.776  0.00  0.00    -0.467 OA
ATOM     20  C   UNL     1       2.635  -0.136  -5.063  0.00  0.00    +0.280 C 
ENDBRANCH  17  19
ENDBRANCH  16  17
BRANCH  16  21
ATOM     21  C   UNL     1       0.598  -0.460  -1.271  0.00  0.00    +0.036 C 
BRANCH  21  23
ATOM     22  C   UNL     1       0.196   1.462   0.274  0.00  0.00    +0.007 C 
ATOM     23  C   UNL     1       0.062  -0.052   0.103  0.00  0.00    -0.015 C 
ATOM     24  C   UNL     1      -1.411  -0.450   0.214  0.00  0.00    +0.007 C 
ENDBRANCH  21  23
ENDBRANCH  16  21
ENDBRANCH  14  16
ENDBRANCH   1  14
TORSDOF 7
