REMARK  Name = ZINC34749366
REMARK  7 active torsions:
REMARK  status: ('A' for Active; 'I' for Inactive)
REMARK    1  A    between atoms: C_1  and  C_2
REMARK    2  A    between atoms: C_2  and  C_3
REMARK    3  A    between atoms: C_4  and  C_32
REMARK    4  A    between atoms: N_10  and  C_28
REMARK    5  A    between atoms: N_16  and  C_19
REMARK    6  A    between atoms: C_19  and  C_20
REMARK    7  A    between atoms: C_28  and  C_29
REMARK                            x       y       z     vdW  Elec       q    Type
REMARK                         _______ _______ _______ _____ _____    ______ ____
ROOT
ATOM      1  C   UNL     1       0.565  -0.716   1.109  0.00  0.00    -0.023 A 
ATOM      2  C   UNL     1       0.629  -1.829   0.364  0.00  0.00    -0.007 A 
ATOM      3  S   UNL     1      -0.043  -3.084   1.436  0.00  0.00    -0.073 S 
ATOM      4  C   UNL     1      -0.391  -2.078   2.855  0.00  0.00    +0.117 A 
ATOM      5  C   UNL     1       0.031  -0.795   2.458  0.00  0.00    +0.076 A 
ATOM      6  C   UNL     1      -0.130   0.241   3.431  0.00  0.00    +0.264 A 
ATOM      7  O   UNL     1       0.203   1.386   3.175  0.00  0.00    -0.267 OA
ATOM      8  N   UNL     1      -0.654  -0.063   4.632  0.00  0.00    -0.271 N 
ATOM      9  C   UNL     1      -1.032  -1.338   4.937  0.00  0.00    +0.202 A 
ATOM     10  N   UNL     1      -0.905  -2.309   4.057  0.00  0.00    -0.208 NA
ATOM     11  N   UNL     1      -1.562  -1.609   6.174  0.00  0.00    -0.304 N 
ATOM     12  C   UNL     1      -3.012  -1.535   6.408  0.00  0.00    +0.089 C 
ATOM     13  C   UNL     1      -3.462  -2.832   7.089  0.00  0.00    -0.059 C 
ATOM     14  N   UNL     1      -2.663  -3.049   8.301  0.00  0.00    +0.387 N 
ATOM     15  C   UNL     1      -1.255  -3.260   7.941  0.00  0.00    -0.059 C 
ATOM     16  C   UNL     1      -0.696  -1.989   7.301  0.00  0.00    +0.089 C 
ATOM     17  C   UNL     1       1.144  -1.981  -1.044  0.00  0.00    +0.052 C 
ATOM     18  H   UNL     1      -2.738  -2.242   8.902  0.00  0.00    -0.081 HD
ENDROOT
BRANCH   1  20
ATOM     19  C   UNL     1       2.533   0.775   0.877  0.00  0.00    +0.009 C 
ATOM     20  C   UNL     1       1.047   0.601   0.557  0.00  0.00    +0.033 C 
ENDBRANCH   1  20
BRANCH  14  21
ATOM     21  C   UNL     1      -3.166  -4.232   9.012  0.00  0.00    +0.019 C 
BRANCH  21  22
ATOM     22  C   UNL     1      -2.429  -4.386  10.317  0.00  0.00    +0.199 C 
ATOM     23  O   UNL     1      -1.568  -3.589  10.625  0.00  0.00    -0.278 OA
ATOM     24  N   UNL     1      -2.725  -5.410  11.142  0.00  0.00    -0.303 N 
ATOM     25  C   UNL     1      -3.761  -6.387  10.780  0.00  0.00    +0.107 C 
ATOM     26  C   UNL     1      -3.163  -7.795  10.869  0.00  0.00    +0.019 C 
ATOM     27  C   UNL     1      -2.562  -8.002  12.261  0.00  0.00    +0.003 C 
ATOM     28  C   UNL     1      -1.441  -6.986  12.491  0.00  0.00    +0.019 C 
ATOM     29  C   UNL     1      -2.015  -5.573  12.418  0.00  0.00    +0.107 C 
ENDBRANCH  21  22
ENDBRANCH  14  21
BRANCH   8  30
ATOM     30  C   UNL     1      -0.821   0.994   5.633  0.00  0.00    +0.223 C 
BRANCH  30  31
ATOM     31  C   UNL     1      -2.144   1.683   5.418  0.00  0.00    +0.230 C 
ATOM     32  O   UNL     1      -2.875   1.327   4.519  0.00  0.00    -0.274 OA
ATOM     33  N   UNL     1      -2.514   2.697   6.226  0.00  0.00    -0.328 N 
ATOM     34  H   UNL     1      -1.930   2.982   6.946  0.00  0.00    +0.145 HD
ATOM     35  H   UNL     1      -3.366   3.140   6.088  0.00  0.00    +0.145 HD
ENDBRANCH  30  31
ENDBRANCH   8  30
TORSDOF 5
