REMARK  Name = ZINC63890374
REMARK  5 active torsions:
REMARK  status: ('A' for Active; 'I' for Inactive)
REMARK    1  A    between atoms: C_1  and  C_2
REMARK    2  A    between atoms: C_10  and  C_12
REMARK    3  A    between atoms: C_12  and  N_13
REMARK    4  A    between atoms: N_13  and  C_14
REMARK    5  A    between atoms: C_21  and  C_23
REMARK                            x       y       z     vdW  Elec       q    Type
REMARK                         _______ _______ _______ _____ _____    ______ ____
ROOT
ATOM      1  N   UNL     1      -1.150  -4.035   4.646  0.00  0.00    -0.338 N 
ATOM      2  H   UNL     1      -1.827  -3.909   3.963  0.00  0.00    +0.146 HD
ENDROOT
BRANCH   1   3
ATOM      3  C   UNL     1      -1.359  -4.959   5.675  0.00  0.00    +0.029 A 
ATOM      4  C   UNL     1      -0.394  -5.143   6.665  0.00  0.00    +0.025 A 
ATOM      5  C   UNL     1      -0.572  -6.035   7.675  0.00  0.00    +0.031 A 
ATOM      6  C   UNL     1      -1.750  -6.814   7.759  0.00  0.00    +0.079 A 
ATOM      7  C   UNL     1      -2.711  -6.607   6.742  0.00  0.00    +0.041 A 
ATOM      8  C   UNL     1      -2.531  -5.701   5.726  0.00  0.00    +0.040 A 
ATOM      9  S   UNL     1      -3.996  -7.743   7.204  0.00  0.00    -0.072 S 
ATOM     10  C   UNL     1      -3.201  -8.397   8.666  0.00  0.00    +0.083 A 
ATOM     11  N   UNL     1      -2.077  -7.735   8.691  0.00  0.00    -0.244 NA
BRANCH  10  12
ATOM     12  C   UNL     1      -3.703  -9.445   9.625  0.00  0.00    +0.045 C 
ATOM     13  C   UNL     1      -2.900  -9.670  10.909  0.00  0.00    +0.011 C 
ATOM     14  C   UNL     1      -2.862 -10.712   9.790  0.00  0.00    +0.011 C 
ENDBRANCH  10  12
ENDBRANCH   1   3
BRANCH   1  15
ATOM     15  C   UNL     1       0.091  -3.257   4.601  0.00  0.00    +0.155 C 
BRANCH  15  25
ATOM     16  C   UNL     1      -0.018   1.503   0.010  0.00  0.00    +0.064 C 
ATOM     17  C   UNL     1       0.002  -0.004   0.002  0.00  0.00    +0.033 A 
ATOM     18  C   UNL     1       0.005  -0.653  -1.162  0.00  0.00    +0.070 A 
ATOM     19  S   UNL     1       0.032  -2.358  -0.630  0.00  0.00    -0.059 S 
ATOM     20  C   UNL     1       0.036  -2.054   1.123  0.00  0.00    +0.158 A 
ATOM     21  N   UNL     1       0.023  -0.686   1.195  0.00  0.00    -0.261 N 
ATOM     22  C   UNL     1       0.027  -0.142   2.448  0.00  0.00    +0.259 A 
ATOM     23  O   UNL     1       0.011   1.071   2.587  0.00  0.00    -0.267 OA
ATOM     24  C   UNL     1       0.049  -0.973   3.568  0.00  0.00    +0.093 A 
ATOM     25  C   UNL     1       0.066  -2.342   3.404  0.00  0.00    +0.040 A 
ATOM     26  N   UNL     1       0.052  -2.840   2.171  0.00  0.00    -0.337 N 
ATOM     27  H   UNL     1       0.065  -3.802   2.045  0.00  0.00    +0.168 HD
ENDBRANCH  15  25
ENDBRANCH   1  15
TORSDOF 4
