REMARK  Name = ZINC09911298
REMARK  11 active torsions:
REMARK  status: ('A' for Active; 'I' for Inactive)
REMARK    1  A    between atoms: C_1  and  O_2
REMARK    2  A    between atoms: O_2  and  C_3
REMARK    3  A    between atoms: C_3  and  C_5
REMARK    4  A    between atoms: C_9  and  N_10
REMARK    5  A    between atoms: C_11  and  C_13
REMARK    6  A    between atoms: C_13  and  C_14
REMARK    7  A    between atoms: C_14  and  C_15
REMARK    8  A    between atoms: C_15  and  S_16
REMARK    9  A    between atoms: S_16  and  C_19
REMARK   10  A    between atoms: C_28  and  C_29
REMARK   11  A    between atoms: C_28  and  N_63
REMARK                            x       y       z     vdW  Elec       q    Type
REMARK                         _______ _______ _______ _____ _____    ______ ____
ROOT
ATOM      1  C   UNL     1       0.154  -6.656   5.922  0.00  0.00    +0.091 A 
ATOM      2  C   UNL     1       0.167  -8.097   5.752  0.00  0.00    -0.025 A 
ATOM      3  C   UNL     1       0.162  -8.528   4.470  0.00  0.00    -0.021 A 
ATOM      4  S   UNL     1       0.132  -7.051   3.497  0.00  0.00    -0.079 S 
ATOM      5  C   UNL     1       0.127  -5.876   4.772  0.00  0.00    +0.086 A 
ATOM      6  C   UNL     1       0.181  -9.952   4.012  0.00  0.00    -0.035 C 
ATOM      7  C   UNL     1      -0.234 -10.466   6.343  0.00  0.00    -0.073 C 
ATOM      8  C   UNL     1       0.190  -9.103   6.897  0.00  0.00    +0.018 C 
ATOM      9  N   UNL     1       0.591 -10.794   5.162  0.00  0.00    +0.386 N 
ATOM     10  H   UNL     1       1.576 -10.604   5.380  0.00  0.00    -0.081 HD
ENDROOT
BRANCH   5  11
ATOM     11  N   UNL     1       0.107  -4.494   4.669  0.00  0.00    -0.279 N 
ATOM     12  C   UNL     1       0.088  -3.909   3.455  0.00  0.00    +0.218 C 
ATOM     13  O   UNL     1       0.088  -4.592   2.452  0.00  0.00    -0.275 OA
ATOM     14  H   UNL     1       0.108  -3.948   5.470  0.00  0.00    +0.155 HD
BRANCH  12  15
ATOM     15  C   UNL     1       0.066  -2.406   3.343  0.00  0.00    +0.098 C 
BRANCH  15  16
ATOM     16  C   UNL     1       0.047  -2.005   1.866  0.00  0.00    +0.032 C 
BRANCH  16  17
ATOM     17  C   UNL     1       0.025  -0.480   1.752  0.00  0.00    +0.172 C 
BRANCH  17  18
ATOM     18  S   UNL     1       0.002  -0.004   0.002  0.00  0.00    -0.003 S 
ATOM     19  O   UNL     1      -1.233  -0.380  -0.591  0.00  0.00    -0.169 OA
ATOM     20  O   UNL     1       1.236  -0.347  -0.615  0.00  0.00    -0.169 OA
BRANCH  18  21
ATOM     21  C   UNL     1      -0.022   1.758   0.012  0.00  0.00    +0.088 A 
ATOM     22  C   UNL     1      -1.228   2.433   0.021  0.00  0.00    +0.027 A 
ATOM     23  C   UNL     1      -1.247   3.815   0.034  0.00  0.00    +0.002 A 
ATOM     24  C   UNL     1      -0.059   4.522   0.026  0.00  0.00    +0.000 A 
ATOM     25  C   UNL     1       1.147   3.847   0.011  0.00  0.00    +0.002 A 
ATOM     26  C   UNL     1       1.166   2.465   0.004  0.00  0.00    +0.027 A 
ENDBRANCH  18  21
ENDBRANCH  17  18
ENDBRANCH  16  17
ENDBRANCH  15  16
ENDBRANCH  12  15
ENDBRANCH   5  11
BRANCH   1  27
ATOM     27  C   UNL     1       0.166  -6.047   7.253  0.00  0.00    +0.342 C 
ATOM     28  O   UNL     1      -0.883  -5.808   7.822  0.00  0.00    -0.245 OA
BRANCH  27  30
ATOM     29  C   UNL     1       1.274  -5.148   9.169  0.00  0.00    +0.280 C 
ATOM     30  O   UNL     1       1.339  -5.750   7.850  0.00  0.00    -0.464 OA
ENDBRANCH  27  30
ENDBRANCH   1  27
BRANCH   9  31
ATOM     31  C   UNL     1       0.441 -12.225   4.821  0.00  0.00    -0.043 C 
BRANCH  31  32
ATOM     32  C   UNL     1       1.452 -12.582   3.763  0.00  0.00    -0.064 A 
ATOM     33  C   UNL     1       1.118 -12.482   2.425  0.00  0.00    +0.002 A 
ATOM     34  C   UNL     1       2.048 -12.805   1.454  0.00  0.00    +0.000 A 
ATOM     35  C   UNL     1       3.308 -13.239   1.822  0.00  0.00    +0.000 A 
ATOM     36  C   UNL     1       3.640 -13.345   3.159  0.00  0.00    +0.000 A 
ATOM     37  C   UNL     1       2.712 -13.017   4.130  0.00  0.00    +0.002 A 
ENDBRANCH  31  32
ENDBRANCH   9  31
TORSDOF 10
