REMARK  Name = ZINC03041096
REMARK  10 active torsions:
REMARK  status: ('A' for Active; 'I' for Inactive)
REMARK    1  A    between atoms: C_1  and  C_2
REMARK    2  A    between atoms: C_2  and  C_3
REMARK    3  A    between atoms: C_6  and  N_9
REMARK    4  A    between atoms: N_12  and  C_13
REMARK    5  A    between atoms: C_15  and  C_35
REMARK    6  A    between atoms: C_18  and  N_19
REMARK    7  A    between atoms: N_37  and  C_38
REMARK    8  A    between atoms: C_38  and  C_40
REMARK    9  A    between atoms: C_38  and  C_41
REMARK   10  A    between atoms: C_41  and  C_42
REMARK                            x       y       z     vdW  Elec       q    Type
REMARK                         _______ _______ _______ _____ _____    ______ ____
ROOT
ATOM      1  C   UNL     1       6.018  -2.535  -5.684  0.00  0.00    +0.057 A 
ATOM      2  C   UNL     1       6.743  -2.311  -4.529  0.00  0.00    +0.038 A 
ATOM      3  C   UNL     1       8.128  -2.495  -4.530  0.00  0.00    +0.039 A 
ATOM      4  C   UNL     1       8.776  -2.905  -5.699  0.00  0.00    +0.015 A 
ATOM      5  C   UNL     1       8.050  -3.126  -6.848  0.00  0.00    +0.026 A 
ATOM      6  C   UNL     1       6.671  -2.950  -6.848  0.00  0.00    +0.051 A 
ENDROOT
BRANCH   6   7
ATOM      7  N   UNL     1       5.940  -3.181  -8.011  0.00  0.00    -0.328 N 
ATOM      8  C   UNL     1       5.264  -4.465  -8.229  0.00  0.00    +0.110 C 
ATOM      9  C   UNL     1       5.617  -5.020  -9.602  0.00  0.00    +0.027 C 
ATOM     10  C   UNL     1       5.412  -3.965 -10.690  0.00  0.00    +0.018 C 
ATOM     11  C   UNL     1       6.306  -2.763 -10.371  0.00  0.00    +0.053 C 
ATOM     12  C   UNL     1       5.824  -2.141  -9.045  0.00  0.00    +0.114 C 
ATOM     13  C   UNL     1       7.734  -3.223 -10.195  0.00  0.00    +0.027 A 
ATOM     14  C   UNL     1       8.719  -2.326 -10.467  0.00  0.00    +0.022 A 
ATOM     15  C   UNL     1      10.062  -2.661 -10.263  0.00  0.00    +0.007 A 
ATOM     16  C   UNL     1      10.366  -3.892  -9.761  0.00  0.00    +0.070 A 
ATOM     17  C   UNL     1       9.326  -4.792  -9.486  0.00  0.00    +0.251 A 
ATOM     18  O   UNL     1       9.580  -5.872  -8.977  0.00  0.00    -0.268 OA
ATOM     19  N   UNL     1       8.042  -4.474  -9.781  0.00  0.00    -0.312 N 
ATOM     20  C   UNL     1       7.045  -5.531  -9.661  0.00  0.00    +0.130 C 
ENDBRANCH   6   7
BRANCH   1  24
ATOM     21  N   UNL     1       2.583  -2.382  -4.563  0.00  0.00    -0.269 N 
ATOM     22  C   UNL     1       3.917  -2.570  -4.564  0.00  0.00    +0.308 C 
ATOM     23  O   UNL     1       4.479  -2.938  -3.550  0.00  0.00    -0.252 OA
ATOM     24  N   UNL     1       4.628  -2.351  -5.687  0.00  0.00    -0.268 N 
ATOM     25  H   UNL     1       2.117  -2.208  -5.396  0.00  0.00    +0.156 HD
ATOM     26  H   UNL     1       4.178  -2.066  -6.498  0.00  0.00    +0.156 HD
BRANCH  21  30
ATOM     27  C   UNL     1       0.456  -2.546  -0.984  0.00  0.00    -0.048 A 
ATOM     28  C   UNL     1      -0.007  -1.765  -2.027  0.00  0.00    +0.005 A 
ATOM     29  C   UNL     1       0.695  -1.709  -3.215  0.00  0.00    +0.023 A 
ATOM     30  C   UNL     1       1.869  -2.436  -3.361  0.00  0.00    +0.035 A 
ATOM     31  C   UNL     1       2.332  -3.219  -2.311  0.00  0.00    +0.023 A 
ATOM     32  C   UNL     1       1.627  -3.267  -1.124  0.00  0.00    +0.005 A 
BRANCH  27  34
ATOM     33  C   UNL     1       0.180  -1.500   1.248  0.00  0.00    +0.009 C 
ATOM     34  C   UNL     1      -0.313  -2.605   0.311  0.00  0.00    +0.032 C 
ENDBRANCH  27  34
ENDBRANCH  21  30
ENDBRANCH   1  24
BRANCH   3  35
ATOM     35  C   UNL     1       8.906  -2.257  -3.299  0.00  0.00    +0.244 C 
ATOM     36  O   UNL     1       8.342  -1.900  -2.283  0.00  0.00    -0.270 OA
ATOM     37  N   UNL     1      10.242  -2.434  -3.301  0.00  0.00    -0.309 N 
ATOM     38  H   UNL     1      10.692  -2.719  -4.112  0.00  0.00    +0.149 HD
BRANCH  37  39
ATOM     39  C   UNL     1      11.014  -2.198  -2.079  0.00  0.00    +0.070 C 
ATOM     40  C   UNL     1      10.995  -3.458  -1.212  0.00  0.00    +0.028 C 
BRANCH  39  41
ATOM     41  C   UNL     1      12.459  -1.854  -2.447  0.00  0.00    +0.018 C 
ATOM     42  C   UNL     1      12.489  -0.527  -3.208  0.00  0.00    +0.005 C 
ENDBRANCH  39  41
ENDBRANCH  37  39
ENDBRANCH   3  35
TORSDOF 7
