REMARK  Name = ZINC67497298
REMARK  8 active torsions:
REMARK  status: ('A' for Active; 'I' for Inactive)
REMARK    1  A    between atoms: C_1  and  C_2
REMARK    2  A    between atoms: C_4  and  C_27
REMARK    3  A    between atoms: C_12  and  C_14
REMARK    4  A    between atoms: N_16  and  C_17
REMARK    5  A    between atoms: C_17  and  C_18
REMARK    6  A    between atoms: C_23  and  N_24
REMARK    7  A    between atoms: N_24  and  C_25
REMARK    8  A    between atoms: N_24  and  C_26
REMARK                            x       y       z     vdW  Elec       q    Type
REMARK                         _______ _______ _______ _____ _____    ______ ____
ROOT
ATOM      1  C   UNL     1      -0.068  -2.783   4.875  0.00  0.00    +0.300 C 
ATOM      2  O   UNL     1      -0.116  -3.996   4.868  0.00  0.00    -0.265 OA
ATOM      3  N   UNL     1       0.152  -2.124   6.030  0.00  0.00    -0.303 N 
ATOM      4  H   UNL     1       0.190  -1.155   6.036  0.00  0.00    +0.149 HD
ENDROOT
BRANCH   1  16
ATOM      5  C   UNL     1      -2.054   1.396   0.294  0.00  0.00    +0.044 C 
ATOM      6  C   UNL     1      -1.510  -0.006   0.199  0.00  0.00    -0.048 A 
ATOM      7  C   UNL     1      -1.336  -0.598  -1.039  0.00  0.00    +0.007 A 
ATOM      8  C   UNL     1      -0.839  -1.883  -1.130  0.00  0.00    -0.045 A 
ATOM      9  C   UNL     1      -0.510  -2.588   0.016  0.00  0.00    -0.023 A 
ATOM     10  C   UNL     1      -0.680  -1.994   1.257  0.00  0.00    +0.040 A 
ATOM     11  C   UNL     1      -1.178  -0.698   1.345  0.00  0.00    +0.027 A 
ATOM     12  N   UNL     1      -0.348  -2.679   2.432  0.00  0.00    -0.263 N 
ATOM     13  C   UNL     1      -0.105  -4.126   2.365  0.00  0.00    +0.114 C 
ATOM     14  C   UNL     1       0.784  -4.396   1.144  0.00  0.00    +0.024 C 
ATOM     15  C   UNL     1       0.025  -3.989  -0.119  0.00  0.00    +0.039 C 
ATOM     16  C   UNL     1      -0.254  -2.021   3.604  0.00  0.00    +0.306 C 
ATOM     17  O   UNL     1      -0.320  -0.809   3.627  0.00  0.00    -0.265 OA
ATOM     18  C   UNL     1      -0.653  -2.522  -2.483  0.00  0.00    +0.044 C 
ENDBRANCH   1  16
BRANCH   3  19
ATOM     19  C   UNL     1       0.334  -2.872   7.276  0.00  0.00    +0.143 C 
BRANCH  19  20
ATOM     20  C   UNL     1       0.563  -1.908   8.412  0.00  0.00    +0.008 A 
ATOM     21  C   UNL     1       1.825  -1.752   8.956  0.00  0.00    +0.010 A 
ATOM     22  C   UNL     1       1.990  -0.853  10.001  0.00  0.00    +0.018 A 
ATOM     23  C   UNL     1       0.898  -0.145  10.463  0.00  0.00    +0.084 A 
ATOM     24  N   UNL     1      -0.295  -0.314   9.925  0.00  0.00    -0.349 N 
ATOM     25  C   UNL     1      -0.491  -1.158   8.923  0.00  0.00    +0.103 A 
ATOM     26  H   UNL     1      -1.045   0.195  10.268  0.00  0.00    +0.167 HD
BRANCH  25  27
ATOM     27  N   UNL     1      -1.764  -1.300   8.382  0.00  0.00    -0.323 N 
ATOM     28  C   UNL     1      -2.650  -2.362   8.863  0.00  0.00    +0.130 C 
ATOM     29  C   UNL     1      -2.218  -0.388   7.330  0.00  0.00    +0.130 C 
ENDBRANCH  25  27
ENDBRANCH  19  20
ENDBRANCH   3  19
TORSDOF 4
