REMARK  Name = ZINC55413597
REMARK  13 active torsions:
REMARK  status: ('A' for Active; 'I' for Inactive)
REMARK    1  A    between atoms: C_1  and  C_2
REMARK    2  A    between atoms: C_4  and  C_25
REMARK    3  A    between atoms: C_5  and  C_20
REMARK    4  A    between atoms: C_6  and  C_19
REMARK    5  A    between atoms: C_7  and  C_8
REMARK    6  A    between atoms: C_8  and  N_9
REMARK    7  A    between atoms: N_9  and  C_10
REMARK    8  A    between atoms: C_10  and  C_11
REMARK    9  A    between atoms: C_11  and  C_12
REMARK   10  A    between atoms: C_12  and  C_13
REMARK   11  A    between atoms: C_20  and  O_21
REMARK   12  A    between atoms: O_21  and  C_22
REMARK   13  A    between atoms: C_22  and  C_24
REMARK                            x       y       z     vdW  Elec       q    Type
REMARK                         _______ _______ _______ _____ _____    ______ ____
ROOT
ATOM      1  C   UNL     1       0.025   0.045   2.504  0.00  0.00    -0.046 C 
ENDROOT
BRANCH   1   8
ATOM      2  C   UNL     1      -0.018   1.503   0.010  0.00  0.00    +0.044 C 
ATOM      3  C   UNL     1       0.002  -0.004   0.002  0.00  0.00    -0.049 A 
ATOM      4  C   UNL     1       0.006  -0.689  -1.199  0.00  0.00    +0.007 A 
ATOM      5  C   UNL     1       0.025  -2.071  -1.207  0.00  0.00    -0.044 A 
ATOM      6  C   UNL     1       0.040  -2.768  -0.013  0.00  0.00    -0.004 A 
ATOM      7  C   UNL     1       0.037  -2.084   1.188  0.00  0.00    -0.042 A 
ATOM      8  C   UNL     1       0.023  -0.702   1.195  0.00  0.00    -0.058 A 
ATOM      9  C   UNL     1       0.054  -2.845   2.489  0.00  0.00    +0.044 C 
ATOM     10  C   UNL     1       0.027  -2.817  -2.516  0.00  0.00    +0.044 C 
BRANCH   6  11
ATOM     11  C   UNL     1       0.059  -4.275  -0.021  0.00  0.00    +0.268 C 
BRANCH  11  12
ATOM     12  O   UNL     1       1.413  -4.734  -0.032  0.00  0.00    -0.460 OA
BRANCH  12  13
ATOM     13  C   UNL     1       1.606  -6.062  -0.040  0.00  0.00    +0.304 C 
ATOM     14  O   UNL     1       0.657  -6.811  -0.038  0.00  0.00    -0.251 OA
ATOM     15  C   UNL     1       3.006  -6.620  -0.051  0.00  0.00    +0.136 C 
ENDBRANCH  12  13
ENDBRANCH  11  12
ENDBRANCH   6  11
ENDBRANCH   1   8
BRANCH   1  16
ATOM     16  N   UNL     1      -1.359   0.269   2.943  0.00  0.00    +0.382 N 
ATOM     17  H   UNL     1      -1.849   0.811   2.247  0.00  0.00    -0.085 HD
ATOM     18  H   UNL     1      -1.821  -0.620   3.063  0.00  0.00    -0.085 HD
BRANCH  16  19
ATOM     19  C   UNL     1      -1.357   0.996   4.219  0.00  0.00    -0.082 C 
BRANCH  19  20
ATOM     20  C   UNL     1      -2.798   1.229   4.676  0.00  0.00    -0.013 C 
BRANCH  20  21
ATOM     21  C   UNL     1      -2.796   1.987   6.005  0.00  0.00    +0.054 C 
BRANCH  21  22
ATOM     22  C   UNL     1      -4.215   2.217   6.455  0.00  0.00    +0.050 A 
ATOM     23  C   UNL     1      -4.643   1.819   7.677  0.00  0.00    +0.071 A 
ATOM     24  S   UNL     1      -6.347   2.350   7.623  0.00  0.00    -0.061 S 
ATOM     25  C   UNL     1      -6.336   3.011   6.076  0.00  0.00    +0.156 A 
ATOM     26  N   UNL     1      -5.097   2.819   5.676  0.00  0.00    -0.230 NA
ATOM     27  N   UNL     1      -7.378   3.616   5.390  0.00  0.00    -0.338 N 
ATOM     28  H   UNL     1      -8.250   3.698   5.807  0.00  0.00    +0.144 HD
ATOM     29  H   UNL     1      -7.235   3.958   4.494  0.00  0.00    +0.144 HD
ENDBRANCH  21  22
ENDBRANCH  20  21
ENDBRANCH  19  20
ENDBRANCH  16  19
ENDBRANCH   1  16
TORSDOF 9
