REMARK  Name = ZINC05165602
REMARK  6 active torsions:
REMARK  status: ('A' for Active; 'I' for Inactive)
REMARK    1  A    between atoms: C_4  and  C_7
REMARK    2  A    between atoms: C_10  and  C_13
REMARK    3  A    between atoms: C_13  and  O_15
REMARK    4  A    between atoms: O_15  and  C_16
REMARK    5  A    between atoms: N_17  and  C_18
REMARK    6  A    between atoms: N_24  and  C_25
REMARK                            x       y       z     vdW  Elec       q    Type
REMARK                         _______ _______ _______ _____ _____    ______ ____
ROOT
ATOM      1  C   UNL     1       8.808  -4.276  -0.294  0.00  0.00    +0.264 C 
ATOM      2  N   UNL     1      10.009  -3.746  -0.087  0.00  0.00    -0.340 N 
ATOM      3  N   UNL     1       8.668  -5.595  -0.374  0.00  0.00    -0.298 N 
ATOM      4  H   UNL     1       9.453  -6.166  -0.393  0.00  0.00    +0.151 HD
ATOM      5  H   UNL     1      10.101  -2.789   0.042  0.00  0.00    +0.164 HD
ENDROOT
BRANCH   2   6
ATOM      6  C   UNL     1      11.193  -4.607  -0.054  0.00  0.00    +0.083 C 
ATOM      7  C   UNL     1      11.376  -5.170   1.357  0.00  0.00    +0.024 C 
ATOM      8  C   UNL     1      12.613  -6.069   1.392  0.00  0.00    +0.002 C 
ATOM      9  C   UNL     1      13.848  -5.253   1.005  0.00  0.00    +0.000 C 
ATOM     10  C   UNL     1      13.665  -4.691  -0.407  0.00  0.00    +0.002 C 
ATOM     11  C   UNL     1      12.428  -3.792  -0.442  0.00  0.00    +0.024 C 
ENDBRANCH   2   6
BRANCH   3  12
ATOM     12  C   UNL     1       7.330  -6.188  -0.432  0.00  0.00    +0.075 C 
ATOM     13  C   UNL     1       6.778  -6.342   0.987  0.00  0.00    +0.022 C 
ATOM     14  C   UNL     1       5.380  -6.961   0.926  0.00  0.00    +0.002 C 
ATOM     15  C   UNL     1       5.460  -8.335   0.258  0.00  0.00    +0.000 C 
ATOM     16  C   UNL     1       6.011  -8.182  -1.160  0.00  0.00    +0.002 C 
ATOM     17  C   UNL     1       7.409  -7.562  -1.100  0.00  0.00    +0.022 C 
ENDBRANCH   3  12
BRANCH   1  18
ATOM     18  O   UNL     1       7.729  -3.474  -0.423  0.00  0.00    -0.393 OA
BRANCH  18  19
ATOM     19  C   UNL     1       7.382  -3.075  -1.665  0.00  0.00    +0.346 C 
ATOM     20  O   UNL     1       8.082  -3.366  -2.614  0.00  0.00    -0.244 OA
BRANCH  19  24
ATOM     21  C   UNL     1       3.842  -0.801  -2.252  0.00  0.00    -0.018 A 
ATOM     22  C   UNL     1       4.646  -1.134  -3.343  0.00  0.00    +0.009 A 
ATOM     23  C   UNL     1       5.793  -1.871  -3.154  0.00  0.00    +0.015 A 
ATOM     24  C   UNL     1       6.153  -2.285  -1.869  0.00  0.00    +0.060 A 
ATOM     25  C   UNL     1       5.347  -1.950  -0.776  0.00  0.00    +0.015 A 
ATOM     26  C   UNL     1       4.204  -1.209  -0.968  0.00  0.00    +0.009 A 
BRANCH  21  30
ATOM     27  C   UNL     1       0.300   1.475  -2.840  0.00  0.00    +0.000 A 
ATOM     28  C   UNL     1       1.092   1.141  -3.923  0.00  0.00    +0.001 A 
ATOM     29  C   UNL     1       2.243   0.403  -3.739  0.00  0.00    +0.008 A 
ATOM     30  C   UNL     1       2.607  -0.007  -2.457  0.00  0.00    -0.018 A 
ATOM     31  C   UNL     1       1.805   0.333  -1.368  0.00  0.00    +0.008 A 
ATOM     32  C   UNL     1       0.656   1.071  -1.565  0.00  0.00    +0.001 A 
ENDBRANCH  21  30
ENDBRANCH  19  24
ENDBRANCH  18  19
ENDBRANCH   1  18
TORSDOF 6
