REMARK  Name = ZINC05826153
REMARK  13 active torsions:
REMARK  status: ('A' for Active; 'I' for Inactive)
REMARK    1  A    between atoms: C_1  and  C_2
REMARK    2  A    between atoms: C_2  and  C_3
REMARK    3  A    between atoms: C_3  and  C_4
REMARK    4  A    between atoms: C_4  and  N_56
REMARK    5  A    between atoms: C_5  and  N_56
REMARK    6  A    between atoms: C_6  and  C_7
REMARK    7  A    between atoms: C_6  and  N_56
REMARK    8  A    between atoms: C_8  and  O_28
REMARK    9  A    between atoms: C_15  and  C_16
REMARK   10  A    between atoms: C_19  and  O_24
REMARK   11  A    between atoms: C_21  and  O_22
REMARK   12  A    between atoms: O_22  and  C_23
REMARK   13  A    between atoms: O_24  and  C_25
REMARK                            x       y       z     vdW  Elec       q    Type
REMARK                         _______ _______ _______ _____ _____    ______ ____
ROOT
ATOM      1  C   UNL     1       1.383   8.702  -2.028  0.00  0.00    +0.020 A 
ATOM      2  C   UNL     1       1.779   9.941  -2.507  0.00  0.00    +0.122 A 
ATOM      3  C   UNL     1       1.454  11.104  -1.814  0.00  0.00    +0.046 A 
ATOM      4  C   UNL     1       0.739  11.034  -0.652  0.00  0.00    +0.019 A 
ATOM      5  C   UNL     1       0.334   9.794  -0.159  0.00  0.00    +0.068 A 
ATOM      6  C   UNL     1       0.656   8.614  -0.848  0.00  0.00    +0.144 A 
ATOM      7  O   UNL     1       0.165   7.548  -0.179  0.00  0.00    -0.451 OA
ATOM      8  C   UNL     1      -0.495   7.920   0.944  0.00  0.00    +0.176 C 
ATOM      9  C   UNL     1      -1.105   7.087   1.829  0.00  0.00    +0.061 C 
ATOM     10  C   UNL     1      -0.428   9.383   1.035  0.00  0.00    +0.231 C 
ATOM     11  O   UNL     1      -0.898  10.099   1.903  0.00  0.00    -0.283 OA
ENDROOT
BRANCH   9  12
ATOM     12  C   UNL     1      -0.972   5.636   1.681  0.00  0.00    +0.020 A 
ATOM     13  C   UNL     1      -0.541   5.088   0.465  0.00  0.00    +0.015 A 
ATOM     14  C   UNL     1      -0.413   3.736   0.331  0.00  0.00    +0.046 A 
ATOM     15  C   UNL     1      -0.720   2.891   1.393  0.00  0.00    +0.124 A 
ATOM     16  C   UNL     1      -1.147   3.415   2.605  0.00  0.00    +0.091 A 
ATOM     17  C   UNL     1      -1.277   4.784   2.758  0.00  0.00    +0.131 A 
BRANCH  17  18
ATOM     18  O   UNL     1      -1.694   5.302   3.941  0.00  0.00    -0.494 OA
ATOM     19  C   UNL     1      -1.984   4.375   4.989  0.00  0.00    +0.277 C 
ENDBRANCH  17  18
BRANCH  15  20
ATOM     20  O   UNL     1      -0.594   1.547   1.246  0.00  0.00    -0.495 OA
ATOM     21  C   UNL     1      -0.149   1.073  -0.027  0.00  0.00    +0.277 C 
ENDBRANCH  15  20
ENDBRANCH   9  12
BRANCH   2  22
ATOM     22  O   UNL     1       2.489  10.021  -3.661  0.00  0.00    -0.506 OA
ATOM     23  H   UNL     1       1.943  10.107  -4.454  0.00  0.00    +0.292 HD
ENDBRANCH   2  22
BRANCH   1  24
ATOM     24  C   UNL     1       1.742   7.452  -2.788  0.00  0.00    -0.036 C 
BRANCH  24  26
ATOM     25  C   UNL     1       0.601   8.176  -4.797  0.00  0.00    -0.096 C 
ATOM     26  N   UNL     1       0.654   7.144  -3.741  0.00  0.00    +0.381 N 
ATOM     27  H   UNL     1      -0.239   7.137  -3.235  0.00  0.00    -0.082 HD
BRANCH  26  28
ATOM     28  C   UNL     1       0.873   5.813  -4.345  0.00  0.00    -0.079 C 
BRANCH  28  29
ATOM     29  C   UNL     1      -0.370   5.425  -5.149  0.00  0.00    -0.019 C 
BRANCH  29  31
ATOM     30  C   UNL     1      -1.410   3.651  -6.567  0.00  0.00    +0.004 C 
ATOM     31  C   UNL     1      -0.167   4.039  -5.763  0.00  0.00    -0.005 C 
ENDBRANCH  29  31
ENDBRANCH  28  29
ENDBRANCH  26  28
ENDBRANCH  24  26
ENDBRANCH   1  24
TORSDOF 9
