REMARK  Name = ZINC09350407
REMARK  8 active torsions:
REMARK  status: ('A' for Active; 'I' for Inactive)
REMARK    1  A    between atoms: C_1  and  C_2
REMARK    2  A    between atoms: C_2  and  C_3
REMARK    3  A    between atoms: C_3  and  O_4
REMARK    4  A    between atoms: O_4  and  C_5
REMARK    5  A    between atoms: C_8  and  C_11
REMARK    6  A    between atoms: C_18  and  N_32
REMARK    7  A    between atoms: C_19  and  C_30
REMARK    8  A    between atoms: C_20  and  C_22
REMARK                            x       y       z     vdW  Elec       q    Type
REMARK                         _______ _______ _______ _____ _____    ______ ____
ROOT
ATOM      1  C   UNL     1       3.270  -4.723  -6.048  0.00  0.00    +0.100 A 
ATOM      2  C   UNL     1       4.128  -5.781  -5.731  0.00  0.00    +0.054 A 
ATOM      3  C   UNL     1       4.693  -6.228  -6.891  0.00  0.00    +0.223 A 
ATOM      4  N   UNL     1       4.206  -5.477  -7.901  0.00  0.00    -0.246 N 
ATOM      5  H   UNL     1       4.431  -5.570  -8.839  0.00  0.00    +0.192 HD
ATOM      6  N   UNL     1       3.313  -4.542  -7.354  0.00  0.00    -0.171 NA
ATOM      7  O   UNL     1       5.581  -7.252  -6.924  0.00  0.00    -0.423 OA
ATOM      8  C   UNL     1       6.114  -7.656  -5.753  0.00  0.00    +0.200 C 
ATOM      9  C   UNL     1       5.635  -7.292  -4.543  0.00  0.00    +0.098 C 
ATOM     10  C   UNL     1       4.437  -6.388  -4.388  0.00  0.00    +0.103 C 
ENDROOT
BRANCH  10  11
ATOM     11  C   UNL     1       3.254  -7.190  -3.908  0.00  0.00    -0.016 A 
ATOM     12  C   UNL     1       2.714  -8.175  -4.715  0.00  0.00    +0.007 A 
ATOM     13  C   UNL     1       1.630  -8.911  -4.276  0.00  0.00    +0.020 A 
ATOM     14  C   UNL     1       1.084  -8.662  -3.028  0.00  0.00    +0.042 A 
ATOM     15  C   UNL     1       1.624  -7.678  -2.221  0.00  0.00    +0.040 A 
ATOM     16  C   UNL     1       2.713  -6.945  -2.659  0.00  0.00    +0.046 A 
ATOM     17 CL   UNL     1       3.395  -5.713  -1.644  0.00  0.00    -0.083 Cl
ATOM     18 CL   UNL     1      -0.278  -9.586  -2.477  0.00  0.00    -0.083 Cl
ENDBRANCH  10  11
BRANCH   1  22
ATOM     19  C   UNL     1       0.924  -2.492  -3.288  0.00  0.00    +0.121 A 
ATOM     20  C   UNL     1       0.374  -2.896  -4.497  0.00  0.00    +0.046 A 
ATOM     21  C   UNL     1       1.132  -3.619  -5.394  0.00  0.00    +0.013 A 
ATOM     22  C   UNL     1       2.452  -3.944  -5.085  0.00  0.00    +0.003 A 
ATOM     23  C   UNL     1       3.001  -3.537  -3.871  0.00  0.00    +0.013 A 
ATOM     24  C   UNL     1       2.240  -2.810  -2.980  0.00  0.00    +0.046 A 
BRANCH  19  25
ATOM     25  O   UNL     1       0.174  -1.780  -2.406  0.00  0.00    -0.492 OA
BRANCH  25  26
ATOM     26  C   UNL     1      -1.172  -1.487  -2.787  0.00  0.00    +0.229 C 
BRANCH  26  28
ATOM     27  C   UNL     1      -3.294  -0.371  -2.084  0.00  0.00    +0.007 C 
ATOM     28  C   UNL     1      -1.853  -0.684  -1.677  0.00  0.00    +0.038 C 
ENDBRANCH  26  28
ENDBRANCH  25  26
ENDBRANCH  19  25
ENDBRANCH   1  22
BRANCH   8  29
ATOM     29  N   UNL     1       7.207  -8.485  -5.792  0.00  0.00    -0.328 N 
ATOM     30  H   UNL     1       7.574  -8.764  -6.646  0.00  0.00    +0.145 HD
ATOM     31  H   UNL     1       7.613  -8.792  -4.966  0.00  0.00    +0.145 HD
ENDBRANCH   8  29
BRANCH   9  32
ATOM     32  C   UNL     1       6.287  -7.782  -3.367  0.00  0.00    +0.101 C 
ATOM     33  N   UNL     1       6.805  -8.170  -2.433  0.00  0.00    -0.191 NA
ENDBRANCH   9  32
TORSDOF 7
