REMARK  Name = ZINC39669680
REMARK  8 active torsions:
REMARK  status: ('A' for Active; 'I' for Inactive)
REMARK    1  A    between atoms: C_1  and  C_2
REMARK    2  A    between atoms: C_2  and  C_8
REMARK    3  A    between atoms: C_12  and  C_21
REMARK    4  A    between atoms: N_23  and  C_24
REMARK    5  A    between atoms: C_24  and  C_25
REMARK    6  A    between atoms: C_25  and  C_26
REMARK    7  A    between atoms: C_25  and  C_27
REMARK    8  A    between atoms: C_25  and  N_28
REMARK                            x       y       z     vdW  Elec       q    Type
REMARK                         _______ _______ _______ _____ _____    ______ ____
ROOT
ATOM      1  C   UNL     1      -2.199  -0.713   0.066  0.00  0.00    +0.222 C 
ATOM      2  O   UNL     1      -2.813  -1.307   0.926  0.00  0.00    -0.275 OA
ATOM      3  N   UNL     1      -2.836  -0.286  -1.043  0.00  0.00    -0.300 N 
ATOM      4  C   UNL     1      -2.242   0.347  -2.244  0.00  0.00    +0.121 C 
ATOM      5  C   UNL     1      -3.022  -0.260  -3.432  0.00  0.00    +0.100 C 
ATOM      6  C   UNL     1      -4.364  -0.710  -2.830  0.00  0.00    -0.004 C 
ATOM      7  C   UNL     1      -4.287  -0.350  -1.339  0.00  0.00    +0.115 C 
ATOM      8  C   UNL     1      -5.518   0.034  -3.495  0.00  0.00    -0.010 C 
ATOM      9  C   UNL     1      -6.844  -0.472  -2.922  0.00  0.00    -0.082 C 
ATOM     10  N   UNL     1      -6.964  -1.915  -3.162  0.00  0.00    +0.379 N 
ATOM     11  C   UNL     1      -5.904  -2.632  -2.442  0.00  0.00    -0.082 C 
ATOM     12  C   UNL     1      -4.538  -2.217  -2.995  0.00  0.00    -0.010 C 
ATOM     13  H   UNL     1      -7.865  -2.235  -2.837  0.00  0.00    -0.086 HD
ATOM     14  H   UNL     1      -6.881  -2.099  -4.150  0.00  0.00    -0.086 HD
ENDROOT
BRANCH   1  16
ATOM     15  C   UNL     1       0.060  -1.278  -0.785  0.00  0.00    +0.021 C 
ATOM     16  C   UNL     1      -0.725  -0.452   0.236  0.00  0.00    +0.044 C 
ATOM     17  C   UNL     1      -0.296  -0.849   1.650  0.00  0.00    +0.016 C 
ATOM     18  C   UNL     1      -1.082  -0.023   2.671  0.00  0.00    +0.001 C 
ATOM     19  C   UNL     1      -0.798   1.464   2.450  0.00  0.00    +0.000 C 
ATOM     20  C   UNL     1      -1.227   1.861   1.036  0.00  0.00    +0.001 C 
ATOM     21  C   UNL     1      -0.442   1.035   0.015  0.00  0.00    +0.016 C 
ENDBRANCH   1  16
BRANCH   5  22
ATOM     22  C   UNL     1      -3.246   0.779  -4.499  0.00  0.00    +0.218 C 
ATOM     23  O   UNL     1      -3.428   1.938  -4.189  0.00  0.00    -0.275 OA
ATOM     24  N   UNL     1      -3.244   0.422  -5.799  0.00  0.00    -0.313 N 
ATOM     25  H   UNL     1      -3.098  -0.504  -6.047  0.00  0.00    +0.149 HD
BRANCH  24  26
ATOM     26  C   UNL     1      -3.461   1.433  -6.837  0.00  0.00    +0.126 C 
BRANCH  26  27
ATOM     27  C   UNL     1      -3.535   0.752  -8.205  0.00  0.00    +0.032 C 
ATOM     28  C   UNL     1      -4.732  -0.200  -8.236  0.00  0.00    +0.029 C 
ATOM     29  C   UNL     1      -3.698   1.813  -9.295  0.00  0.00    +0.029 C 
BRANCH  27  30
ATOM     30  N   UNL     1      -2.299  -0.007  -8.441  0.00  0.00    -0.291 NA
ATOM     31  C   UNL     1      -1.114   0.840  -8.244  0.00  0.00    +0.113 C 
ATOM     32  C   UNL     1       0.148  -0.003  -8.441  0.00  0.00    +0.175 C 
ATOM     33  O   UNL     1       0.119  -0.599  -9.741  0.00  0.00    -0.377 OA
ATOM     34  C   UNL     1      -1.022  -1.432  -9.967  0.00  0.00    +0.175 C 
ATOM     35  C   UNL     1      -2.296  -0.603  -9.786  0.00  0.00    +0.113 C 
ENDBRANCH  27  30
ENDBRANCH  26  27
ENDBRANCH  24  26
ENDBRANCH   5  22
TORSDOF 5
