REMARK  Name = ZINC13028036
REMARK  6 active torsions:
REMARK  status: ('A' for Active; 'I' for Inactive)
REMARK    1  A    between atoms: C_1  and  C_2
REMARK    2  A    between atoms: C_15  and  S_18
REMARK    3  A    between atoms: S_18  and  C_19
REMARK    4  A    between atoms: C_19  and  C_20
REMARK    5  A    between atoms: N_22  and  N_23
REMARK    6  A    between atoms: C_24  and  C_26
REMARK                            x       y       z     vdW  Elec       q    Type
REMARK                         _______ _______ _______ _____ _____    ______ ____
ROOT
ATOM      1  C   UNL     1      -5.674  -4.073   0.050  0.00  0.00    +0.086 C 
ATOM      2  C   UNL     1      -5.013  -5.428   0.034  0.00  0.00    +0.115 A 
ATOM      3  N   UNL     1      -5.755  -6.499   0.040  0.00  0.00    -0.226 NA
ATOM      4  C   UNL     1      -5.237  -7.723   0.025  0.00  0.00    +0.114 A 
ATOM      5  C   UNL     1      -3.854  -7.954  -0.006  0.00  0.00    +0.056 A 
ATOM      6  C   UNL     1      -3.432  -9.307  -0.019  0.00  0.00    -0.024 A 
ATOM      7  C   UNL     1      -4.389 -10.263  -0.016  0.00  0.00    -0.004 A 
ATOM      8  S   UNL     1      -5.917  -9.364   0.028  0.00  0.00    -0.073 S 
ATOM      9  C   UNL     1      -4.194 -11.748  -0.028  0.00  0.00    +0.043 C 
ATOM     10  C   UNL     1      -2.738 -12.041  -0.419  0.00  0.00    +0.005 C 
ATOM     11  C   UNL     1      -1.817 -11.146   0.415  0.00  0.00    +0.005 C 
ATOM     12  C   UNL     1      -1.954  -9.692  -0.038  0.00  0.00    +0.037 C 
ATOM     13  C   UNL     1      -3.021  -6.731  -0.006  0.00  0.00    +0.173 A 
ATOM     14  N   UNL     1      -3.651  -5.506   0.013  0.00  0.00    -0.258 N 
ATOM     15  C   UNL     1      -2.645  -4.580   0.003  0.00  0.00    +0.198 A 
ATOM     16  N   UNL     1      -1.510  -5.239  -0.011  0.00  0.00    -0.122 NA
ATOM     17  N   UNL     1      -1.730  -6.508  -0.017  0.00  0.00    -0.128 NA
ENDROOT
BRANCH  15  18
ATOM     18  S   UNL     1      -2.837  -2.829   0.014  0.00  0.00    -0.076 S 
BRANCH  18  19
ATOM     19  C   UNL     1      -1.135  -2.201   0.001  0.00  0.00    +0.174 C 
BRANCH  19  20
ATOM     20  C   UNL     1      -1.156  -0.694   0.009  0.00  0.00    +0.239 C 
ATOM     21  O   UNL     1      -2.214  -0.102   0.023  0.00  0.00    -0.273 OA
ATOM     22  N   UNL     1       0.002  -0.004   0.002  0.00  0.00    -0.234 N 
ATOM     23  H   UNL     1       0.849  -0.478  -0.009  0.00  0.00    +0.173 HD
BRANCH  22  24
ATOM     24  N   UNL     1      -0.017   1.397   0.010  0.00  0.00    -0.234 N 
ATOM     25  C   UNL     1       1.141   2.087   0.002  0.00  0.00    +0.232 C 
ATOM     26  O   UNL     1       2.199   1.494  -0.011  0.00  0.00    -0.274 OA
ATOM     27  H   UNL     1      -0.864   1.870   0.016  0.00  0.00    +0.173 HD
BRANCH  25  28
ATOM     28  C   UNL     1       1.121   3.593   0.011  0.00  0.00    +0.076 C 
ATOM     29  C   UNL     1       0.381   4.100  -1.229  0.00  0.00    +0.013 C 
ATOM     30  C   UNL     1       0.360   5.630  -1.220  0.00  0.00    +0.001 C 
ATOM     31  C   UNL     1       1.795   6.160  -1.231  0.00  0.00    +0.000 C 
ATOM     32  C   UNL     1       2.535   5.653   0.008  0.00  0.00    +0.001 C 
ATOM     33  C   UNL     1       2.556   4.123  -0.000  0.00  0.00    +0.013 C 
ENDBRANCH  25  28
ENDBRANCH  22  24
ENDBRANCH  19  20
ENDBRANCH  18  19
ENDBRANCH  15  18
TORSDOF 5
