REMARK  Name = ZINC06194826
REMARK  10 active torsions:
REMARK  status: ('A' for Active; 'I' for Inactive)
REMARK    1  A    between atoms: C_1  and  C_2
REMARK    2  A    between atoms: C_6  and  C_15
REMARK    3  A    between atoms: C_13  and  C_14
REMARK    4  A    between atoms: C_15  and  C_17
REMARK    5  A    between atoms: C_15  and  N_66
REMARK    6  A    between atoms: N_21  and  C_22
REMARK    7  A    between atoms: C_22  and  C_23
REMARK    8  A    between atoms: C_23  and  O_24
REMARK    9  A    between atoms: O_24  and  C_25
REMARK   10  A    between atoms: N_28  and  C_31
REMARK                            x       y       z     vdW  Elec       q    Type
REMARK                         _______ _______ _______ _____ _____    ______ ____
ROOT
ATOM      1  C   UNL     1       1.669   7.546  -1.035  0.00  0.00    +0.039 C 
ENDROOT
BRANCH   1   7
ATOM      2  C   UNL     1       2.094  11.437  -7.383  0.00  0.00    +0.044 C 
ATOM      3  C   UNL     1       1.328  10.554  -6.432  0.00  0.00    -0.047 A 
ATOM      4  C   UNL     1       1.920  10.132  -5.275  0.00  0.00    +0.013 A 
ATOM      5  C   UNL     1       1.210   9.312  -4.392  0.00  0.00    -0.001 A 
ATOM      6  C   UNL     1       1.814   8.841  -3.144  0.00  0.00    +0.017 A 
ATOM      7  C   UNL     1       1.077   8.049  -2.327  0.00  0.00    +0.011 A 
ATOM      8  C   UNL     1      -0.240   7.688  -2.684  0.00  0.00    +0.251 A 
ATOM      9  O   UNL     1      -0.883   6.970  -1.938  0.00  0.00    -0.268 OA
ATOM     10  N   UNL     1      -0.805   8.120  -3.825  0.00  0.00    -0.322 N 
ATOM     11  H   UNL     1      -1.714   7.856  -4.038  0.00  0.00    +0.169 HD
ATOM     12  C   UNL     1      -0.109   8.928  -4.699  0.00  0.00    +0.049 A 
ATOM     13  C   UNL     1      -0.691   9.370  -5.883  0.00  0.00    +0.030 A 
ATOM     14  C   UNL     1       0.028  10.178  -6.738  0.00  0.00    -0.046 A 
ATOM     15  C   UNL     1      -0.604  10.656  -8.019  0.00  0.00    +0.044 C 
ENDBRANCH   1   7
BRANCH   1  21
ATOM     16  C   UNL     1       2.243   5.454  -2.111  0.00  0.00    -0.058 C 
ATOM     17  C   UNL     1       2.029   3.940  -2.058  0.00  0.00    +0.086 C 
ATOM     18  N   UNL     1       2.535   3.420  -0.780  0.00  0.00    -0.333 N 
ATOM     19  C   UNL     1       1.841   4.049   0.352  0.00  0.00    +0.086 C 
ATOM     20  C   UNL     1       2.055   5.564   0.300  0.00  0.00    -0.058 C 
ATOM     21  N   UNL     1       1.523   6.076  -0.979  0.00  0.00    +0.391 N 
ATOM     22  H   UNL     1       0.526   5.837  -1.046  0.00  0.00    -0.080 HD
BRANCH  18  23
ATOM     23  C   UNL     1       2.421   2.027  -0.726  0.00  0.00    +0.030 A 
ATOM     24  C   UNL     1       2.846   1.338   0.403  0.00  0.00    +0.026 A 
ATOM     25  C   UNL     1       2.732  -0.037   0.455  0.00  0.00    +0.040 A 
ATOM     26  C   UNL     1       2.197  -0.730  -0.618  0.00  0.00    +0.124 A 
ATOM     27  C   UNL     1       1.773  -0.045  -1.745  0.00  0.00    +0.040 A 
ATOM     28  C   UNL     1       1.885   1.331  -1.801  0.00  0.00    +0.026 A 
ATOM     29  F   UNL     1       2.087  -2.075  -0.566  0.00  0.00    -0.205 F 
ENDBRANCH  18  23
ENDBRANCH   1  21
BRANCH   1  30
ATOM     30  C   UNL     1       0.928   8.156   0.127  0.00  0.00    +0.143 A 
ATOM     31  N   UNL     1      -0.270   7.832   0.548  0.00  0.00    -0.115 NA
ATOM     32  N   UNL     1      -0.550   8.576   1.562  0.00  0.00    -0.023 NA
ATOM     33  N   UNL     1       0.434   9.372   1.794  0.00  0.00    -0.044 NA
ATOM     34  N   UNL     1       1.365   9.144   0.930  0.00  0.00    -0.228 N 
BRANCH  34  35
ATOM     35  C   UNL     1       2.656   9.831   0.840  0.00  0.00    +0.175 C 
BRANCH  35  36
ATOM     36  C   UNL     1       2.523  11.049  -0.077  0.00  0.00    +0.183 C 
BRANCH  36  37
ATOM     37  O   UNL     1       3.782  11.719  -0.165  0.00  0.00    -0.381 OA
ATOM     38  C   UNL     1       3.767  12.877  -1.002  0.00  0.00    +0.194 C 
ENDBRANCH  36  37
ENDBRANCH  35  36
ENDBRANCH  34  35
ENDBRANCH   1  30
TORSDOF 7
