REMARK  Name = ZINC38584164
REMARK  15 active torsions:
REMARK  status: ('A' for Active; 'I' for Inactive)
REMARK    1  A    between atoms: C_1  and  C_2
REMARK    2  A    between atoms: C_2  and  C_3
REMARK    3  A    between atoms: C_7  and  C_39
REMARK    4  A    between atoms: C_8  and  N_9
REMARK    5  A    between atoms: N_9  and  C_10
REMARK    6  A    between atoms: C_10  and  C_12
REMARK    7  A    between atoms: C_10  and  C_13
REMARK    8  A    between atoms: C_13  and  O_14
REMARK    9  A    between atoms: O_14  and  C_15
REMARK   10  A    between atoms: C_16  and  C_18
REMARK   11  A    between atoms: C_18  and  N_19
REMARK   12  A    between atoms: C_27  and  C_28
REMARK   13  A    between atoms: C_28  and  C_29
REMARK   14  A    between atoms: C_29  and  N_30
REMARK   15  A    between atoms: C_31  and  C_33
REMARK                            x       y       z     vdW  Elec       q    Type
REMARK                         _______ _______ _______ _____ _____    ______ ____
ROOT
ATOM      1  N   UNL     1      -3.127   2.588  -2.605  0.00  0.00    -0.319 N 
ATOM      2  C   UNL     1      -2.366   3.729  -2.765  0.00  0.00    +0.069 A 
ATOM      3  C   UNL     1      -1.141   4.152  -2.267  0.00  0.00    +0.028 A 
ATOM      4  C   UNL     1      -0.645   5.385  -2.632  0.00  0.00    +0.002 A 
ATOM      5  C   UNL     1      -1.362   6.205  -3.491  0.00  0.00    +0.002 A 
ATOM      6  C   UNL     1      -2.569   5.806  -3.990  0.00  0.00    +0.030 A 
ATOM      7  C   UNL     1      -3.091   4.560  -3.635  0.00  0.00    +0.089 A 
ATOM      8  N   UNL     1      -4.232   3.897  -3.955  0.00  0.00    -0.232 NA
ATOM      9  C   UNL     1      -4.250   2.742  -3.357  0.00  0.00    +0.113 A 
ENDROOT
BRANCH   1  10
ATOM     10  C   UNL     1      -2.785   1.425  -1.783  0.00  0.00    +0.219 C 
BRANCH  10  12
ATOM     11  N   UNL     1      -1.630  -0.743  -2.077  0.00  0.00    -0.264 N 
ATOM     12  C   UNL     1      -2.005   0.436  -2.611  0.00  0.00    +0.240 C 
ATOM     13  O   UNL     1      -1.715   0.702  -3.759  0.00  0.00    -0.273 OA
BRANCH  11  19
ATOM     14  C   UNL     1      -1.328  -0.844   0.317  0.00  0.00    -0.026 A 
ATOM     15  C   UNL     1      -1.790  -1.208   1.567  0.00  0.00    +0.005 A 
ATOM     16  C   UNL     1      -3.009  -1.848   1.696  0.00  0.00    +0.001 A 
ATOM     17  C   UNL     1      -3.769  -2.125   0.575  0.00  0.00    +0.005 A 
ATOM     18  C   UNL     1      -3.314  -1.763  -0.678  0.00  0.00    -0.029 A 
ATOM     19  C   UNL     1      -2.092  -1.116  -0.810  0.00  0.00    +0.043 A 
ATOM     20  C   UNL     1      -4.143  -2.066  -1.899  0.00  0.00    +0.045 C 
BRANCH  14  22
ATOM     21  C   UNL     1      -0.090   1.252   0.791  0.00  0.00    +0.009 C 
ATOM     22  C   UNL     1       0.001  -0.146   0.177  0.00  0.00    +0.033 C 
ENDBRANCH  14  22
ENDBRANCH  11  19
BRANCH  11  23
ATOM     23  C   UNL     1      -0.738  -1.635  -2.823  0.00  0.00    +0.104 C 
ATOM     24  C   UNL     1      -1.510  -2.882  -3.257  0.00  0.00    +0.031 C 
BRANCH  23  25
ATOM     25  C   UNL     1       0.435  -2.046  -1.931  0.00  0.00    +0.182 C 
BRANCH  25  26
ATOM     26  O   UNL     1      -0.052  -2.804  -0.822  0.00  0.00    -0.381 OA
ATOM     27  C   UNL     1       0.968  -3.240   0.078  0.00  0.00    +0.194 C 
ENDBRANCH  25  26
ENDBRANCH  23  25
ENDBRANCH  11  23
ENDBRANCH  10  12
ENDBRANCH   1  10
BRANCH   9  28
ATOM     28  C   UNL     1      -5.354   1.724  -3.477  0.00  0.00    +0.093 C 
BRANCH  28  29
ATOM     29  C   UNL     1      -6.401   1.977  -2.391  0.00  0.00    +0.112 C 
BRANCH  29  30
ATOM     30  N   UNL     1      -7.475   0.987  -2.507  0.00  0.00    -0.315 N 
ATOM     31  C   UNL     1      -8.514   1.016  -1.649  0.00  0.00    +0.216 C 
ATOM     32  O   UNL     1      -8.560   1.860  -0.780  0.00  0.00    -0.276 OA
ATOM     33  H   UNL     1      -7.439   0.312  -3.203  0.00  0.00    +0.149 HD
BRANCH  31  34
ATOM     34  C   UNL     1      -9.619  -0.002  -1.769  0.00  0.00    +0.075 C 
ATOM     35  C   UNL     1     -10.274   0.117  -3.147  0.00  0.00    +0.013 C 
ATOM     36  C   UNL     1     -11.396  -0.917  -3.268  0.00  0.00    +0.001 C 
ATOM     37  C   UNL     1     -12.443  -0.664  -2.182  0.00  0.00    +0.000 C 
ATOM     38  C   UNL     1     -11.787  -0.783  -0.804  0.00  0.00    +0.001 C 
ATOM     39  C   UNL     1     -10.666   0.251  -0.683  0.00  0.00    +0.013 C 
ENDBRANCH  31  34
ENDBRANCH  29  30
ENDBRANCH  28  29
ENDBRANCH   9  28
TORSDOF 11
