REMARK  Name = ZINC13063689
REMARK  12 active torsions:
REMARK  status: ('A' for Active; 'I' for Inactive)
REMARK    1  A    between atoms: C_1  and  C_2
REMARK    2  A    between atoms: C_2  and  C_3
REMARK    3  A    between atoms: C_10  and  C_15
REMARK    4  A    between atoms: C_15  and  N_66
REMARK    5  A    between atoms: C_16  and  C_17
REMARK    6  A    between atoms: C_16  and  N_66
REMARK    7  A    between atoms: C_22  and  C_24
REMARK    8  A    between atoms: C_22  and  C_26
REMARK    9  A    between atoms: C_22  and  N_66
REMARK   10  A    between atoms: C_24  and  C_25
REMARK   11  A    between atoms: N_30  and  C_31
REMARK   12  A    between atoms: C_31  and  C_32
REMARK                            x       y       z     vdW  Elec       q    Type
REMARK                         _______ _______ _______ _____ _____    ______ ____
ROOT
ATOM      1  N   UNL     1      -1.959   1.529   1.533  0.00  0.00    +0.394 N 
ATOM      2  H   UNL     1      -2.276   1.967   2.406  0.00  0.00    -0.080 HD
ENDROOT
BRANCH   1   3
ATOM      3  C   UNL     1      -2.832   1.976   0.427  0.00  0.00    -0.036 C 
BRANCH   3  11
ATOM      4  C   UNL     1      -8.218   3.838   2.838  0.00  0.00    -0.047 A 
ATOM      5  C   UNL     1      -8.888   2.634   2.671  0.00  0.00    +0.005 A 
ATOM      6  C   UNL     1      -8.255   1.549   2.104  0.00  0.00    +0.026 A 
ATOM      7  C   UNL     1      -6.929   1.660   1.696  0.00  0.00    +0.049 A 
ATOM      8  C   UNL     1      -6.253   2.882   1.867  0.00  0.00    -0.001 A 
ATOM      9  C   UNL     1      -6.916   3.970   2.444  0.00  0.00    +0.013 A 
ATOM     10  C   UNL     1      -4.857   2.987   1.439  0.00  0.00    +0.017 A 
ATOM     11  C   UNL     1      -4.267   1.900   0.882  0.00  0.00    +0.001 A 
ATOM     12  C   UNL     1      -4.990   0.697   0.733  0.00  0.00    +0.251 A 
ATOM     13  O   UNL     1      -4.439  -0.269   0.234  0.00  0.00    -0.268 OA
ATOM     14  N   UNL     1      -6.271   0.590   1.127  0.00  0.00    -0.322 N 
ATOM     15  H   UNL     1      -6.738  -0.251   1.010  0.00  0.00    +0.169 HD
BRANCH   4  17
ATOM     16  C   UNL     1      -9.613   5.833   2.363  0.00  0.00    +0.009 C 
ATOM     17  C   UNL     1      -8.932   5.011   3.459  0.00  0.00    +0.032 C 
ENDBRANCH   4  17
ENDBRANCH   3  11
ENDBRANCH   1   3
BRANCH   1  18
ATOM     18  C   UNL     1      -2.038   0.060   1.677  0.00  0.00    -0.002 C 
BRANCH  18  19
ATOM     19  C   UNL     1      -1.590  -0.313   3.067  0.00  0.00    +0.089 A 
ATOM     20  C   UNL     1      -2.395  -0.515   4.125  0.00  0.00    +0.042 A 
ATOM     21  C   UNL     1      -1.560  -0.842   5.218  0.00  0.00    +0.041 A 
ATOM     22  C   UNL     1      -0.295  -0.821   4.762  0.00  0.00    +0.195 A 
ATOM     23  O   UNL     1      -0.319  -0.505   3.457  0.00  0.00    -0.470 OA
ENDBRANCH  18  19
ENDBRANCH   1  18
BRANCH   1  24
ATOM     24  C   UNL     1      -0.563   1.936   1.270  0.00  0.00    +0.003 C 
BRANCH  24  25
ATOM     25  C   UNL     1      -0.232   1.771  -0.191  0.00  0.00    +0.138 A 
ATOM     26  N   UNL     1      -0.954   2.175  -1.207  0.00  0.00    -0.115 NA
ATOM     27  N   UNL     1      -0.334   1.851  -2.289  0.00  0.00    -0.023 NA
ATOM     28  N   UNL     1       0.761   1.244  -1.990  0.00  0.00    -0.044 NA
ATOM     29  N   UNL     1       0.860   1.175  -0.705  0.00  0.00    -0.226 N 
BRANCH  29  30
ATOM     30  C   UNL     1       1.954   0.562   0.052  0.00  0.00    +0.182 C 
BRANCH  30  31
ATOM     31  C   UNL     1       1.776  -0.934   0.070  0.00  0.00    -0.026 A 
ATOM     32  C   UNL     1       0.971  -1.522   1.028  0.00  0.00    +0.005 A 
ATOM     33  C   UNL     1       0.803  -2.894   1.042  0.00  0.00    +0.000 A 
ATOM     34  C   UNL     1       1.450  -3.679   0.105  0.00  0.00    +0.000 A 
ATOM     35  C   UNL     1       2.260  -3.091  -0.849  0.00  0.00    +0.000 A 
ATOM     36  C   UNL     1       2.423  -1.719  -0.866  0.00  0.00    +0.005 A 
ENDBRANCH  30  31
ENDBRANCH  29  30
ENDBRANCH  24  25
BRANCH  24  37
ATOM     37  C   UNL     1      -0.399   3.405   1.668  0.00  0.00    -0.011 C 
ATOM     38  C   UNL     1      -0.706   3.567   3.158  0.00  0.00    +0.002 C 
ENDBRANCH  24  37
ENDBRANCH   1  24
TORSDOF 10
