REMARK  Name = ZINC24836878
REMARK  10 active torsions:
REMARK  status: ('A' for Active; 'I' for Inactive)
REMARK    1  A    between atoms: C_1  and  C_2
REMARK    2  A    between atoms: C_5  and  C_27
REMARK    3  A    between atoms: C_6  and  N_8
REMARK    4  A    between atoms: C_9  and  S_13
REMARK    5  A    between atoms: S_13  and  C_14
REMARK    6  A    between atoms: C_14  and  C_15
REMARK    7  A    between atoms: C_15  and  C_17
REMARK    8  A    between atoms: C_15  and  O_26
REMARK    9  A    between atoms: C_17  and  O_18
REMARK   10  A    between atoms: O_18  and  C_19
REMARK                            x       y       z     vdW  Elec       q    Type
REMARK                         _______ _______ _______ _____ _____    ______ ____
ROOT
ATOM      1  S   UNL     1       2.911   4.597   0.355  0.00  0.00    -0.082 S 
ENDROOT
BRANCH   1   3
ATOM      2  N   UNL     1       3.795   7.163  -0.294  0.00  0.00    -0.187 N 
ATOM      3  C   UNL     1       2.783   6.328   0.053  0.00  0.00    +0.214 A 
ATOM      4  N   UNL     1       1.690   7.057   0.128  0.00  0.00    -0.101 NA
ATOM      5  N   UNL     1       1.947   8.284  -0.153  0.00  0.00    -0.022 NA
ATOM      6  N   UNL     1       3.199   8.430  -0.423  0.00  0.00    -0.038 NA
BRANCH   2  12
ATOM      7  C   UNL     1       7.867   4.903   1.288  0.00  0.00    +0.044 C 
ATOM      8  C   UNL     1       7.141   5.739   0.266  0.00  0.00    -0.048 A 
ATOM      9  C   UNL     1       7.806   6.182  -0.863  0.00  0.00    +0.004 A 
ATOM     10  C   UNL     1       7.144   6.949  -1.803  0.00  0.00    +0.006 A 
ATOM     11  C   UNL     1       5.814   7.276  -1.617  0.00  0.00    -0.025 A 
ATOM     12  C   UNL     1       5.144   6.833  -0.485  0.00  0.00    +0.073 A 
ATOM     13  C   UNL     1       5.814   6.068   0.460  0.00  0.00    +0.031 A 
ATOM     14  C   UNL     1       5.093   8.113  -2.642  0.00  0.00    +0.046 C 
ENDBRANCH   2  12
ENDBRANCH   1   3
BRANCH   1  15
ATOM     15  C   UNL     1       1.187   4.221   0.759  0.00  0.00    +0.112 C 
BRANCH  15  16
ATOM     16  C   UNL     1       1.049   2.728   1.067  0.00  0.00    +0.162 C 
BRANCH  16  17
ATOM     17  O   UNL     1       1.791   2.416   2.248  0.00  0.00    -0.388 OA
ATOM     18  H   UNL     1       1.811   1.383   2.627  0.00  0.00    +0.210 HD
ENDBRANCH  16  17
BRANCH  16  19
ATOM     19  C   UNL     1      -0.426   2.387   1.287  0.00  0.00    +0.261 C 
BRANCH  19  20
ATOM     20  O   UNL     1      -0.567   0.975   1.459  0.00  0.00    -0.489 OA
BRANCH  20  21
ATOM     21  C   UNL     1      -1.825   0.502   1.666  0.00  0.00    +0.121 A 
ATOM     22  C   UNL     1      -2.899   1.379   1.708  0.00  0.00    +0.047 A 
ATOM     23  C   UNL     1      -4.176   0.895   1.913  0.00  0.00    +0.023 A 
ATOM     24  C   UNL     1      -4.383  -0.462   2.088  0.00  0.00    +0.041 A 
ATOM     25  C   UNL     1      -3.313  -1.337   2.051  0.00  0.00    +0.023 A 
ATOM     26  C   UNL     1      -2.034  -0.858   1.841  0.00  0.00    +0.047 A 
ATOM     27 CL   UNL     1      -5.989  -1.066   2.352  0.00  0.00    -0.084 Cl
ENDBRANCH  20  21
ENDBRANCH  19  20
ENDBRANCH  16  19
ENDBRANCH  15  16
ENDBRANCH   1  15
TORSDOF 8
