REMARK  Name = ZINC11780738
REMARK  7 active torsions:
REMARK  status: ('A' for Active; 'I' for Inactive)
REMARK    1  A    between atoms: C_1  and  C_2
REMARK    2  A    between atoms: C_2  and  C_3
REMARK    3  A    between atoms: C_6  and  C_9
REMARK    4  A    between atoms: C_11  and  C_14
REMARK    5  A    between atoms: C_14  and  S_15
REMARK    6  A    between atoms: S_15  and  C_16
REMARK    7  A    between atoms: N_20  and  C_21
REMARK                            x       y       z     vdW  Elec       q    Type
REMARK                         _______ _______ _______ _____ _____    ______ ____
ROOT
ATOM      1  C   UNL     1      -3.657   4.108   4.407  0.00  0.00    +0.176 C 
ENDROOT
BRANCH   1   4
ATOM      2  C   UNL     1      -5.923   6.694   5.454  0.00  0.00    +0.202 A 
ATOM      3  N   UNL     1      -5.621   5.664   4.631  0.00  0.00    -0.191 NA
ATOM      4  C   UNL     1      -4.439   5.246   5.010  0.00  0.00    +0.238 A 
ATOM      5  O   UNL     1      -4.055   6.021   6.029  0.00  0.00    -0.337 OA
ATOM      6  N   UNL     1      -4.913   6.844   6.271  0.00  0.00    -0.056 NA
BRANCH   2  10
ATOM      7  C   UNL     1      -9.483   9.019   5.387  0.00  0.00    -0.048 A 
ATOM      8  C   UNL     1      -8.496   9.297   6.316  0.00  0.00    +0.004 A 
ATOM      9  C   UNL     1      -7.339   8.545   6.342  0.00  0.00    +0.012 A 
ATOM     10  C   UNL     1      -7.165   7.505   5.431  0.00  0.00    +0.022 A 
ATOM     11  C   UNL     1      -8.160   7.234   4.494  0.00  0.00    +0.012 A 
ATOM     12  C   UNL     1      -9.316   7.988   4.480  0.00  0.00    +0.004 A 
BRANCH   7  14
ATOM     13  C   UNL     1     -10.555  11.039   4.427  0.00  0.00    +0.009 C 
ATOM     14  C   UNL     1     -10.744   9.843   5.363  0.00  0.00    +0.032 C 
ENDBRANCH   7  14
ENDBRANCH   2  10
ENDBRANCH   1   4
BRANCH   1  15
ATOM     15  S   UNL     1      -2.612   4.737   3.064  0.00  0.00    -0.076 S 
BRANCH  15  16
ATOM     16  C   UNL     1      -1.774   3.306   2.470  0.00  0.00    +0.194 A 
ATOM     17  N   UNL     1      -1.910   2.086   2.931  0.00  0.00    -0.121 NA
ATOM     18  N   UNL     1      -1.070   1.246   2.187  0.00  0.00    -0.112 NA
ATOM     19  C   UNL     1      -0.448   1.980   1.298  0.00  0.00    +0.221 A 
ATOM     20  N   UNL     1      -0.862   3.273   1.452  0.00  0.00    -0.287 N 
ATOM     21  N   UNL     1       0.474   1.525   0.364  0.00  0.00    -0.300 N 
ATOM     22  C   UNL     1       1.806   2.145   0.585  0.00  0.00    +0.108 C 
ATOM     23  C   UNL     1       2.773   1.176  -0.141  0.00  0.00    +0.020 C 
ATOM     24  C   UNL     1       2.158  -0.211   0.154  0.00  0.00    +0.020 C 
ATOM     25  C   UNL     1       0.682   0.066   0.493  0.00  0.00    +0.108 C 
BRANCH  20  26
ATOM     26  C   UNL     1      -0.411   4.422   0.663  0.00  0.00    +0.093 C 
ATOM     27  C   UNL     1      -0.654   5.817   1.243  0.00  0.00    +0.027 C 
ATOM     28  C   UNL     1      -1.485   5.326   0.055  0.00  0.00    +0.027 C 
ENDBRANCH  20  26
ENDBRANCH  15  16
ENDBRANCH   1  15
TORSDOF 6
