REMARK  Name = ZINC63316057
REMARK  11 active torsions:
REMARK  status: ('A' for Active; 'I' for Inactive)
REMARK    1  A    between atoms: C_1  and  C_2
REMARK    2  A    between atoms: C_2  and  C_4
REMARK    3  A    between atoms: C_2  and  N_17
REMARK    4  A    between atoms: C_4  and  N_6
REMARK    5  A    between atoms: C_18  and  C_20
REMARK    6  A    between atoms: C_25  and  O_34
REMARK    7  A    between atoms: C_26  and  O_32
REMARK    8  A    between atoms: C_27  and  O_30
REMARK    9  A    between atoms: O_30  and  C_31
REMARK   10  A    between atoms: O_32  and  C_33
REMARK   11  A    between atoms: O_34  and  C_35
REMARK                            x       y       z     vdW  Elec       q    Type
REMARK                         _______ _______ _______ _____ _____    ______ ____
ROOT
ATOM      1  N   UNL     1       0.753  -0.568   1.367  0.00  0.00    -0.302 N 
ATOM      2  C   UNL     1       2.095  -0.695   1.358  0.00  0.00    +0.240 C 
ATOM      3  O   UNL     1       2.727  -0.385   0.370  0.00  0.00    -0.273 OA
ATOM      4  H   UNL     1       0.248  -0.817   2.157  0.00  0.00    +0.150 HD
ENDROOT
BRANCH   2   5
ATOM      5  C   UNL     1       2.810  -1.223   2.575  0.00  0.00    +0.190 C 
ATOM      6  C   UNL     1       2.596  -0.294   3.749  0.00  0.00    +0.017 C 
ATOM      7  C   UNL     1       3.822   0.142   4.112  0.00  0.00    +0.004 A 
ATOM      8  C   UNL     1       4.281   1.052   5.168  0.00  0.00    +0.059 A 
ATOM      9  C   UNL     1       5.603   1.311   5.300  0.00  0.00    +0.166 A 
ATOM     10  C   UNL     1       6.571   0.734   4.452  0.00  0.00    +0.206 A 
ATOM     11  C   UNL     1       6.243  -0.119   3.447  0.00  0.00    +0.189 A 
ATOM     12  C   UNL     1       4.837  -0.466   3.219  0.00  0.00    +0.089 A 
ATOM     13  N   UNL     1       4.258  -1.249   2.338  0.00  0.00    -0.367 N 
ATOM     14  H   UNL     1       4.711  -1.759   1.648  0.00  0.00    +0.161 HD
BRANCH  11  15
ATOM     15  O   UNL     1       7.215  -0.650   2.656  0.00  0.00    -0.489 OA
ATOM     16  C   UNL     1       7.489   0.022   1.425  0.00  0.00    +0.277 C 
ENDBRANCH  11  15
BRANCH  10  17
ATOM     17  O   UNL     1       7.879   1.044   4.647  0.00  0.00    -0.488 OA
ATOM     18  C   UNL     1       8.645   0.147   5.455  0.00  0.00    +0.277 C 
ENDBRANCH  10  17
BRANCH   9  19
ATOM     19  O   UNL     1       6.011   2.157   6.283  0.00  0.00    -0.491 OA
ATOM     20  C   UNL     1       4.996   2.718   7.118  0.00  0.00    +0.277 C 
ENDBRANCH   9  19
ENDBRANCH   2   5
BRANCH   1  22
ATOM     21  C   UNL     1       0.056   1.474   0.217  0.00  0.00    +0.038 C 
ATOM     22  C   UNL     1       0.058  -0.055   0.184  0.00  0.00    +0.158 C 
BRANCH  22  23
ATOM     23  C   UNL     1      -1.363  -0.559   0.179  0.00  0.00    +0.258 C 
ATOM     24  O   UNL     1      -1.756  -1.278   1.077  0.00  0.00    -0.272 OA
BRANCH  23  25
ATOM     25  N   UNL     1      -2.185  -0.218  -0.808  0.00  0.00    -0.155 NA
ATOM     26  C   UNL     1      -3.405  -0.745  -0.870  0.00  0.00    +0.164 A 
ATOM     27  N   UNL     1      -4.011  -1.551   0.039  0.00  0.00    -0.335 N 
ATOM     28  H   UNL     1      -3.544  -1.805   0.851  0.00  0.00    +0.168 HD
ATOM     29  C   UNL     1      -5.294  -2.008  -0.194  0.00  0.00    +0.055 A 
ATOM     30  C   UNL     1      -6.097  -2.838   0.601  0.00  0.00    +0.027 A 
ATOM     31  C   UNL     1      -7.363  -3.186   0.193  0.00  0.00    +0.002 A 
ATOM     32  C   UNL     1      -7.881  -2.730  -1.008  0.00  0.00    +0.001 A 
ATOM     33  C   UNL     1      -7.109  -1.909  -1.811  0.00  0.00    +0.017 A 
ATOM     34  C   UNL     1      -5.843  -1.560  -1.404  0.00  0.00    +0.039 A 
ATOM     35  S   UNL     1      -4.548  -0.558  -2.088  0.00  0.00    -0.052 S 
ENDBRANCH  23  25
ENDBRANCH  22  23
ENDBRANCH   1  22
TORSDOF 7
