REMARK  Name = ZINC15354173
REMARK  7 active torsions:
REMARK  status: ('A' for Active; 'I' for Inactive)
REMARK    1  A    between atoms: C_1  and  C_2
REMARK    2  A    between atoms: C_2  and  C_17
REMARK    3  A    between atoms: N_3  and  N_4
REMARK    4  A    between atoms: C_5  and  C_7
REMARK    5  A    between atoms: C_9  and  N_15
REMARK    6  A    between atoms: C_17  and  C_18
REMARK    7  A    between atoms: C_18  and  C_19
REMARK                            x       y       z     vdW  Elec       q    Type
REMARK                         _______ _______ _______ _____ _____    ______ ____
ROOT
ATOM      1  N   UNL     1      -0.171   4.120   0.026  0.00  0.00    -0.202 N 
ATOM      2  C   UNL     1       1.029   3.506   0.011  0.00  0.00    +0.283 C 
ATOM      3  O   UNL     1       2.050   4.167   0.005  0.00  0.00    -0.267 OA
ATOM      4  H   UNL     1      -1.094   3.523   0.031  0.00  0.00    +0.178 HD
ENDROOT
BRANCH   2   5
ATOM      5  C   UNL     1       1.104   2.029   0.002  0.00  0.00    +0.149 A 
ATOM      6  C   UNL     1       2.347   1.401  -0.013  0.00  0.00    +0.094 A 
ATOM      7  C   UNL     1       2.400   0.007  -0.020  0.00  0.00    +0.067 A 
ATOM      8  C   UNL     1       1.200  -0.701  -0.013  0.00  0.00    +0.100 A 
ATOM      9  C   UNL     1       0.002  -0.004   0.002  0.00  0.00    +0.150 A 
ATOM     10  N   UNL     1      -0.016   1.313   0.009  0.00  0.00    -0.228 NA
ATOM     11 CL   UNL     1      -1.497  -0.880   0.012  0.00  0.00    -0.060 Cl
ATOM     12 CL   UNL     1       1.205  -2.437  -0.022  0.00  0.00    -0.078 Cl
ATOM     13 CL   UNL     1       3.808   2.339  -0.022  0.00  0.00    -0.079 Cl
BRANCH   7  14
ATOM     14  N   UNL     1       3.623  -0.661  -0.036  0.00  0.00    -0.356 N 
ATOM     15  H   UNL     1       3.649  -1.760  -0.041  0.00  0.00    +0.142 HD
ATOM     16  H   UNL     1       4.562  -0.088  -0.042  0.00  0.00    +0.142 HD
ENDBRANCH   7  14
ENDBRANCH   2   5
BRANCH   1  19
ATOM     17  C   UNL     1      -2.646   5.284   0.056  0.00  0.00    +0.062 C 
ATOM     18  C   UNL     1      -1.381   6.103   0.048  0.00  0.00    +0.034 C 
ATOM     19  N   UNL     1      -0.241   5.520   0.034  0.00  0.00    -0.189 NA
BRANCH  18  20
ATOM     20  C   UNL     1      -1.457   7.608   0.057  0.00  0.00    +0.057 C 
BRANCH  20  21
ATOM     21  C   UNL     1      -2.104   8.093  -1.242  0.00  0.00    +0.041 C 
BRANCH  21  22
ATOM     22  C   UNL     1      -2.181   9.598  -1.233  0.00  0.00    -0.043 A 
ATOM     23  C   UNL     1      -3.298  10.229  -0.718  0.00  0.00    +0.007 A 
ATOM     24  C   UNL     1      -3.370  11.610  -0.702  0.00  0.00    +0.050 A 
ATOM     25  C   UNL     1      -2.327  12.364  -1.215  0.00  0.00    +0.166 A 
ATOM     26  C   UNL     1      -1.204  11.729  -1.739  0.00  0.00    +0.166 A 
ATOM     27  C   UNL     1      -1.136  10.345  -1.745  0.00  0.00    +0.053 A 
ATOM     28  O   UNL     1      -0.328  12.680  -2.175  0.00  0.00    -0.453 OA
ATOM     29  C   UNL     1      -1.099  13.891  -2.287  0.00  0.00    +0.466 C 
ATOM     30  O   UNL     1      -2.155  13.714  -1.323  0.00  0.00    -0.453 OA
ENDBRANCH  21  22
ENDBRANCH  20  21
ENDBRANCH  18  20
ENDBRANCH   1  19
TORSDOF 6
