REMARK  Name = ZINC06408845
REMARK  8 active torsions:
REMARK  status: ('A' for Active; 'I' for Inactive)
REMARK    1  A    between atoms: C_1  and  C_2
REMARK    2  A    between atoms: C_9  and  C_14
REMARK    3  A    between atoms: C_14  and  C_16
REMARK    4  A    between atoms: C_14  and  N_70
REMARK    5  A    between atoms: N_20  and  C_21
REMARK    6  A    between atoms: C_21  and  C_22
REMARK    7  A    between atoms: C_31  and  C_34
REMARK    8  A    between atoms: C_34  and  C_35
REMARK                            x       y       z     vdW  Elec       q    Type
REMARK                         _______ _______ _______ _____ _____    ______ ____
ROOT
ATOM      1  C   UNL     1       0.487  -0.031  -0.207  0.00  0.00    +0.039 C 
ENDROOT
BRANCH   1  10
ATOM      2  C   UNL     1       1.908   6.756  -2.953  0.00  0.00    +0.044 C 
ATOM      3  C   UNL     1       1.555   5.852  -1.800  0.00  0.00    -0.050 A 
ATOM      4  C   UNL     1       1.361   6.393  -0.536  0.00  0.00    +0.005 A 
ATOM      5  C   UNL     1       1.037   5.585   0.533  0.00  0.00    +0.026 A 
ATOM      6  C   UNL     1       0.903   4.213   0.346  0.00  0.00    +0.049 A 
ATOM      7  C   UNL     1       1.101   3.668  -0.937  0.00  0.00    -0.001 A 
ATOM      8  C   UNL     1       1.429   4.508  -2.007  0.00  0.00    +0.013 A 
ATOM      9  C   UNL     1       0.964   2.223  -1.123  0.00  0.00    +0.017 A 
ATOM     10  C   UNL     1       0.641   1.460  -0.049  0.00  0.00    +0.011 A 
ATOM     11  C   UNL     1       0.453   2.056   1.216  0.00  0.00    +0.251 A 
ATOM     12  O   UNL     1       0.167   1.351   2.168  0.00  0.00    -0.268 OA
ATOM     13  N   UNL     1       0.582   3.382   1.397  0.00  0.00    -0.322 N 
ATOM     14  H   UNL     1       0.446   3.759   2.280  0.00  0.00    +0.169 HD
ENDBRANCH   1  10
BRANCH   1  20
ATOM     15  C   UNL     1       2.825  -0.316   0.356  0.00  0.00    -0.077 C 
ATOM     16  C   UNL     1       3.782  -0.935   1.377  0.00  0.00    -0.015 C 
ATOM     17  C   UNL     1       3.652  -2.460   1.331  0.00  0.00    -0.010 C 
ATOM     18  C   UNL     1       2.198  -2.849   1.612  0.00  0.00    -0.015 C 
ATOM     19  C   UNL     1       1.287  -2.175   0.584  0.00  0.00    -0.077 C 
ATOM     20  N   UNL     1       1.440  -0.709   0.696  0.00  0.00    +0.389 N 
ATOM     21  H   UNL     1       1.242  -0.426   1.663  0.00  0.00    -0.080 HD
BRANCH  17  22
ATOM     22  C   UNL     1       4.562  -3.083   2.391  0.00  0.00    +0.038 C 
BRANCH  22  23
ATOM     23  C   UNL     1       6.002  -2.802   2.046  0.00  0.00    -0.047 A 
ATOM     24  C   UNL     1       6.710  -3.689   1.257  0.00  0.00    +0.003 A 
ATOM     25  C   UNL     1       8.029  -3.429   0.936  0.00  0.00    +0.000 A 
ATOM     26  C   UNL     1       8.643  -2.287   1.412  0.00  0.00    +0.000 A 
ATOM     27  C   UNL     1       7.938  -1.401   2.206  0.00  0.00    +0.000 A 
ATOM     28  C   UNL     1       6.617  -1.659   2.523  0.00  0.00    +0.003 A 
ENDBRANCH  22  23
ENDBRANCH  17  22
ENDBRANCH   1  20
BRANCH   1  29
ATOM     29  C   UNL     1       0.751  -0.415  -1.640  0.00  0.00    +0.143 A 
ATOM     30  N   UNL     1       1.907  -0.382  -2.259  0.00  0.00    -0.115 NA
ATOM     31  N   UNL     1       1.721  -0.786  -3.469  0.00  0.00    -0.023 NA
ATOM     32  N   UNL     1       0.477  -1.067  -3.640  0.00  0.00    -0.044 NA
ATOM     33  N   UNL     1      -0.154  -0.851  -2.535  0.00  0.00    -0.226 N 
BRANCH  33  34
ATOM     34  C   UNL     1      -1.587  -1.045  -2.300  0.00  0.00    +0.182 C 
BRANCH  34  35
ATOM     35  C   UNL     1      -2.329   0.217  -2.656  0.00  0.00    -0.026 A 
ATOM     36  C   UNL     1      -2.584   1.167  -1.684  0.00  0.00    +0.008 A 
ATOM     37  C   UNL     1      -3.261   2.327  -2.010  0.00  0.00    +0.038 A 
ATOM     38  C   UNL     1      -3.693   2.533  -3.310  0.00  0.00    +0.123 A 
ATOM     39  C   UNL     1      -3.442   1.579  -4.282  0.00  0.00    +0.038 A 
ATOM     40  C   UNL     1      -2.760   0.422  -3.954  0.00  0.00    +0.008 A 
ATOM     41  F   UNL     1      -4.359   3.664  -3.629  0.00  0.00    -0.205 F 
ENDBRANCH  34  35
ENDBRANCH  33  34
ENDBRANCH   1  29
TORSDOF 7
