REMARK  Name = ZINC09090704
REMARK  5 active torsions:
REMARK  status: ('A' for Active; 'I' for Inactive)
REMARK    1  A    between atoms: C_1  and  C_2
REMARK    2  A    between atoms: C_2  and  C_4
REMARK    3  A    between atoms: C_2  and  N_20
REMARK    4  A    between atoms: N_6  and  N_7
REMARK    5  A    between atoms: C_21  and  C_23
REMARK                            x       y       z     vdW  Elec       q    Type
REMARK                         _______ _______ _______ _____ _____    ______ ____
ROOT
ATOM      1  C   UNL     1       0.702  -0.387   1.283  0.00  0.00    +0.252 C 
ATOM      2  O   UNL     1       0.073  -0.870   2.200  0.00  0.00    -0.272 OA
ATOM      3  N   UNL     1       2.036  -0.230   1.390  0.00  0.00    -0.205 N 
ATOM      4  H   UNL     1       2.539   0.158   0.657  0.00  0.00    +0.177 HD
ENDROOT
BRANCH   3   5
ATOM      5  N   UNL     1       2.696  -0.625   2.561  0.00  0.00    -0.174 NA
ATOM      6  C   UNL     1       3.974  -0.375   2.709  0.00  0.00    +0.153 C 
ATOM      7  C   UNL     1       4.835   0.466   1.845  0.00  0.00    +0.031 A 
ATOM      8  C   UNL     1       4.594   1.204   0.691  0.00  0.00    +0.032 A 
ATOM      9  C   UNL     1       5.626   1.903   0.097  0.00  0.00    +0.043 A 
ATOM     10  C   UNL     1       6.897   1.869   0.649  0.00  0.00    +0.042 A 
ATOM     11  C   UNL     1       7.145   1.139   1.795  0.00  0.00    +0.064 A 
ATOM     12  C   UNL     1       6.117   0.429   2.407  0.00  0.00    +0.062 A 
ATOM     13  N   UNL     1       6.097  -0.371   3.546  0.00  0.00    -0.278 N 
ATOM     14  C   UNL     1       4.869  -0.865   3.778  0.00  0.00    +0.269 C 
ATOM     15  O   UNL     1       4.551  -1.589   4.702  0.00  0.00    -0.268 OA
ATOM     16 CL   UNL     1       8.743   1.108   2.473  0.00  0.00    -0.082 Cl
ATOM     17 CL   UNL     1       5.332   2.826  -1.344  0.00  0.00    -0.083 Cl
ATOM     18  H   UNL     1       6.871  -0.547   4.104  0.00  0.00    +0.155 HD
ENDBRANCH   3   5
BRANCH   1  20
ATOM     19  C   UNL     1       0.207   1.537  -0.201  0.00  0.00    +0.038 C 
ATOM     20  C   UNL     1      -0.008   0.039   0.024  0.00  0.00    +0.157 C 
BRANCH  20  21
ATOM     21  N   UNL     1      -1.441  -0.234   0.155  0.00  0.00    -0.304 N 
ATOM     22  C   UNL     1      -2.195  -0.423  -0.946  0.00  0.00    +0.220 C 
ATOM     23  O   UNL     1      -1.687  -0.366  -2.046  0.00  0.00    -0.275 OA
ATOM     24  H   UNL     1      -1.848  -0.279   1.035  0.00  0.00    +0.149 HD
BRANCH  22  25
ATOM     25  C   UNL     1      -3.670  -0.704  -0.811  0.00  0.00    +0.048 C 
ATOM     26  C   UNL     1      -4.348   0.466  -0.095  0.00  0.00    +0.019 C 
ATOM     27  C   UNL     1      -5.845   0.180   0.043  0.00  0.00    -0.009 C 
ATOM     28  C   UNL     1      -6.461   0.007  -1.347  0.00  0.00    +0.007 C 
ATOM     29  C   UNL     1      -5.782  -1.162  -2.063  0.00  0.00    -0.009 C 
ATOM     30  C   UNL     1      -4.285  -0.877  -2.201  0.00  0.00    +0.019 C 
ATOM     31  C   UNL     1      -5.985  -2.443  -1.253  0.00  0.00    +0.007 C 
ATOM     32  C   UNL     1      -5.369  -2.270   0.137  0.00  0.00    -0.009 C 
ATOM     33  C   UNL     1      -6.048  -1.101   0.854  0.00  0.00    +0.007 C 
ATOM     34  C   UNL     1      -3.872  -1.985  -0.000  0.00  0.00    +0.019 C 
ENDBRANCH  22  25
ENDBRANCH  20  21
ENDBRANCH   1  20
TORSDOF 4
