REMARK  Name = ZINC00927105
REMARK  12 active torsions:
REMARK  status: ('A' for Active; 'I' for Inactive)
REMARK    1  A    between atoms: C_1  and  C_2
REMARK    2  A    between atoms: C_2  and  C_3
REMARK    3  A    between atoms: C_3  and  C_4
REMARK    4  A    between atoms: C_3  and  C_5
REMARK    5  A    between atoms: C_3  and  N_6
REMARK    6  A    between atoms: C_7  and  C_11
REMARK    7  A    between atoms: C_11  and  N_65
REMARK    8  A    between atoms: C_12  and  C_13
REMARK    9  A    between atoms: C_12  and  N_65
REMARK   10  A    between atoms: C_17  and  C_26
REMARK   11  A    between atoms: C_18  and  C_25
REMARK   12  A    between atoms: C_27  and  N_65
REMARK                            x       y       z     vdW  Elec       q    Type
REMARK                         _______ _______ _______ _____ _____    ______ ____
ROOT
ATOM      1  N   UNL     1      -5.566   3.750  -1.114  0.00  0.00    +0.389 N 
ATOM      2  H   UNL     1      -5.649   2.806  -1.510  0.00  0.00    -0.080 HD
ENDROOT
BRANCH   1   3
ATOM      3  C   UNL     1      -4.338   4.385  -1.637  0.00  0.00    -0.068 C 
ATOM      4  C   UNL     1      -4.464   4.574  -3.163  0.00  0.00    -0.015 C 
ATOM      5  C   UNL     1      -3.044   4.271  -3.701  0.00  0.00    -0.002 C 
ATOM      6  C   UNL     1      -2.580   3.099  -2.802  0.00  0.00    -0.002 C 
ATOM      7  C   UNL     1      -3.141   3.446  -1.408  0.00  0.00    -0.015 C 
ENDBRANCH   1   3
BRANCH   1   8
ATOM      8  C   UNL     1      -6.751   4.541  -1.507  0.00  0.00    +0.001 C 
BRANCH   8  10
ATOM      9  N   UNL     1      -7.727   3.185  -3.435  0.00  0.00    -0.226 N 
ATOM     10  C   UNL     1      -7.065   4.253  -2.953  0.00  0.00    +0.136 A 
ATOM     11  N   UNL     1      -6.751   4.998  -3.985  0.00  0.00    -0.115 NA
ATOM     12  N   UNL     1      -7.190   4.413  -5.046  0.00  0.00    -0.023 NA
ATOM     13  N   UNL     1      -7.783   3.319  -4.717  0.00  0.00    -0.043 NA
BRANCH   9  14
ATOM     14  C   UNL     1      -8.280   2.078  -2.651  0.00  0.00    +0.061 C 
ATOM     15  C   UNL     1      -7.170   1.443  -1.811  0.00  0.00    +0.036 C 
ATOM     16  C   UNL     1      -9.380   2.607  -1.727  0.00  0.00    +0.036 C 
BRANCH  14  18
ATOM     17  C   UNL     1      -9.447  -0.128  -2.777  0.00  0.00    +0.006 C 
ATOM     18  C   UNL     1      -8.869   1.028  -3.595  0.00  0.00    +0.026 C 
ENDBRANCH  14  18
ENDBRANCH   9  14
ENDBRANCH   8  10
ENDBRANCH   1   8
BRANCH   1  19
ATOM     19  C   UNL     1      -5.494   3.647   0.359  0.00  0.00    -0.037 C 
BRANCH  19  20
ATOM     20  C   UNL     1      -4.514   2.562   0.721  0.00  0.00    +0.001 A 
ATOM     21  C   UNL     1      -3.252   2.888   1.098  0.00  0.00    +0.017 A 
ATOM     22  C   UNL     1      -2.323   1.810   1.438  0.00  0.00    -0.001 A 
ATOM     23  C   UNL     1      -1.005   2.083   1.817  0.00  0.00    +0.013 A 
ATOM     24  C   UNL     1      -0.162   1.055   2.128  0.00  0.00    -0.047 A 
ATOM     25  C   UNL     1      -0.602  -0.261   2.071  0.00  0.00    -0.046 A 
ATOM     26  C   UNL     1      -1.896  -0.554   1.700  0.00  0.00    +0.030 A 
ATOM     27  C   UNL     1      -2.771   0.477   1.374  0.00  0.00    +0.049 A 
ATOM     28  N   UNL     1      -4.070   0.212   0.994  0.00  0.00    -0.322 N 
ATOM     29  H   UNL     1      -4.388  -0.735   0.953  0.00  0.00    +0.169 HD
ATOM     30  C   UNL     1      -4.915   1.209   0.678  0.00  0.00    +0.251 A 
ATOM     31  O   UNL     1      -6.056   0.938   0.347  0.00  0.00    -0.268 OA
ATOM     32  C   UNL     1       0.346  -1.380   2.419  0.00  0.00    +0.044 C 
ATOM     33  C   UNL     1       1.258   1.350   2.537  0.00  0.00    +0.044 C 
ENDBRANCH  19  20
ENDBRANCH   1  19
TORSDOF 7
