REMARK  Name = ZINC38805676
REMARK  4 active torsions:
REMARK  status: ('A' for Active; 'I' for Inactive)
REMARK    1  A    between atoms: C_1  and  C_2
REMARK    2  A    between atoms: C_10  and  N_15
REMARK    3  A    between atoms: C_11  and  C_12
REMARK    4  A    between atoms: C_16  and  C_18
REMARK                            x       y       z     vdW  Elec       q    Type
REMARK                         _______ _______ _______ _____ _____    ______ ____
ROOT
ATOM      1  C   UNL     1      -0.023   1.503   0.011  0.00  0.00    +0.109 C 
ATOM      2  C   UNL     1       0.002  -0.004   0.002  0.00  0.00    +0.213 C 
ATOM      3  O   UNL     1       0.116  -0.615   1.044  0.00  0.00    -0.276 OA
ATOM      4  N   UNL     1      -0.102  -0.673  -1.163  0.00  0.00    -0.297 N 
ATOM      5  C   UNL     1      -0.200  -2.140  -1.194  0.00  0.00    +0.113 C 
ATOM      6  C   UNL     1      -1.560  -2.551  -1.762  0.00  0.00    +0.056 C 
ATOM      7  C   UNL     1      -1.832  -1.757  -3.031  0.00  0.00    -0.020 A 
ATOM      8  C   UNL     1      -1.174  -0.609  -3.302  0.00  0.00    +0.013 A 
ATOM      9  S   UNL     1      -1.827  -0.069  -4.854  0.00  0.00    -0.076 S 
ATOM     10  C   UNL     1      -2.926  -1.305  -5.147  0.00  0.00    +0.085 A 
ATOM     11  C   UNL     1      -2.796  -2.140  -4.048  0.00  0.00    +0.068 A 
ATOM     12  C   UNL     1      -0.127   0.041  -2.456  0.00  0.00    +0.150 C 
ENDROOT
BRANCH  11  13
ATOM     13  C   UNL     1      -3.597  -3.361  -3.919  0.00  0.00    +0.244 C 
ATOM     14  O   UNL     1      -4.679  -3.322  -3.361  0.00  0.00    -0.270 OA
ATOM     15  N   UNL     1      -3.137  -4.526  -4.417  0.00  0.00    -0.325 N 
ATOM     16  H   UNL     1      -2.275  -4.556  -4.861  0.00  0.00    +0.145 HD
ATOM     17  H   UNL     1      -3.667  -5.333  -4.331  0.00  0.00    +0.145 HD
ENDBRANCH  11  13
BRANCH  10  18
ATOM     18  N   UNL     1      -3.769  -1.455  -6.236  0.00  0.00    -0.275 N 
ATOM     19  C   UNL     1      -3.764  -0.537  -7.223  0.00  0.00    +0.251 C 
ATOM     20  O   UNL     1      -3.019   0.423  -7.158  0.00  0.00    -0.270 OA
ATOM     21  H   UNL     1      -4.362  -2.220  -6.288  0.00  0.00    +0.156 HD
BRANCH  19  22
ATOM     22  C   UNL     1      -4.657  -0.696  -8.378  0.00  0.00    +0.062 A 
ATOM     23  C   UNL     1      -5.547  -1.708  -8.589  0.00  0.00    +0.096 A 
ATOM     24  N   UNL     1      -6.193  -1.513  -9.764  0.00  0.00    -0.360 N 
ATOM     25  H   UNL     1      -6.872  -2.103 -10.126  0.00  0.00    +0.165 HD
ATOM     26  C   UNL     1      -5.749  -0.357 -10.371  0.00  0.00    +0.047 A 
ATOM     27  C   UNL     1      -4.775   0.211  -9.534  0.00  0.00    +0.012 A 
ATOM     28  C   UNL     1      -4.150   1.401  -9.898  0.00  0.00    +0.011 A 
ATOM     29  C   UNL     1      -4.495   2.020 -11.080  0.00  0.00    +0.001 A 
ATOM     30  C   UNL     1      -5.460   1.462 -11.906  0.00  0.00    +0.002 A 
ATOM     31  C   UNL     1      -6.080   0.280 -11.563  0.00  0.00    +0.026 A 
ENDBRANCH  19  22
ENDBRANCH  10  18
TORSDOF 3
