REMARK  Name = ZINC60274179
REMARK  8 active torsions:
REMARK  status: ('A' for Active; 'I' for Inactive)
REMARK    1  A    between atoms: C_1  and  C_2
REMARK    2  A    between atoms: C_5  and  C_7
REMARK    3  A    between atoms: C_9  and  C_12
REMARK    4  A    between atoms: C_12  and  C_13
REMARK    5  A    between atoms: N_15  and  C_16
REMARK    6  A    between atoms: C_20  and  C_23
REMARK    7  A    between atoms: C_21  and  C_22
REMARK    8  A    between atoms: N_25  and  C_26
REMARK                            x       y       z     vdW  Elec       q    Type
REMARK                         _______ _______ _______ _____ _____    ______ ____
ROOT
ATOM      1  C   UNL     1       7.067  -2.521  -2.357  0.00  0.00    +0.037 A 
ATOM      2  C   UNL     1       6.251  -1.876  -3.279  0.00  0.00    +0.023 A 
ATOM      3  C   UNL     1       6.769  -1.446  -4.486  0.00  0.00    +0.003 A 
ATOM      4  C   UNL     1       8.101  -1.653  -4.784  0.00  0.00    +0.013 A 
ATOM      5  C   UNL     1       8.929  -2.300  -3.865  0.00  0.00    +0.042 A 
ATOM      6  C   UNL     1       8.407  -2.729  -2.644  0.00  0.00    -0.017 A 
ATOM      7  C   UNL     1       9.296  -3.423  -1.644  0.00  0.00    +0.046 C 
ENDROOT
BRANCH   1  10
ATOM      8  C   UNL     1       5.426  -2.377  -0.641  0.00  0.00    +0.223 C 
ATOM      9  O   UNL     1       4.937  -1.420  -1.204  0.00  0.00    -0.275 OA
ATOM     10  N   UNL     1       6.538  -2.955  -1.137  0.00  0.00    -0.285 N 
ATOM     11  H   UNL     1       6.971  -3.672  -0.648  0.00  0.00    +0.155 HD
BRANCH   8  12
ATOM     12  C   UNL     1       4.791  -2.918   0.614  0.00  0.00    +0.152 C 
BRANCH  12  15
ATOM     13  C   UNL     1       2.612  -0.055   1.388  0.00  0.00    +0.144 A 
ATOM     14  N   UNL     1       3.671  -0.798   1.090  0.00  0.00    -0.240 NA
ATOM     15  C   UNL     1       3.572  -2.100   0.953  0.00  0.00    +0.058 A 
ATOM     16  C   UNL     1       2.367  -2.709   1.117  0.00  0.00    +0.071 A 
ATOM     17  S   UNL     1       1.333  -1.300   1.498  0.00  0.00    -0.072 S 
BRANCH  13  22
ATOM     18  C   UNL     1       3.903   4.779   1.707  0.00  0.00    +0.086 C 
ATOM     19  C   UNL     1       3.076   3.519   1.724  0.00  0.00    +0.103 A 
ATOM     20  C   UNL     1       1.755   3.450   1.983  0.00  0.00    +0.045 A 
ATOM     21  C   UNL     1       1.387   2.094   1.894  0.00  0.00    +0.052 A 
ATOM     22  C   UNL     1       2.517   1.400   1.582  0.00  0.00    +0.160 A 
ATOM     23  O   UNL     1       3.532   2.280   1.477  0.00  0.00    -0.458 OA
ENDBRANCH  13  22
ENDBRANCH  12  15
ENDBRANCH   8  12
ENDBRANCH   1  10
BRANCH   5  24
ATOM     24  C   UNL     1      10.355  -2.524  -4.182  0.00  0.00    +0.249 C 
ATOM     25  O   UNL     1      11.044  -3.197  -3.439  0.00  0.00    -0.270 OA
ATOM     26  N   UNL     1      10.892  -1.984  -5.294  0.00  0.00    -0.281 N 
ATOM     27  H   UNL     1      10.364  -1.384  -5.845  0.00  0.00    +0.155 HD
BRANCH  26  28
ATOM     28  C   UNL     1      12.209  -2.287  -5.653  0.00  0.00    +0.034 A 
ATOM     29  C   UNL     1      12.732  -3.545  -5.384  0.00  0.00    +0.023 A 
ATOM     30  C   UNL     1      14.033  -3.841  -5.740  0.00  0.00    +0.002 A 
ATOM     31  C   UNL     1      14.815  -2.886  -6.364  0.00  0.00    +0.000 A 
ATOM     32  C   UNL     1      14.298  -1.632  -6.633  0.00  0.00    +0.002 A 
ATOM     33  C   UNL     1      12.995  -1.331  -6.285  0.00  0.00    +0.023 A 
ENDBRANCH  26  28
ENDBRANCH   5  24
TORSDOF 6
