REMARK  Name = ZINC31806455
REMARK  13 active torsions:
REMARK  status: ('A' for Active; 'I' for Inactive)
REMARK    1  A    between atoms: C_1  and  C_2
REMARK    2  A    between atoms: C_2  and  C_3
REMARK    3  A    between atoms: C_2  and  C_4
REMARK    4  A    between atoms: C_2  and  C_5
REMARK    5  A    between atoms: C_8  and  O_11
REMARK    6  A    between atoms: O_11  and  C_12
REMARK    7  A    between atoms: C_12  and  C_13
REMARK    8  A    between atoms: C_13  and  C_14
REMARK    9  A    between atoms: C_14  and  N_15
REMARK   10  A    between atoms: C_17  and  C_24
REMARK   11  A    between atoms: C_19  and  C_22
REMARK   12  A    between atoms: C_24  and  O_26
REMARK   13  A    between atoms: O_26  and  C_27
REMARK                            x       y       z     vdW  Elec       q    Type
REMARK                         _______ _______ _______ _____ _____    ______ ____
ROOT
ATOM      1  C   UNL     1       6.002  -1.582  -6.288  0.00  0.00    +0.128 C 
ENDROOT
BRANCH   1   2
ATOM      2  N   UNL     1       6.523  -2.143  -7.537  0.00  0.00    -0.313 N 
ATOM      3  C   UNL     1       7.104  -3.354  -7.524  0.00  0.00    +0.104 A 
ATOM      4  C   UNL     1       7.610  -3.926  -8.675  0.00  0.00    +0.077 A 
ATOM      5  C   UNL     1       7.525  -3.242  -9.904  0.00  0.00    +0.040 A 
ATOM      6  C   UNL     1       6.927  -1.989  -9.930  0.00  0.00    +0.117 A 
ATOM      7  C   UNL     1       6.405  -1.437  -8.678  0.00  0.00    +0.269 A 
ATOM      8  O   UNL     1       5.870  -0.342  -8.667  0.00  0.00    -0.266 OA
BRANCH   6   9
ATOM      9  C   UNL     1       6.818  -1.255 -11.155  0.00  0.00    +0.105 C 
ATOM     10  N   UNL     1       6.732  -0.673 -12.127  0.00  0.00    -0.191 NA
ENDBRANCH   6   9
BRANCH   4  11
ATOM     11  C   UNL     1       8.240  -5.258  -8.617  0.00  0.00    +0.340 C 
ATOM     12  O   UNL     1       8.314  -5.849  -7.558  0.00  0.00    -0.245 OA
BRANCH  11  13
ATOM     13  O   UNL     1       8.735  -5.818  -9.739  0.00  0.00    -0.464 OA
ATOM     14  C   UNL     1       9.332  -7.110  -9.609  0.00  0.00    +0.280 C 
ENDBRANCH  11  13
ENDBRANCH   4  11
ENDBRANCH   1   2
BRANCH   1  15
ATOM     15  C   UNL     1       4.544  -2.009  -6.106  0.00  0.00    +0.063 C 
BRANCH  15  16
ATOM     16  C   UNL     1       4.000  -1.423  -4.801  0.00  0.00    +0.231 C 
BRANCH  16  17
ATOM     17  O   UNL     1       2.639  -1.822  -4.631  0.00  0.00    -0.492 OA
BRANCH  17  21
ATOM     18  C   UNL     1       0.707  -0.490  -1.238  0.00  0.00    -0.042 A 
ATOM     19  C   UNL     1       0.035  -1.284  -2.148  0.00  0.00    +0.008 A 
ATOM     20  C   UNL     1       0.679  -1.732  -3.285  0.00  0.00    +0.046 A 
ATOM     21  C   UNL     1       2.002  -1.383  -3.514  0.00  0.00    +0.121 A 
ATOM     22  C   UNL     1       2.675  -0.585  -2.599  0.00  0.00    +0.046 A 
ATOM     23  C   UNL     1       2.024  -0.136  -1.466  0.00  0.00    +0.008 A 
BRANCH  18  25
ATOM     24  C   UNL     1      -0.019   1.526   0.010  0.00  0.00    +0.015 C 
ATOM     25  C   UNL     1       0.002  -0.004   0.002  0.00  0.00    -0.013 C 
ATOM     26  C   UNL     1       0.742  -0.511   1.242  0.00  0.00    +0.015 C 
ATOM     27  C   UNL     1      -1.433  -0.534   0.013  0.00  0.00    +0.015 C 
ENDBRANCH  18  25
ENDBRANCH  17  21
ENDBRANCH  16  17
ENDBRANCH  15  16
ENDBRANCH   1  15
TORSDOF 9
