REMARK  Name = ZINC13218883
REMARK  12 active torsions:
REMARK  status: ('A' for Active; 'I' for Inactive)
REMARK    1  A    between atoms: C_1  and  C_2
REMARK    2  A    between atoms: C_2  and  N_3
REMARK    3  A    between atoms: C_7  and  C_30
REMARK    4  A    between atoms: C_11  and  C_12
REMARK    5  A    between atoms: C_12  and  S_13
REMARK    6  A    between atoms: S_13  and  C_14
REMARK    7  A    between atoms: C_18  and  C_22
REMARK    8  A    between atoms: C_19  and  C_21
REMARK    9  A    between atoms: N_25  and  C_26
REMARK   10  A    between atoms: C_26  and  C_27
REMARK   11  A    between atoms: C_27  and  C_28
REMARK   12  A    between atoms: C_27  and  C_29
REMARK                            x       y       z     vdW  Elec       q    Type
REMARK                         _______ _______ _______ _____ _____    ______ ____
ROOT
ATOM      1  S   UNL     1      -4.284   3.124   1.242  0.00  0.00    -0.080 S 
ENDROOT
BRANCH   1   2
ATOM      2  C   UNL     1      -5.568   2.553   0.178  0.00  0.00    +0.173 A 
ATOM      3  N   UNL     1      -5.333   2.422  -1.112  0.00  0.00    -0.216 NA
ATOM      4  C   UNL     1      -6.279   1.990  -1.937  0.00  0.00    +0.117 A 
ATOM      5  C   UNL     1      -7.572   1.663  -1.485  0.00  0.00    +0.075 A 
ATOM      6  C   UNL     1      -8.486   1.212  -2.519  0.00  0.00    -0.026 A 
ATOM      7  C   UNL     1      -8.056   1.140  -3.788  0.00  0.00    -0.008 A 
ATOM      8  S   UNL     1      -6.362   1.682  -3.682  0.00  0.00    -0.073 S 
ATOM      9  C   UNL     1      -8.823   0.703  -5.010  0.00  0.00    +0.052 C 
ATOM     10  C   UNL     1      -9.902   0.830  -2.171  0.00  0.00    +0.045 C 
ATOM     11  C   UNL     1      -7.798   1.820  -0.081  0.00  0.00    +0.263 A 
ATOM     12  O   UNL     1      -8.887   1.560   0.401  0.00  0.00    -0.267 OA
ATOM     13  N   UNL     1      -6.793   2.257   0.700  0.00  0.00    -0.287 N 
BRANCH  13  14
ATOM     14  C   UNL     1      -7.020   2.420   2.138  0.00  0.00    +0.130 C 
BRANCH  14  15
ATOM     15  C   UNL     1      -7.521   3.838   2.419  0.00  0.00    +0.003 C 
ATOM     16  C   UNL     1      -8.892   4.032   1.769  0.00  0.00    +0.009 C 
ATOM     17  C   UNL     1      -7.639   4.048   3.930  0.00  0.00    +0.009 C 
ENDBRANCH  14  15
ENDBRANCH  13  14
ENDBRANCH   1   2
BRANCH   1  18
ATOM     18  C   UNL     1      -2.951   3.342   0.037  0.00  0.00    +0.151 C 
BRANCH  18  27
ATOM     19  N   UNL     1      -0.749   3.044   1.275  0.00  0.00    -0.327 N 
ATOM     20  C   UNL     1       0.204   3.870   1.830  0.00  0.00    +0.069 A 
ATOM     21  C   UNL     1       1.397   3.644   2.509  0.00  0.00    +0.029 A 
ATOM     22  C   UNL     1       2.144   4.697   2.949  0.00  0.00    +0.017 A 
ATOM     23  C   UNL     1       1.719   6.014   2.724  0.00  0.00    +0.065 A 
ATOM     24  C   UNL     1       0.532   6.258   2.039  0.00  0.00    +0.045 A 
ATOM     25  C   UNL     1      -0.236   5.185   1.592  0.00  0.00    +0.090 A 
ATOM     26  N   UNL     1      -1.416   5.092   0.925  0.00  0.00    -0.231 NA
ATOM     27  C   UNL     1      -1.715   3.840   0.740  0.00  0.00    +0.121 A 
BRANCH  23  28
ATOM     28  C   UNL     1       2.537   7.144   3.205  0.00  0.00    +0.387 C 
ATOM     29  O   UNL     1       2.170   8.286   3.010  0.00  0.00    -0.241 OA
ATOM     30  O   UNL     1       3.690   6.910   3.860  0.00  0.00    -0.241 OA
ENDBRANCH  23  28
BRANCH  19  32
ATOM     31  C   UNL     1      -0.013   1.086   0.008  0.00  0.00    +0.027 C 
ATOM     32  C   UNL     1      -0.729   1.579   1.267  0.00  0.00    +0.120 C 
ENDBRANCH  19  32
ENDBRANCH  18  27
ENDBRANCH   1  18
TORSDOF 7
