REMARK  Name = ZINC12010342
REMARK  4 active torsions:
REMARK  status: ('A' for Active; 'I' for Inactive)
REMARK    1  A    between atoms: C_4  and  C_32
REMARK    2  A    between atoms: C_5  and  C_7
REMARK    3  A    between atoms: N_9  and  C_10
REMARK    4  A    between atoms: C_12  and  C_27
REMARK                            x       y       z     vdW  Elec       q    Type
REMARK                         _______ _______ _______ _____ _____    ______ ____
ROOT
ATOM      1  C   UNL     1       2.358   1.222  -0.014  0.00  0.00    +0.133 A 
ATOM      2  C   UNL     1       2.522  -0.126  -0.023  0.00  0.00    +0.077 A 
ATOM      3  C   UNL     1       3.908  -0.392  -0.038  0.00  0.00    +0.130 A 
ATOM      4  N   UNL     1       4.548   0.760  -0.037  0.00  0.00    -0.159 NA
ATOM      5  N   UNL     1       3.600   1.791  -0.028  0.00  0.00    -0.184 N 
ATOM      6  C   UNL     1       3.873   3.145  -0.030  0.00  0.00    +0.234 A 
ATOM      7  N   UNL     1       5.166   3.567  -0.045  0.00  0.00    -0.291 N 
ATOM      8  H   UNL     1       5.890   2.922  -0.058  0.00  0.00    +0.172 HD
ATOM      9  C   UNL     1       5.432   4.888  -0.043  0.00  0.00    +0.256 A 
ATOM     10  O   UNL     1       6.585   5.287  -0.059  0.00  0.00    -0.267 OA
ATOM     11  C   UNL     1       4.358   5.806  -0.024  0.00  0.00    +0.038 A 
ATOM     12  C   UNL     1       3.088   5.327  -0.018  0.00  0.00    +0.053 A 
ATOM     13  N   UNL     1       2.881   4.003  -0.024  0.00  0.00    -0.217 NA
ATOM     14  C   UNL     1       1.881   6.227  -0.019  0.00  0.00    +0.056 C 
ATOM     15  C   UNL     1       2.262   7.638   0.422  0.00  0.00    +0.006 C 
ATOM     16  C   UNL     1       3.462   8.099  -0.414  0.00  0.00    +0.005 C 
ATOM     17  C   UNL     1       4.680   7.275  -0.001  0.00  0.00    +0.042 C 
ENDROOT
BRANCH   3  18
ATOM     18  C   UNL     1       4.533  -1.731  -0.050  0.00  0.00    +0.155 A 
ATOM     19  C   UNL     1       5.868  -1.988  -0.070  0.00  0.00    +0.051 A 
ATOM     20  C   UNL     1       6.011  -3.390  -0.073  0.00  0.00    +0.042 A 
ATOM     21  C   UNL     1       4.770  -3.914  -0.064  0.00  0.00    +0.196 A 
ATOM     22  O   UNL     1       3.879  -2.908  -0.051  0.00  0.00    -0.461 OA
ENDBRANCH   3  18
BRANCH   1  25
ATOM     23  C   UNL     1      -0.014   1.212   0.009  0.00  0.00    +0.250 C 
ATOM     24  O   UNL     1       0.002  -0.004   0.002  0.00  0.00    -0.270 OA
ATOM     25  N   UNL     1       1.143   1.901   0.001  0.00  0.00    -0.266 N 
ATOM     26  H   UNL     1       1.130   2.871   0.007  0.00  0.00    +0.157 HD
BRANCH  23  31
ATOM     27  C   UNL     1      -2.534   3.996   0.038  0.00  0.00    +0.001 A 
ATOM     28  C   UNL     1      -3.721   3.285   0.039  0.00  0.00    +0.001 A 
ATOM     29  C   UNL     1      -3.706   1.902   0.030  0.00  0.00    +0.013 A 
ATOM     30  C   UNL     1      -2.505   1.222   0.021  0.00  0.00    +0.067 A 
ATOM     31  C   UNL     1      -1.304   1.933   0.019  0.00  0.00    +0.049 A 
ATOM     32  C   UNL     1      -1.327   3.329   0.032  0.00  0.00    +0.013 A 
BRANCH  30  33
ATOM     33  C   UNL     1      -2.491  -0.285   0.012  0.00  0.00    +0.418 C 
ATOM     34  F   UNL     1      -3.805  -0.764   0.016  0.00  0.00    -0.166 F 
ATOM     35  F   UNL     1      -1.832  -0.739  -1.136  0.00  0.00    -0.166 F 
ATOM     36  F   UNL     1      -1.821  -0.751   1.149  0.00  0.00    -0.166 F 
ENDBRANCH  30  33
ENDBRANCH  23  31
ENDBRANCH   1  25
TORSDOF 4
