REMARK  Name = ZINC03147318
REMARK  6 active torsions:
REMARK  status: ('A' for Active; 'I' for Inactive)
REMARK    1  A    between atoms: C_1  and  C_2
REMARK    2  A    between atoms: C_2  and  C_4
REMARK    3  A    between atoms: C_2  and  O_18
REMARK    4  A    between atoms: N_6  and  N_7
REMARK    5  A    between atoms: C_8  and  C_9
REMARK    6  A    between atoms: O_18  and  C_19
REMARK                            x       y       z     vdW  Elec       q    Type
REMARK                         _______ _______ _______ _____ _____    ______ ____
ROOT
ATOM      1  C   UNL     1      -1.425  -0.751  -0.045  0.00  0.00    +0.273 C 
ATOM      2  O   UNL     1      -1.834  -1.191  -1.099  0.00  0.00    -0.270 OA
ATOM      3  N   UNL     1      -2.232  -0.729   1.035  0.00  0.00    -0.204 N 
ATOM      4  H   UNL     1      -1.905  -0.377   1.877  0.00  0.00    +0.177 HD
ENDROOT
BRANCH   1   6
ATOM      5  C   UNL     1      -0.047   1.274   0.344  0.00  0.00    +0.062 C 
ATOM      6  C   UNL     1      -0.015  -0.229   0.058  0.00  0.00    +0.257 C 
BRANCH   6   7
ATOM      7  O   UNL     1       0.671  -0.465  -1.174  0.00  0.00    -0.480 OA
BRANCH   7   8
ATOM      8  C   UNL     1       2.026  -0.553  -1.118  0.00  0.00    +0.122 A 
ATOM      9  C   UNL     1       2.747  -0.898  -2.252  0.00  0.00    +0.047 A 
ATOM     10  C   UNL     1       4.125  -0.981  -2.195  0.00  0.00    +0.019 A 
ATOM     11  C   UNL     1       4.785  -0.732  -1.005  0.00  0.00    +0.018 A 
ATOM     12  C   UNL     1       4.068  -0.393   0.128  0.00  0.00    +0.019 A 
ATOM     13  C   UNL     1       2.690  -0.303   0.074  0.00  0.00    +0.047 A 
ATOM     14 BR   UNL     1       6.670  -0.853  -0.928  0.00  0.00    -0.050 Br
ENDBRANCH   7   8
ENDBRANCH   6   7
ENDBRANCH   1   6
BRANCH   3  15
ATOM     15  N   UNL     1      -3.543  -1.214   0.939  0.00  0.00    -0.188 NA
ATOM     16  C   UNL     1      -4.319  -1.193   1.979  0.00  0.00    +0.138 C 
BRANCH  16  17
ATOM     17  C   UNL     1      -5.699  -1.703   1.879  0.00  0.00    -0.002 A 
ATOM     18  C   UNL     1      -6.174  -2.205   0.664  0.00  0.00    +0.013 A 
ATOM     19  C   UNL     1      -7.462  -2.687   0.574  0.00  0.00    +0.050 A 
ATOM     20  C   UNL     1      -8.295  -2.666   1.684  0.00  0.00    +0.166 A 
ATOM     21  C   UNL     1      -7.829  -2.161   2.898  0.00  0.00    +0.167 A 
ATOM     22  C   UNL     1      -6.537  -1.681   2.996  0.00  0.00    +0.059 A 
ATOM     23  O   UNL     1      -8.832  -2.252   3.821  0.00  0.00    -0.453 OA
ATOM     24  C   UNL     1      -9.776  -3.190   3.271  0.00  0.00    +0.466 C 
ATOM     25  O   UNL     1      -9.588  -3.072   1.849  0.00  0.00    -0.453 OA
ENDBRANCH  16  17
ENDBRANCH   3  15
TORSDOF 5
