REMARK  Name = ZINC39636591
REMARK  9 active torsions:
REMARK  status: ('A' for Active; 'I' for Inactive)
REMARK    1  A    between atoms: C_1  and  C_2
REMARK    2  A    between atoms: C_2  and  C_3
REMARK    3  A    between atoms: C_3  and  C_5
REMARK    4  A    between atoms: C_3  and  C_11
REMARK    5  A    between atoms: C_15  and  C_24
REMARK    6  A    between atoms: N_26  and  C_27
REMARK    7  A    between atoms: C_27  and  C_28
REMARK    8  A    between atoms: C_30  and  C_35
REMARK    9  A    between atoms: C_33  and  C_34
REMARK                            x       y       z     vdW  Elec       q    Type
REMARK                         _______ _______ _______ _____ _____    ______ ____
ROOT
ATOM      1  C   UNL     1      -1.401  -2.151   0.102  0.00  0.00    +0.223 C 
ATOM      2  O   UNL     1      -1.928  -2.849  -0.738  0.00  0.00    -0.275 OA
ATOM      3  N   UNL     1      -0.847  -2.713   1.194  0.00  0.00    -0.300 N 
ATOM      4  C   UNL     1      -0.170  -2.030   2.322  0.00  0.00    +0.121 C 
ATOM      5  C   UNL     1      -0.626  -2.806   3.578  0.00  0.00    +0.100 C 
ATOM      6  C   UNL     1      -1.021  -4.198   3.058  0.00  0.00    -0.004 C 
ATOM      7  C   UNL     1      -0.781  -4.152   1.542  0.00  0.00    +0.115 C 
ATOM      8  C   UNL     1      -2.494  -4.472   3.345  0.00  0.00    -0.010 C 
ATOM      9  C   UNL     1      -2.848  -5.884   2.870  0.00  0.00    -0.082 C 
ATOM     10  N   UNL     1      -2.003  -6.862   3.566  0.00  0.00    +0.379 N 
ATOM     11  C   UNL     1      -0.595  -6.650   3.211  0.00  0.00    -0.082 C 
ATOM     12  C   UNL     1      -0.145  -5.270   3.700  0.00  0.00    -0.010 C 
ATOM     13  H   UNL     1      -2.117  -6.755   4.563  0.00  0.00    -0.086 HD
ATOM     14  H   UNL     1      -2.279  -7.794   3.297  0.00  0.00    -0.086 HD
ENDROOT
BRANCH   5  15
ATOM     15  C   UNL     1       0.505  -2.914   4.568  0.00  0.00    +0.218 C 
ATOM     16  O   UNL     1       1.651  -2.979   4.175  0.00  0.00    -0.275 OA
ATOM     17  N   UNL     1       0.244  -2.938   5.890  0.00  0.00    -0.311 N 
ATOM     18  H   UNL     1      -0.672  -2.886   6.205  0.00  0.00    +0.149 HD
BRANCH  17  19
ATOM     19  C   UNL     1       1.344  -3.043   6.852  0.00  0.00    +0.139 C 
BRANCH  19  20
ATOM     20  C   UNL     1       0.787  -3.050   8.252  0.00  0.00    -0.027 A 
ATOM     21  C   UNL     1       0.799  -1.892   9.007  0.00  0.00    +0.008 A 
ATOM     22  C   UNL     1       0.289  -1.898  10.291  0.00  0.00    -0.050 A 
ATOM     23  C   UNL     1      -0.234  -3.063  10.822  0.00  0.00    +0.003 A 
ATOM     24  C   UNL     1      -0.247  -4.221  10.067  0.00  0.00    +0.004 A 
ATOM     25  C   UNL     1       0.260  -4.213   8.781  0.00  0.00    -0.046 A 
ATOM     26  C   UNL     1       0.241  -5.475   7.956  0.00  0.00    +0.044 C 
ATOM     27  C   UNL     1       0.303  -0.635  11.114  0.00  0.00    +0.044 C 
ENDBRANCH  19  20
ENDBRANCH  17  19
ENDBRANCH   5  15
BRANCH   1  28
ATOM     28  C   UNL     1      -1.368  -0.655  -0.075  0.00  0.00    +0.105 C 
BRANCH  28  29
ATOM     29  C   UNL     1      -2.050  -0.287  -1.367  0.00  0.00    -0.036 A 
ATOM     30  C   UNL     1      -1.573  -0.781  -2.567  0.00  0.00    +0.004 A 
ATOM     31  C   UNL     1      -2.199  -0.443  -3.752  0.00  0.00    +0.000 A 
ATOM     32  C   UNL     1      -3.303   0.388  -3.738  0.00  0.00    +0.000 A 
ATOM     33  C   UNL     1      -3.781   0.882  -2.538  0.00  0.00    +0.000 A 
ATOM     34  C   UNL     1      -3.158   0.541  -1.353  0.00  0.00    +0.004 A 
ENDBRANCH  28  29
BRANCH  28  36
ATOM     35  C   UNL     1       0.120   1.350  -0.167  0.00  0.00    +0.005 C 
ATOM     36  C   UNL     1       0.086  -0.178  -0.113  0.00  0.00    +0.014 C 
ENDBRANCH  28  36
ENDBRANCH   1  28
TORSDOF 6
