REMARK  Name = ZINC39445733
REMARK  4 active torsions:
REMARK  status: ('A' for Active; 'I' for Inactive)
REMARK    1  A    between atoms: C_1  and  C_2
REMARK    2  A    between atoms: C_4  and  C_11
REMARK    3  A    between atoms: N_13  and  C_14
REMARK    4  A    between atoms: N_19  and  C_21
REMARK                            x       y       z     vdW  Elec       q    Type
REMARK                         _______ _______ _______ _____ _____    ______ ____
ROOT
ATOM      1  C   UNL     1      -1.265  -2.787  -1.374  0.00  0.00    +0.229 C 
ATOM      2  O   UNL     1      -1.543  -1.937  -2.193  0.00  0.00    -0.275 OA
ATOM      3  N   UNL     1      -1.392  -4.092  -1.687  0.00  0.00    -0.313 N 
ATOM      4  H   UNL     1      -1.171  -4.772  -1.032  0.00  0.00    +0.149 HD
ENDROOT
BRANCH   1   8
ATOM      5  C   UNL     1       0.397   1.291   0.082  0.00  0.00    +0.045 C 
ATOM      6  C   UNL     1       0.405  -0.214   0.005  0.00  0.00    -0.033 C 
ATOM      7  C   UNL     1      -0.732  -0.889   0.074  0.00  0.00    -0.000 C 
ATOM      8  C   UNL     1      -0.779  -2.385  -0.005  0.00  0.00    +0.184 C 
ATOM      9  C   UNL     1       0.564  -3.005   0.234  0.00  0.00    +0.233 C 
ATOM     10  O   UNL     1       0.617  -4.181   0.524  0.00  0.00    -0.274 OA
ATOM     11  N   UNL     1       1.709  -2.312   0.139  0.00  0.00    -0.285 N 
ATOM     12  C   UNL     1       1.680  -0.941  -0.153  0.00  0.00    +0.029 C 
ATOM     13  C   UNL     1       2.781  -0.305  -0.560  0.00  0.00    +0.034 C 
ATOM     14  H   UNL     1       2.559  -2.762   0.270  0.00  0.00    +0.155 HD
ENDBRANCH   1   8
BRANCH   3  15
ATOM     15  C   UNL     1      -1.865  -4.483  -3.017  0.00  0.00    +0.056 C 
ATOM     16  C   UNL     1      -0.683  -4.518  -3.990  0.00  0.00    +0.018 C 
ATOM     17  C   UNL     1      -1.175  -5.003  -5.357  0.00  0.00    -0.017 C 
ATOM     18  C   UNL     1      -1.836  -6.374  -5.199  0.00  0.00    -0.078 C 
ATOM     19  N   UNL     1      -2.974  -6.269  -4.277  0.00  0.00    +0.383 N 
ATOM     20  C   UNL     1      -2.502  -5.872  -2.945  0.00  0.00    -0.056 C 
ATOM     21  H   UNL     1      -3.622  -5.576  -4.622  0.00  0.00    -0.081 HD
BRANCH  19  22
ATOM     22  C   UNL     1      -3.652  -7.569  -4.189  0.00  0.00    -0.069 C 
ATOM     23  C   UNL     1      -4.961  -7.396  -3.392  0.00  0.00    -0.015 C 
ATOM     24  C   UNL     1      -5.878  -8.541  -3.725  0.00  0.00    -0.002 C 
ATOM     25  C   UNL     1      -5.757  -9.704  -2.722  0.00  0.00    -0.000 C 
ATOM     26  C   UNL     1      -4.298 -10.001  -2.325  0.00  0.00    -0.000 C 
ATOM     27  C   UNL     1      -3.359  -9.945  -3.499  0.00  0.00    -0.002 C 
ATOM     28  C   UNL     1      -2.750  -8.530  -3.572  0.00  0.00    -0.015 C 
ENDBRANCH  19  22
ENDBRANCH   3  15
TORSDOF 3
