REMARK  Name = ZINC39666624
REMARK  12 active torsions:
REMARK  status: ('A' for Active; 'I' for Inactive)
REMARK    1  A    between atoms: C_1  and  C_2
REMARK    2  A    between atoms: C_2  and  C_4
REMARK    3  A    between atoms: C_2  and  O_33
REMARK    4  A    between atoms: C_4  and  N_5
REMARK    5  A    between atoms: C_6  and  C_8
REMARK    6  A    between atoms: C_19  and  C_21
REMARK    7  A    between atoms: C_21  and  C_23
REMARK    8  A    between atoms: C_21  and  O_26
REMARK    9  A    between atoms: C_23  and  C_24
REMARK   10  A    between atoms: C_23  and  C_25
REMARK   11  A    between atoms: O_26  and  C_27
REMARK   12  A    between atoms: O_33  and  C_34
REMARK                            x       y       z     vdW  Elec       q    Type
REMARK                         _______ _______ _______ _____ _____    ______ ____
ROOT
ATOM      1  C   UNL     1      -2.263  -2.964   0.565  0.00  0.00    +0.100 C 
ATOM      2  C   UNL     1      -1.288  -3.508  -0.503  0.00  0.00    +0.121 C 
ATOM      3  N   UNL     1      -2.037  -4.595  -1.175  0.00  0.00    -0.297 N 
ATOM      4  C   UNL     1      -3.422  -4.076  -1.282  0.00  0.00    +0.115 C 
ATOM      5  C   UNL     1      -3.662  -3.338   0.050  0.00  0.00    -0.004 C 
ATOM      6  C   UNL     1      -4.362  -4.260   1.044  0.00  0.00    -0.010 C 
ATOM      7  C   UNL     1      -5.773  -4.572   0.537  0.00  0.00    -0.082 C 
ATOM      8  N   UNL     1      -6.527  -3.323   0.382  0.00  0.00    +0.379 N 
ATOM      9  C   UNL     1      -5.899  -2.482  -0.643  0.00  0.00    -0.082 C 
ATOM     10  C   UNL     1      -4.493  -2.081  -0.186  0.00  0.00    -0.010 C 
ATOM     11  C   UNL     1      -1.567  -5.786  -1.595  0.00  0.00    +0.257 C 
ATOM     12  O   UNL     1      -2.286  -6.536  -2.220  0.00  0.00    -0.272 OA
ATOM     13  H   UNL     1      -7.474  -3.535   0.107  0.00  0.00    -0.086 HD
ATOM     14  H   UNL     1      -6.539  -2.827   1.261  0.00  0.00    -0.086 HD
ENDROOT
BRANCH   1  16
ATOM     15  N   UNL     1      -2.369  -0.861   1.863  0.00  0.00    -0.312 N 
ATOM     16  C   UNL     1      -2.130  -1.467   0.683  0.00  0.00    +0.218 C 
ATOM     17  O   UNL     1      -1.808  -0.809  -0.283  0.00  0.00    -0.275 OA
ATOM     18  H   UNL     1      -2.627  -1.387   2.635  0.00  0.00    +0.149 HD
BRANCH  15  19
ATOM     19  C   UNL     1      -2.241   0.594   1.977  0.00  0.00    +0.148 C 
BRANCH  19  21
ATOM     20  C   UNL     1      -2.431   2.543   3.529  0.00  0.00    +0.053 C 
ATOM     21  C   UNL     1      -2.565   1.024   3.409  0.00  0.00    +0.187 C 
BRANCH  21  22
ATOM     22  O   UNL     1      -3.903   0.637   3.731  0.00  0.00    -0.486 OA
BRANCH  22  23
ATOM     23  C   UNL     1      -4.151   0.290   5.022  0.00  0.00    +0.139 A 
ATOM     24  C   UNL     1      -3.166   0.447   5.986  0.00  0.00    +0.047 A 
ATOM     25  C   UNL     1      -3.420   0.094   7.297  0.00  0.00    +0.004 A 
ATOM     26  C   UNL     1      -4.657  -0.416   7.649  0.00  0.00    +0.002 A 
ATOM     27  C   UNL     1      -5.641  -0.574   6.691  0.00  0.00    +0.023 A 
ATOM     28  C   UNL     1      -5.393  -0.217   5.379  0.00  0.00    +0.083 A 
ATOM     29 CL   UNL     1      -6.631  -0.408   4.178  0.00  0.00    -0.080 Cl
ENDBRANCH  22  23
ENDBRANCH  21  22
ENDBRANCH  19  21
ENDBRANCH  15  19
ENDBRANCH   1  16
BRANCH  11  30
ATOM     30  C   UNL     1      -0.147  -6.186  -1.287  0.00  0.00    +0.261 C 
BRANCH  30  31
ATOM     31  C   UNL     1      -0.103  -6.918   0.055  0.00  0.00    +0.033 C 
ATOM     32  C   UNL     1       1.350  -7.230   0.419  0.00  0.00    +0.011 C 
ATOM     33  C   UNL     1      -0.722  -6.034   1.139  0.00  0.00    +0.011 C 
ENDBRANCH  30  31
BRANCH  30  34
ATOM     34  O   UNL     1       0.339  -7.049  -2.317  0.00  0.00    -0.479 OA
BRANCH  34  35
ATOM     35  C   UNL     1       1.662  -6.966  -2.619  0.00  0.00    +0.122 A 
ATOM     36  C   UNL     1       2.199  -7.769  -3.615  0.00  0.00    +0.045 A 
ATOM     37  C   UNL     1       3.543  -7.682  -3.920  0.00  0.00    +0.004 A 
ATOM     38  C   UNL     1       4.354  -6.796  -3.234  0.00  0.00    +0.000 A 
ATOM     39  C   UNL     1       3.821  -5.995  -2.241  0.00  0.00    +0.004 A 
ATOM     40  C   UNL     1       2.475  -6.074  -1.936  0.00  0.00    +0.045 A 
ENDBRANCH  34  35
ENDBRANCH  30  34
ENDBRANCH  11  30
TORSDOF 9
