REMARK  Name = ZINC05324897
REMARK  5 active torsions:
REMARK  status: ('A' for Active; 'I' for Inactive)
REMARK    1  A    between atoms: C_4  and  C_7
REMARK    2  A    between atoms: C_9  and  C_12
REMARK    3  A    between atoms: C_12  and  S_13
REMARK    4  A    between atoms: S_13  and  C_14
REMARK    5  A    between atoms: C_17  and  C_19
REMARK                            x       y       z     vdW  Elec       q    Type
REMARK                         _______ _______ _______ _____ _____    ______ ____
ROOT
ATOM      1  S   UNL     1      -0.005  -0.598  -1.708  0.00  0.00    -0.056 S 
ENDROOT
BRANCH   1   2
ATOM      2  C   UNL     1       0.021  -2.337  -1.427  0.00  0.00    +0.278 A 
ATOM      3  N   UNL     1       0.039  -2.936  -0.259  0.00  0.00    -0.101 NA
ATOM      4  N   UNL     1       0.055  -4.211  -0.431  0.00  0.00    -0.106 NA
ATOM      5  C   UNL     1       0.047  -4.478  -1.714  0.00  0.00    +0.249 A 
ATOM      6  O   UNL     1       0.020  -3.297  -2.372  0.00  0.00    -0.411 OA
BRANCH   5   7
ATOM      7  C   UNL     1       0.060  -5.821  -2.329  0.00  0.00    +0.039 A 
ATOM      8  C   UNL     1       0.044  -5.957  -3.718  0.00  0.00    +0.016 A 
ATOM      9  C   UNL     1       0.061  -7.213  -4.286  0.00  0.00    +0.039 A 
ATOM     10  C   UNL     1       0.084  -8.340  -3.480  0.00  0.00    +0.123 A 
ATOM     11  C   UNL     1       0.095  -8.212  -2.100  0.00  0.00    +0.039 A 
ATOM     12  C   UNL     1       0.083  -6.960  -1.522  0.00  0.00    +0.016 A 
ATOM     13  F   UNL     1       0.095  -9.569  -4.042  0.00  0.00    -0.205 F 
ENDBRANCH   5   7
ENDBRANCH   1   2
BRANCH   1  14
ATOM     14  C   UNL     1       0.002  -0.004   0.002  0.00  0.00    +0.177 C 
BRANCH  14  17
ATOM     15  C   UNL     1      -0.618   3.536   0.027  0.00  0.00    +0.202 A 
ATOM     16  N   UNL     1      -1.083   2.266   0.019  0.00  0.00    -0.191 NA
ATOM     17  C   UNL     1      -0.018   1.503   0.010  0.00  0.00    +0.238 A 
ATOM     18  O   UNL     1       1.046   2.311   0.004  0.00  0.00    -0.337 OA
ATOM     19  N   UNL     1       0.688   3.470   0.014  0.00  0.00    -0.056 NA
BRANCH  15  23
ATOM     20  C   UNL     1      -2.966   7.082   0.069  0.00  0.00    +0.000 A 
ATOM     21  C   UNL     1      -1.585   7.170   0.056  0.00  0.00    +0.001 A 
ATOM     22  C   UNL     1      -0.819   6.022   0.043  0.00  0.00    +0.012 A 
ATOM     23  C   UNL     1      -1.437   4.774   0.042  0.00  0.00    +0.022 A 
ATOM     24  C   UNL     1      -2.828   4.691   0.048  0.00  0.00    +0.012 A 
ATOM     25  C   UNL     1      -3.585   5.846   0.068  0.00  0.00    +0.001 A 
ENDBRANCH  15  23
ENDBRANCH  14  17
ENDBRANCH   1  14
TORSDOF 5
