REMARK  Name = ZINC14306255
REMARK  6 active torsions:
REMARK  status: ('A' for Active; 'I' for Inactive)
REMARK    1  A    between atoms: C_6  and  C_7
REMARK    2  A    between atoms: C_7  and  N_8
REMARK    3  A    between atoms: N_11  and  C_12
REMARK    4  A    between atoms: C_12  and  C_13
REMARK    5  A    between atoms: N_15  and  C_16
REMARK    6  A    between atoms: C_19  and  C_22
REMARK                            x       y       z     vdW  Elec       q    Type
REMARK                         _______ _______ _______ _____ _____    ______ ____
ROOT
ATOM      1  C   UNL     1       0.173  -0.301  -0.413  0.00  0.00    +0.234 C 
ATOM      2  O   UNL     1      -0.780  -0.977  -0.739  0.00  0.00    -0.274 OA
ATOM      3  N   UNL     1      -0.011   0.966   0.007  0.00  0.00    -0.284 N 
ATOM      4  H   UNL     1       0.742   1.483   0.332  0.00  0.00    +0.155 HD
ENDROOT
BRANCH   3   5
ATOM      5  C   UNL     1      -1.289   1.532  -0.018  0.00  0.00    +0.033 A 
ATOM      6  C   UNL     1      -1.443   2.883  -0.306  0.00  0.00    +0.024 A 
ATOM      7  C   UNL     1      -2.702   3.443  -0.337  0.00  0.00    +0.013 A 
ATOM      8  C   UNL     1      -3.822   2.655  -0.069  0.00  0.00    +0.019 A 
ATOM      9  C   UNL     1      -3.663   1.299   0.225  0.00  0.00    +0.013 A 
ATOM     10  C   UNL     1      -2.402   0.744   0.249  0.00  0.00    +0.024 A 
BRANCH   8  11
ATOM     11  C   UNL     1      -5.173   3.253  -0.096  0.00  0.00    +0.164 A 
ATOM     12  N   UNL     1      -6.315   2.609  -0.214  0.00  0.00    -0.129 NA
ATOM     13  N   UNL     1      -7.292   3.447  -0.191  0.00  0.00    -0.134 NA
ATOM     14  C   UNL     1      -6.834   4.661  -0.064  0.00  0.00    +0.134 A 
ATOM     15  N   UNL     1      -5.477   4.581  -0.010  0.00  0.00    -0.311 N 
ATOM     16  C   UNL     1      -4.542   5.700   0.105  0.00  0.00    +0.125 C 
ATOM     17  C   UNL     1      -5.227   6.859   0.836  0.00  0.00    +0.022 C 
ATOM     18  C   UNL     1      -5.940   7.757  -0.173  0.00  0.00    +0.002 C 
ATOM     19  C   UNL     1      -7.022   6.977  -0.914  0.00  0.00    +0.008 C 
ATOM     20  C   UNL     1      -7.637   5.933   0.022  0.00  0.00    +0.076 C 
ENDBRANCH   8  11
ENDBRANCH   3   5
BRANCH   1  21
ATOM     21  C   UNL     1       1.563  -0.879  -0.479  0.00  0.00    +0.202 C 
BRANCH  21  25
ATOM     22  N   UNL     1       2.565  -4.251  -1.550  0.00  0.00    -0.295 N 
ATOM     23  C   UNL     1       2.627  -2.980  -1.104  0.00  0.00    +0.300 C 
ATOM     24  O   UNL     1       3.702  -2.484  -0.829  0.00  0.00    -0.253 OA
ATOM     25  N   UNL     1       1.496  -2.260  -0.964  0.00  0.00    -0.291 N 
ATOM     26  H   UNL     1       1.707  -4.647  -1.769  0.00  0.00    +0.151 HD
ATOM     27  H   UNL     1       0.638  -2.655  -1.183  0.00  0.00    +0.151 HD
BRANCH  22  28
ATOM     28  C   UNL     1       3.793  -5.034  -1.703  0.00  0.00    +0.141 C 
BRANCH  28  34
ATOM     29  C   UNL     1       3.192  -7.433  -1.318  0.00  0.00    +0.008 A 
ATOM     30  C   UNL     1       2.873  -8.694  -1.784  0.00  0.00    +0.038 A 
ATOM     31  C   UNL     1       2.825  -8.937  -3.146  0.00  0.00    +0.123 A 
ATOM     32  C   UNL     1       3.090  -7.913  -4.040  0.00  0.00    +0.038 A 
ATOM     33  C   UNL     1       3.403  -6.652  -3.572  0.00  0.00    +0.008 A 
ATOM     34  C   UNL     1       3.451  -6.411  -2.212  0.00  0.00    -0.030 A 
ATOM     35  F   UNL     1       2.518 -10.171  -3.603  0.00  0.00    -0.205 F 
ENDBRANCH  28  34
ENDBRANCH  22  28
ENDBRANCH  21  25
ENDBRANCH   1  21
TORSDOF 6
