REMARK  Name = ZINC09009774
REMARK  5 active torsions:
REMARK  status: ('A' for Active; 'I' for Inactive)
REMARK    1  A    between atoms: C_1  and  C_2
REMARK    2  A    between atoms: C_3  and  C_27
REMARK    3  A    between atoms: C_4  and  C_20
REMARK    4  A    between atoms: C_9  and  C_14
REMARK    5  A    between atoms: C_23  and  O_26
REMARK                            x       y       z     vdW  Elec       q    Type
REMARK                         _______ _______ _______ _____ _____    ______ ____
ROOT
ATOM      1  C   UNL     1       3.524   3.142   0.199  0.00  0.00    +0.066 C 
ATOM      2  C   UNL     1       3.552   1.635   0.188  0.00  0.00    +0.047 C 
ATOM      3  C   UNL     1       2.373   0.962   0.087  0.00  0.00    +0.044 C 
ATOM      4  C   UNL     1       2.432  -0.555   0.085  0.00  0.00    +0.071 C 
ATOM      5  C   UNL     1       3.819  -1.160   0.184  0.00  0.00    +0.111 C 
ATOM      6  C   UNL     1       3.976  -2.495   0.183  0.00  0.00    +0.143 C 
ATOM      7  C   UNL     1       5.342  -3.121   0.287  0.00  0.00    +0.086 C 
ATOM      8  C   UNL     1       6.379  -2.178  -0.330  0.00  0.00    +0.068 C 
ATOM      9  C   UNL     1       6.310  -0.828   0.389  0.00  0.00    +0.063 C 
ATOM     10  C   UNL     1       4.908  -0.278   0.280  0.00  0.00    +0.031 C 
ATOM     11  N   UNL     1       4.724   1.022   0.277  0.00  0.00    -0.260 NA
ATOM     12  O   UNL     1       2.892  -3.288   0.086  0.00  0.00    -0.297 OA
ENDROOT
BRANCH   3  13
ATOM     13  C   UNL     1       1.143   1.648  -0.006  0.00  0.00    +0.248 C 
ATOM     14  O   UNL     1       1.129   2.862  -0.111  0.00  0.00    -0.270 OA
ATOM     15  N   UNL     1      -0.015   0.960   0.020  0.00  0.00    -0.267 N 
ATOM     16  C   UNL     1      -1.230   1.642   0.023  0.00  0.00    +0.125 A 
ATOM     17  C   UNL     1      -2.418   0.932   0.158  0.00  0.00    +0.044 A 
ATOM     18  C   UNL     1      -3.617   1.623   0.166  0.00  0.00    +0.005 A 
ATOM     19  C   UNL     1      -3.587   3.004   0.026  0.00  0.00    +0.020 A 
ATOM     20  C   UNL     1      -2.371   3.643  -0.109  0.00  0.00    +0.113 A 
ATOM     21  N   UNL     1      -1.243   2.959  -0.107  0.00  0.00    -0.240 NA
ATOM     22  H   UNL     1      -0.004  -0.009   0.033  0.00  0.00    +0.157 HD
ENDBRANCH   3  13
BRANCH   4  23
ATOM     23  C   UNL     1       1.797  -1.050  -1.189  0.00  0.00    -0.038 A 
ATOM     24  C   UNL     1       2.317  -0.670  -2.413  0.00  0.00    +0.008 A 
ATOM     25  C   UNL     1       1.741  -1.126  -3.582  0.00  0.00    +0.045 A 
ATOM     26  C   UNL     1       0.631  -1.957  -3.528  0.00  0.00    +0.117 A 
ATOM     27  C   UNL     1       0.107  -2.332  -2.300  0.00  0.00    +0.045 A 
ATOM     28  C   UNL     1       0.691  -1.878  -1.133  0.00  0.00    +0.008 A 
BRANCH  26  29
ATOM     29  O   UNL     1       0.058  -2.402  -4.677  0.00  0.00    -0.507 OA
ATOM     30  H   UNL     1      -0.638  -1.824  -5.019  0.00  0.00    +0.292 HD
ENDBRANCH  26  29
ENDBRANCH   4  23
BRANCH   8  31
ATOM     31  C   UNL     1       7.756  -2.767  -0.168  0.00  0.00    +0.109 A 
ATOM     32  C   UNL     1       8.596  -3.089  -1.168  0.00  0.00    +0.045 A 
ATOM     33  C   UNL     1       9.769  -3.603  -0.568  0.00  0.00    +0.041 A 
ATOM     34  C   UNL     1       9.572  -3.572   0.762  0.00  0.00    +0.195 A 
ATOM     35  O   UNL     1       8.351  -3.064   0.999  0.00  0.00    -0.468 OA
ENDBRANCH   8  31
TORSDOF 4
