REMARK  Name = ZINC34756254
REMARK  5 active torsions:
REMARK  status: ('A' for Active; 'I' for Inactive)
REMARK    1  A    between atoms: C_4  and  C_7
REMARK    2  A    between atoms: C_7  and  S_8
REMARK    3  A    between atoms: S_8  and  C_9
REMARK    4  A    between atoms: N_25  and  C_28
REMARK    5  A    between atoms: C_28  and  C_29
REMARK                            x       y       z     vdW  Elec       q    Type
REMARK                         _______ _______ _______ _____ _____    ______ ____
ROOT
ATOM      1  C   UNL     1       5.779  -1.878   1.477  0.00  0.00    +0.191 A 
ATOM      2  N   UNL     1       6.450  -2.259   2.558  0.00  0.00    -0.206 NA
ATOM      3  C   UNL     1       7.609  -2.892   2.480  0.00  0.00    +0.134 A 
ATOM      4  C   UNL     1       8.159  -3.178   1.199  0.00  0.00    +0.051 A 
ATOM      5  C   UNL     1       9.415  -3.858   0.874  0.00  0.00    -0.025 A 
ATOM      6  C   UNL     1       9.711  -4.005  -0.433  0.00  0.00    -0.004 A 
ATOM      7  S   UNL     1       8.358  -3.258  -1.300  0.00  0.00    -0.073 S 
ATOM      8  C   UNL     1       7.394  -2.746   0.098  0.00  0.00    +0.115 A 
ATOM      9  N   UNL     1       6.242  -2.123   0.259  0.00  0.00    -0.215 NA
ATOM     10  C   UNL     1      10.924  -4.659  -1.021  0.00  0.00    +0.043 C 
ATOM     11  C   UNL     1      11.976  -4.816   0.087  0.00  0.00    +0.005 C 
ATOM     12  C   UNL     1      11.300  -5.415   1.324  0.00  0.00    +0.005 C 
ATOM     13  C   UNL     1      10.359  -4.385   1.951  0.00  0.00    +0.037 C 
ATOM     14  N   UNL     1       8.277  -3.271   3.629  0.00  0.00    -0.318 N 
ATOM     15  C   UNL     1       7.954  -4.534   4.311  0.00  0.00    +0.088 C 
ATOM     16  C   UNL     1       7.726  -4.239   5.797  0.00  0.00    -0.059 C 
ATOM     17  N   UNL     1       8.896  -3.540   6.341  0.00  0.00    +0.387 N 
ATOM     18  C   UNL     1       9.040  -2.228   5.696  0.00  0.00    -0.059 C 
ATOM     19  C   UNL     1       9.337  -2.426   4.202  0.00  0.00    +0.088 C 
ATOM     20  H   UNL     1       9.725  -4.090   6.171  0.00  0.00    -0.081 HD
ENDROOT
BRANCH   1  21
ATOM     21  S   UNL     1       4.241  -1.039   1.665  0.00  0.00    -0.081 S 
BRANCH  21  22
ATOM     22  C   UNL     1       3.698  -0.731  -0.038  0.00  0.00    +0.112 C 
BRANCH  22  26
ATOM     23  C   UNL     1      -0.050   1.318   0.009  0.00  0.00    +0.000 A 
ATOM     24  C   UNL     1       1.131   2.037   0.009  0.00  0.00    +0.000 A 
ATOM     25  C   UNL     1       2.344   1.374  -0.006  0.00  0.00    +0.004 A 
ATOM     26  C   UNL     1       2.376  -0.008  -0.021  0.00  0.00    -0.037 A 
ATOM     27  C   UNL     1       1.195  -0.727  -0.020  0.00  0.00    +0.004 A 
ATOM     28  C   UNL     1      -0.018  -0.064  -0.006  0.00  0.00    +0.000 A 
ENDBRANCH  22  26
ENDBRANCH  21  22
ENDBRANCH   1  21
BRANCH  17  29
ATOM     29  C   UNL     1       8.725  -3.355   7.789  0.00  0.00    +0.019 C 
BRANCH  29  30
ATOM     30  C   UNL     1       9.976  -2.748   8.369  0.00  0.00    +0.199 C 
ATOM     31  O   UNL     1      10.918  -2.495   7.649  0.00  0.00    -0.278 OA
ATOM     32  N   UNL     1      10.048  -2.488   9.690  0.00  0.00    -0.303 N 
ATOM     33  C   UNL     1       8.989  -2.750  10.674  0.00  0.00    +0.108 C 
ATOM     34  C   UNL     1       9.508  -2.269  12.046  0.00  0.00    +0.020 C 
ATOM     35  C   UNL     1      10.608  -1.245  11.661  0.00  0.00    +0.020 C 
ATOM     36  C   UNL     1      11.206  -1.899  10.387  0.00  0.00    +0.108 C 
ENDBRANCH  29  30
ENDBRANCH  17  29
TORSDOF 5
