REMARK  Name = ZINC05422820
REMARK  6 active torsions:
REMARK  status: ('A' for Active; 'I' for Inactive)
REMARK    1  A    between atoms: C_1  and  C_2
REMARK    2  A    between atoms: C_2  and  C_19
REMARK    3  A    between atoms: N_9  and  C_18
REMARK    4  A    between atoms: C_11  and  C_12
REMARK    5  A    between atoms: N_13  and  N_14
REMARK    6  A    between atoms: C_15  and  S_17
REMARK                            x       y       z     vdW  Elec       q    Type
REMARK                         _______ _______ _______ _____ _____    ______ ____
ROOT
ATOM      1  C   UNL     1      -2.946   0.457  -1.238  0.00  0.00    +0.022 C 
ATOM      2  C   UNL     1      -2.649   1.272   0.022  0.00  0.00    +0.030 C 
ATOM      3  C   UNL     1      -1.215   1.749   0.017  0.00  0.00    -0.015 A 
ATOM      4  C   UNL     1      -0.013   1.076   0.008  0.00  0.00    +0.006 A 
ATOM      5  C   UNL     1       1.176   1.784   0.000  0.00  0.00    +0.000 A 
ATOM      6  C   UNL     1       1.153   3.167   0.008  0.00  0.00    +0.002 A 
ATOM      7  C   UNL     1      -0.048   3.844   0.022  0.00  0.00    +0.024 A 
ATOM      8  C   UNL     1      -1.251   3.137   0.029  0.00  0.00    +0.038 A 
ATOM      9  N   UNL     1      -2.567   3.592   0.043  0.00  0.00    -0.306 N 
ATOM     10  C   UNL     1      -3.466   2.547   0.032  0.00  0.00    +0.022 C 
ATOM     11  C   UNL     1      -4.808   2.641   0.040  0.00  0.00    +0.041 C 
ATOM     12  C   UNL     1      -2.950   5.006   0.053  0.00  0.00    +0.135 C 
ATOM     13  C   UNL     1      -2.934   0.444   1.276  0.00  0.00    +0.022 C 
ENDROOT
BRANCH  11  14
ATOM     14  C   UNL     1      -5.600   1.467   0.038  0.00  0.00    +0.136 C 
ATOM     15  N   UNL     1      -6.906   1.558   0.045  0.00  0.00    -0.155 NA
BRANCH  15  16
ATOM     16  N   UNL     1      -7.690   0.397   0.044  0.00  0.00    -0.128 NA
ATOM     17  C   UNL     1      -9.002   0.489   0.051  0.00  0.00    +0.170 C 
ATOM     18  N   UNL     1      -9.605   1.726   0.060  0.00  0.00    -0.337 N 
ATOM     19  H   UNL     1      -9.063   2.530   0.061  0.00  0.00    +0.144 HD
ATOM     20  H   UNL     1     -10.573   1.794   0.066  0.00  0.00    +0.144 HD
BRANCH  17  21
ATOM     21  S   UNL     1      -9.988  -0.971   0.049  0.00  0.00    -0.107 S 
ATOM     22  H   UNL     1     -11.276  -0.398   0.059  0.00  0.00    +0.110 HD
ENDBRANCH  17  21
ENDBRANCH  15  16
ENDBRANCH  11  14
TORSDOF 3
