REMARK  Name = ZINC08712894
REMARK  13 active torsions:
REMARK  status: ('A' for Active; 'I' for Inactive)
REMARK    1  A    between atoms: C_1  and  C_2
REMARK    2  A    between atoms: C_2  and  C_3
REMARK    3  A    between atoms: C_2  and  C_4
REMARK    4  A    between atoms: C_7  and  C_10
REMARK    5  A    between atoms: C_10  and  C_12
REMARK    6  A    between atoms: C_10  and  N_24
REMARK    7  A    between atoms: N_14  and  C_15
REMARK    8  A    between atoms: N_24  and  C_25
REMARK    9  A    between atoms: C_25  and  C_26
REMARK   10  A    between atoms: C_29  and  O_32
REMARK   11  A    between atoms: O_32  and  C_33
REMARK   12  A    between atoms: C_34  and  C_36
REMARK   13  A    between atoms: C_36  and  N_37
REMARK                            x       y       z     vdW  Elec       q    Type
REMARK                         _______ _______ _______ _____ _____    ______ ____
ROOT
ATOM      1  N   UNL     1      -3.921   4.837   4.132  0.00  0.00    -0.280 N 
ATOM      2  C   UNL     1      -3.211   5.486   3.188  0.00  0.00    +0.235 C 
ATOM      3  O   UNL     1      -2.119   5.073   2.860  0.00  0.00    -0.274 OA
ENDROOT
BRANCH   1   4
ATOM      4  C   UNL     1      -3.328   3.703   4.845  0.00  0.00    +0.193 C 
BRANCH   4   8
ATOM      5  C   UNL     1      -2.062   0.755   2.025  0.00  0.00    -0.045 A 
ATOM      6  C   UNL     1      -1.129   1.408   2.808  0.00  0.00    +0.004 A 
ATOM      7  C   UNL     1      -1.538   2.366   3.717  0.00  0.00    +0.006 A 
ATOM      8  C   UNL     1      -2.881   2.663   3.850  0.00  0.00    -0.018 A 
ATOM      9  C   UNL     1      -3.815   2.006   3.071  0.00  0.00    +0.006 A 
ATOM     10  C   UNL     1      -3.405   1.052   2.159  0.00  0.00    +0.004 A 
BRANCH   5  12
ATOM     11  C   UNL     1      -0.886  -1.413   1.764  0.00  0.00    +0.012 C 
ATOM     12  C   UNL     1      -1.615  -0.285   1.030  0.00  0.00    +0.013 C 
ATOM     13  C   UNL     1      -0.670   0.355   0.012  0.00  0.00    +0.012 C 
ENDBRANCH   5  12
ENDBRANCH   4   8
BRANCH   4  14
ATOM     14  C   UNL     1      -2.140   4.177   5.643  0.00  0.00    +0.242 C 
ATOM     15  O   UNL     1      -1.821   5.347   5.619  0.00  0.00    -0.273 OA
ATOM     16  N   UNL     1      -1.433   3.301   6.384  0.00  0.00    -0.284 N 
ATOM     17  H   UNL     1      -1.644   2.355   6.349  0.00  0.00    +0.155 HD
BRANCH  16  18
ATOM     18  C   UNL     1      -0.393   3.757   7.204  0.00  0.00    +0.037 A 
ATOM     19  C   UNL     1       0.739   2.975   7.390  0.00  0.00    +0.027 A 
ATOM     20  C   UNL     1       1.767   3.425   8.196  0.00  0.00    +0.051 A 
ATOM     21  C   UNL     1       1.668   4.653   8.828  0.00  0.00    +0.166 A 
ATOM     22  C   UNL     1       0.531   5.438   8.648  0.00  0.00    +0.168 A 
ATOM     23  C   UNL     1      -0.497   4.988   7.837  0.00  0.00    +0.072 A 
ATOM     24  O   UNL     1       0.676   6.588   9.370  0.00  0.00    -0.453 OA
ATOM     25  C   UNL     1       1.728   6.318  10.316  0.00  0.00    +0.466 C 
ATOM     26  O   UNL     1       2.525   5.312   9.663  0.00  0.00    -0.453 OA
ENDBRANCH  16  18
ENDBRANCH   4  14
ENDBRANCH   1   4
BRANCH   1  27
ATOM     27  C   UNL     1      -5.286   5.266   4.446  0.00  0.00    +0.144 C 
BRANCH  27  28
ATOM     28  C   UNL     1      -5.258   6.211   5.620  0.00  0.00    -0.030 A 
ATOM     29  C   UNL     1      -5.252   5.710   6.909  0.00  0.00    +0.009 A 
ATOM     30  C   UNL     1      -5.221   6.573   7.987  0.00  0.00    +0.046 A 
ATOM     31  C   UNL     1      -5.207   7.944   7.776  0.00  0.00    +0.120 A 
ATOM     32  C   UNL     1      -5.220   8.445   6.482  0.00  0.00    +0.046 A 
ATOM     33  C   UNL     1      -5.245   7.577   5.407  0.00  0.00    +0.009 A 
BRANCH  31  34
ATOM     34  O   UNL     1      -5.182   8.796   8.834  0.00  0.00    -0.495 OA
ATOM     35  C   UNL     1      -5.171   8.210  10.138  0.00  0.00    +0.277 C 
ENDBRANCH  31  34
ENDBRANCH  27  28
ENDBRANCH   1  27
BRANCH   2  36
ATOM     36  C   UNL     1      -3.775   6.724   2.539  0.00  0.00    +0.210 C 
BRANCH  36  37
ATOM     37  N   UNL     1      -2.878   7.165   1.468  0.00  0.00    -0.255 N 
ATOM     38  C   UNL     1      -2.973   6.746   0.143  0.00  0.00    +0.048 A 
ATOM     39  C   UNL     1      -3.855   5.875  -0.484  0.00  0.00    +0.024 A 
ATOM     40  C   UNL     1      -3.736   5.620  -1.837  0.00  0.00    +0.002 A 
ATOM     41  C   UNL     1      -2.740   6.224  -2.586  0.00  0.00    +0.001 A 
ATOM     42  C   UNL     1      -1.853   7.093  -1.984  0.00  0.00    +0.014 A 
ATOM     43  C   UNL     1      -1.964   7.357  -0.619  0.00  0.00    +0.048 A 
ATOM     44  C   UNL     1      -1.197   8.212   0.307  0.00  0.00    +0.250 C 
ATOM     45  O   UNL     1      -0.240   8.912   0.047  0.00  0.00    -0.282 OA
ATOM     46  C   UNL     1      -1.863   8.030   1.638  0.00  0.00    +0.292 C 
ATOM     47  O   UNL     1      -1.544   8.564   2.679  0.00  0.00    -0.266 OA
ENDBRANCH  36  37
ENDBRANCH   2  36
TORSDOF 10
