REMARK  Name = ZINC48983375
REMARK  9 active torsions:
REMARK  status: ('A' for Active; 'I' for Inactive)
REMARK    1  A    between atoms: C_1  and  C_2
REMARK    2  A    between atoms: C_2  and  C_3
REMARK    3  A    between atoms: C_3  and  C_4
REMARK    4  A    between atoms: C_4  and  N_5
REMARK    5  A    between atoms: C_7  and  C_11
REMARK    6  A    between atoms: C_8  and  C_10
REMARK    7  A    between atoms: C_12  and  C_13
REMARK    8  A    between atoms: C_15  and  C_16
REMARK    9  A    between atoms: C_15  and  C_18
REMARK                            x       y       z     vdW  Elec       q    Type
REMARK                         _______ _______ _______ _____ _____    ______ ____
ROOT
ATOM      1  C   UNL     1       5.064  -2.788   3.135  0.00  0.00    +0.016 C 
ATOM      2  C   UNL     1       5.494  -4.072   3.064  0.00  0.00    +0.053 C 
ENDROOT
BRANCH   1   5
ATOM      3  N   UNL     1       2.006  -2.225   1.273  0.00  0.00    -0.252 N 
ATOM      4  C   UNL     1       3.243  -2.745   1.353  0.00  0.00    +0.134 A 
ATOM      5  C   UNL     1       3.744  -2.426   2.606  0.00  0.00    +0.034 A 
ATOM      6  C   UNL     1       2.742  -1.685   3.277  0.00  0.00    +0.069 A 
ATOM      7  N   UNL     1       1.720  -1.569   2.476  0.00  0.00    -0.175 NA
ATOM      8  C   UNL     1       2.841  -1.125   4.673  0.00  0.00    +0.068 C 
ATOM      9 CL   UNL     1       4.061  -3.648   0.116  0.00  0.00    -0.062 Cl
BRANCH   3  10
ATOM     10  C   UNL     1       1.109  -2.323   0.119  0.00  0.00    +0.145 C 
BRANCH  10  11
ATOM     11  C   UNL     1       1.350  -1.137  -0.817  0.00  0.00    +0.023 C 
BRANCH  11  13
ATOM     12  C   UNL     1       0.655  -0.053  -2.958  0.00  0.00    +0.004 C 
ATOM     13  C   UNL     1       0.414  -1.240  -2.023  0.00  0.00    -0.002 C 
ENDBRANCH  11  13
ENDBRANCH  10  11
ENDBRANCH   3  10
ENDBRANCH   1   5
BRANCH   2  14
ATOM     14  C   UNL     1       6.760  -4.419   3.572  0.00  0.00    +0.201 C 
ATOM     15  O   UNL     1       7.547  -3.473   4.131  0.00  0.00    -0.286 OA
ATOM     16  C   UNL     1       7.204  -5.744   3.498  0.00  0.00    +0.160 C 
BRANCH  16  17
ATOM     17  C   UNL     1       8.520  -6.105   4.027  0.00  0.00    +0.261 C 
ATOM     18  O   UNL     1       8.946  -5.556   5.027  0.00  0.00    -0.269 OA
ATOM     19  N   UNL     1       9.261  -7.044   3.406  0.00  0.00    -0.297 N 
ATOM     20  C   UNL     1       8.827  -7.612   2.122  0.00  0.00    +0.108 C 
ATOM     21  C   UNL     1       9.967  -7.467   1.109  0.00  0.00    +0.019 C 
ATOM     22  C   UNL     1      11.236  -8.102   1.680  0.00  0.00    +0.003 C 
ATOM     23  C   UNL     1      11.638  -7.376   2.966  0.00  0.00    +0.019 C 
ATOM     24  C   UNL     1      10.521  -7.516   3.998  0.00  0.00    +0.108 C 
ENDBRANCH  16  17
BRANCH  16  25
ATOM     25  C   UNL     1       6.371  -6.747   2.906  0.00  0.00    +0.108 C 
ATOM     26  N   UNL     1       5.710  -7.542   2.437  0.00  0.00    -0.191 NA
ENDBRANCH  16  25
ENDBRANCH   2  14
TORSDOF 7
