REMARK  Name = ZINC36678154
REMARK  8 active torsions:
REMARK  status: ('A' for Active; 'I' for Inactive)
REMARK    1  A    between atoms: C_1  and  C_2
REMARK    2  A    between atoms: C_2  and  C_3
REMARK    3  A    between atoms: C_3  and  C_5
REMARK    4  A    between atoms: C_3  and  N_10
REMARK    5  A    between atoms: C_5  and  C_6
REMARK    6  A    between atoms: N_7  and  O_8
REMARK    7  A    between atoms: C_12  and  C_19
REMARK    8  A    between atoms: C_15  and  C_18
REMARK                            x       y       z     vdW  Elec       q    Type
REMARK                         _______ _______ _______ _____ _____    ______ ____
ROOT
ATOM      1  C   UNL     1      -1.609  -0.526  -0.028  0.00  0.00    -0.062 C 
ENDROOT
BRANCH   1   2
ATOM      2  N   UNL     1      -2.780  -0.533  -0.915  0.00  0.00    +0.382 N 
ATOM      3  C   UNL     1      -3.328   0.825  -1.010  0.00  0.00    -0.075 C 
ATOM      4  C   UNL     1      -4.498   0.839  -1.997  0.00  0.00    -0.031 C 
ATOM      5  C   UNL     1      -5.586  -0.119  -1.503  0.00  0.00    +0.003 C 
ATOM      6  C   UNL     1      -4.984  -1.517  -1.336  0.00  0.00    -0.031 C 
ATOM      7  C   UNL     1      -3.796  -1.444  -0.375  0.00  0.00    -0.075 C 
ATOM      8  C   UNL     1      -6.043  -2.465  -0.770  0.00  0.00    +0.005 C 
ATOM      9  C   UNL     1      -5.068   2.255  -2.093  0.00  0.00    +0.005 C 
ATOM     10  H   UNL     1      -2.503  -0.847  -1.833  0.00  0.00    -0.081 HD
ENDBRANCH   1   2
BRANCH   1  12
ATOM     11  C   UNL     1      -0.567  -2.442  -1.247  0.00  0.00    +0.002 C 
ATOM     12  C   UNL     1      -1.067  -1.950   0.113  0.00  0.00    -0.018 C 
ENDBRANCH   1  12
BRANCH   1  13
ATOM     13  C   UNL     1      -2.016   0.003   1.349  0.00  0.00    +0.059 C 
BRANCH  13  14
ATOM     14  C   UNL     1      -2.022   1.509   1.327  0.00  0.00    +0.130 C 
ATOM     15  N   UNL     1      -1.583   2.142   0.289  0.00  0.00    -0.077 NA
ATOM     16  N   UNL     1      -2.495   2.212   2.412  0.00  0.00    -0.344 N 
ATOM     17  H   UNL     1      -2.824   1.738   3.191  0.00  0.00    +0.143 HD
ATOM     18  H   UNL     1      -2.498   3.182   2.398  0.00  0.00    +0.143 HD
BRANCH  15  19
ATOM     19  O   UNL     1      -1.588   3.557   0.268  0.00  0.00    -0.408 OA
ATOM     20  H   UNL     1      -1.241   3.940  -0.549  0.00  0.00    +0.328 HD
ENDBRANCH  15  19
ENDBRANCH  13  14
ENDBRANCH   1  13
TORSDOF 5
