REMARK  Name = ZINC13498711
REMARK  14 active torsions:
REMARK  status: ('A' for Active; 'I' for Inactive)
REMARK    1  A    between atoms: C_1  and  C_2
REMARK    2  A    between atoms: C_2  and  C_3
REMARK    3  A    between atoms: C_2  and  C_4
REMARK    4  A    between atoms: C_4  and  C_6
REMARK    5  A    between atoms: C_4  and  N_69
REMARK    6  A    between atoms: N_10  and  C_11
REMARK    7  A    between atoms: C_11  and  C_12
REMARK    8  A    between atoms: C_11  and  C_13
REMARK    9  A    between atoms: C_11  and  C_14
REMARK   10  A    between atoms: C_15  and  C_16
REMARK   11  A    between atoms: C_15  and  N_69
REMARK   12  A    between atoms: C_21  and  O_28
REMARK   13  A    between atoms: O_28  and  C_29
REMARK   14  A    between atoms: C_30  and  N_69
REMARK                            x       y       z     vdW  Elec       q    Type
REMARK                         _______ _______ _______ _____ _____    ______ ____
ROOT
ATOM      1  N   UNL     1       2.902   0.887   9.287  0.00  0.00    +0.391 N 
ATOM      2  H   UNL     1       3.642   0.902   8.575  0.00  0.00    -0.080 HD
ENDROOT
BRANCH   1   3
ATOM      3  C   UNL     1       2.638   2.271   9.735  0.00  0.00    -0.067 C 
ATOM      4  C   UNL     1       3.977   3.025   9.871  0.00  0.00    -0.015 C 
ATOM      5  C   UNL     1       3.773   3.939  11.105  0.00  0.00    -0.002 C 
ATOM      6  C   UNL     1       2.945   3.046  12.061  0.00  0.00    -0.002 C 
ATOM      7  C   UNL     1       1.982   2.284  11.127  0.00  0.00    -0.015 C 
ENDBRANCH   1   3
BRANCH   1   8
ATOM      8  C   UNL     1       3.350   0.063  10.429  0.00  0.00    +0.006 C 
BRANCH   8   9
ATOM      9  C   UNL     1       3.183  -1.395  10.086  0.00  0.00    +0.139 A 
ATOM     10  N   UNL     1       3.636  -2.005   9.018  0.00  0.00    -0.115 NA
ATOM     11  N   UNL     1       3.289  -3.244   9.090  0.00  0.00    -0.023 NA
ATOM     12  N   UNL     1       2.626  -3.440  10.176  0.00  0.00    -0.043 NA
ATOM     13  N   UNL     1       2.544  -2.325  10.820  0.00  0.00    -0.226 N 
BRANCH  13  14
ATOM     14  C   UNL     1       1.877  -2.111  12.107  0.00  0.00    +0.059 C 
ATOM     15  C   UNL     1       0.627  -1.254  11.897  0.00  0.00    +0.036 C 
ATOM     16  C   UNL     1       1.475  -3.461  12.704  0.00  0.00    +0.036 C 
ATOM     17  C   UNL     1       2.833  -1.395  13.063  0.00  0.00    +0.036 C 
ENDBRANCH  13  14
ENDBRANCH   8   9
BRANCH   8  19
ATOM     18  C   UNL     1       5.402  -0.713  11.625  0.00  0.00    +0.006 C 
ATOM     19  C   UNL     1       4.827   0.358  10.695  0.00  0.00    -0.024 C 
ATOM     20  C   UNL     1       5.596   0.350   9.373  0.00  0.00    +0.006 C 
ENDBRANCH   8  19
ENDBRANCH   1   8
BRANCH   1  21
ATOM     21  C   UNL     1       1.679   0.306   8.694  0.00  0.00    -0.036 C 
BRANCH  21  22
ATOM     22  C   UNL     1       1.436   0.952   7.354  0.00  0.00    +0.001 A 
ATOM     23  C   UNL     1       1.915   0.370   6.226  0.00  0.00    +0.017 A 
ATOM     24  C   UNL     1       1.663   1.021   4.941  0.00  0.00    -0.001 A 
ATOM     25  C   UNL     1       2.134   0.467   3.745  0.00  0.00    +0.013 A 
ATOM     26  C   UNL     1       1.878   1.093   2.561  0.00  0.00    +0.046 A 
ATOM     27  C   UNL     1       1.160   2.289   2.533  0.00  0.00    +0.122 A 
ATOM     28  C   UNL     1       0.687   2.853   3.704  0.00  0.00    +0.072 A 
ATOM     29  C   UNL     1       0.933   2.226   4.919  0.00  0.00    +0.053 A 
ATOM     30  N   UNL     1       0.473   2.766   6.102  0.00  0.00    -0.322 N 
ATOM     31  H   UNL     1      -0.030   3.595   6.085  0.00  0.00    +0.169 HD
ATOM     32  C   UNL     1       0.711   2.159   7.277  0.00  0.00    +0.251 A 
ATOM     33  O   UNL     1       0.289   2.665   8.303  0.00  0.00    -0.268 OA
BRANCH  27  34
ATOM     34  O   UNL     1       0.919   2.901   1.345  0.00  0.00    -0.495 OA
ATOM     35  C   UNL     1       1.435   2.269   0.172  0.00  0.00    +0.277 C 
ENDBRANCH  27  34
ENDBRANCH  21  22
ENDBRANCH   1  21
TORSDOF 8
