REMARK  Name = ZINC25182856
REMARK  5 active torsions:
REMARK  status: ('A' for Active; 'I' for Inactive)
REMARK    1  A    between atoms: C_1  and  N_2
REMARK    2  A    between atoms: C_11  and  C_13
REMARK    3  A    between atoms: N_15  and  N_16
REMARK    4  A    between atoms: C_17  and  C_19
REMARK    5  A    between atoms: C_20  and  N_24
REMARK                            x       y       z     vdW  Elec       q    Type
REMARK                         _______ _______ _______ _____ _____    ______ ____
ROOT
ATOM      1  C   UNL     1      -5.133   4.451   4.609  0.00  0.00    +0.281 C 
ATOM      2  O   UNL     1      -6.215   3.923   4.437  0.00  0.00    -0.267 OA
ATOM      3  N   UNL     1      -4.092   4.127   3.817  0.00  0.00    -0.229 N 
ATOM      4  H   UNL     1      -3.114   4.605   3.972  0.00  0.00    +0.173 HD
ENDROOT
BRANCH   1  15
ATOM      5  C   UNL     1      -2.215   7.450   6.880  0.00  0.00    +0.176 C 
ATOM      6  N   UNL     1      -3.566   6.893   6.784  0.00  0.00    -0.231 N 
ATOM      7  C   UNL     1      -4.499   7.325   7.657  0.00  0.00    +0.275 A 
ATOM      8  O   UNL     1      -4.223   8.157   8.502  0.00  0.00    -0.266 OA
ATOM      9  C   UNL     1      -5.856   6.769   7.564  0.00  0.00    +0.050 A 
ATOM     10  C   UNL     1      -6.889   7.149   8.416  0.00  0.00    +0.014 A 
ATOM     11  C   UNL     1      -8.135   6.580   8.262  0.00  0.00    +0.001 A 
ATOM     12  C   UNL     1      -8.367   5.636   7.271  0.00  0.00    +0.001 A 
ATOM     13  C   UNL     1      -7.357   5.246   6.417  0.00  0.00    +0.011 A 
ATOM     14  C   UNL     1      -6.094   5.812   6.551  0.00  0.00    +0.020 A 
ATOM     15  C   UNL     1      -4.961   5.447   5.684  0.00  0.00    +0.155 A 
ATOM     16  N   UNL     1      -3.798   6.021   5.876  0.00  0.00    -0.163 NA
ENDBRANCH   1  15
BRANCH   3  17
ATOM     17  N   UNL     1      -4.256   3.182   2.795  0.00  0.00    -0.230 N 
ATOM     18  C   UNL     1      -3.215   2.858   2.003  0.00  0.00    +0.269 C 
ATOM     19  O   UNL     1      -2.132   3.387   2.175  0.00  0.00    -0.268 OA
ATOM     20  H   UNL     1      -5.235   2.704   2.640  0.00  0.00    +0.173 HD
BRANCH  18  21
ATOM     21  C   UNL     1      -3.386   1.873   0.939  0.00  0.00    +0.099 A 
ATOM     22  C   UNL     1      -2.451   1.402   0.020  0.00  0.00    +0.065 A 
ATOM     23  C   UNL     1      -2.889   0.456  -0.883  0.00  0.00    +0.034 A 
ATOM     24  C   UNL     1      -4.180   0.044  -0.837  0.00  0.00    +0.048 A 
ATOM     25  S   UNL     1      -4.847   0.961   0.474  0.00  0.00    -0.090 S 
BRANCH  22  26
ATOM     26  N   UNL     1      -1.130   1.862   0.017  0.00  0.00    -0.322 N 
ATOM     27  C   UNL     1      -0.013   1.076   0.008  0.00  0.00    +0.091 A 
ATOM     28  C   UNL     1       1.069   1.881   0.002  0.00  0.00    +0.019 A 
ATOM     29  C   UNL     1       0.605   3.212   0.013  0.00  0.00    +0.019 A 
ATOM     30  C   UNL     1      -0.743   3.172   0.026  0.00  0.00    +0.091 A 
ENDBRANCH  22  26
ENDBRANCH  18  21
ENDBRANCH   3  17
TORSDOF 4
