REMARK  Name = ZINC12293235
REMARK  8 active torsions:
REMARK  status: ('A' for Active; 'I' for Inactive)
REMARK    1  A    between atoms: C_1  and  C_2
REMARK    2  A    between atoms: C_7  and  C_8
REMARK    3  A    between atoms: C_15  and  C_16
REMARK    4  A    between atoms: C_15  and  N_63
REMARK    5  A    between atoms: C_16  and  C_18
REMARK    6  A    between atoms: C_16  and  O_28
REMARK    7  A    between atoms: N_20  and  C_27
REMARK    8  A    between atoms: C_30  and  O_32
REMARK                            x       y       z     vdW  Elec       q    Type
REMARK                         _______ _______ _______ _____ _____    ______ ____
ROOT
ATOM      1  C   UNL     1      -6.874  -4.911  -1.600  0.00  0.00    +0.044 C 
ATOM      2  C   UNL     1      -5.551  -4.196  -1.701  0.00  0.00    -0.047 A 
ATOM      3  C   UNL     1      -4.425  -4.739  -1.113  0.00  0.00    +0.013 A 
ATOM      4  C   UNL     1      -3.207  -4.088  -1.201  0.00  0.00    +0.023 A 
ATOM      5  C   UNL     1      -3.116  -2.887  -1.883  0.00  0.00    +0.127 A 
ATOM      6  C   UNL     1      -4.251  -2.342  -2.474  0.00  0.00    +0.049 A 
ATOM      7  C   UNL     1      -5.463  -2.996  -2.382  0.00  0.00    -0.044 A 
ATOM      8  C   UNL     1      -6.691  -2.401  -3.023  0.00  0.00    +0.044 C 
ATOM      9  O   UNL     1      -1.940  -2.216  -1.997  0.00  0.00    -0.485 OA
ATOM     10  C   UNL     1      -0.880  -2.570  -1.111  0.00  0.00    +0.110 C 
ATOM     11  C   UNL     1       0.425  -1.921  -1.577  0.00  0.00    +0.029 C 
ATOM     12  C   UNL     1       0.288  -0.398  -1.505  0.00  0.00    -0.075 C 
ATOM     13  C   UNL     1      -1.295  -0.568   0.322  0.00  0.00    -0.075 C 
ATOM     14  C   UNL     1      -1.207  -2.096   0.306  0.00  0.00    +0.029 C 
ATOM     15  C   UNL     1      -0.724  -4.095  -1.117  0.00  0.00    +0.084 C 
ATOM     16  C   UNL     1      -2.002  -4.710  -0.541  0.00  0.00    +0.152 C 
ATOM     17  N   UNL     1       0.004  -0.008  -0.108  0.00  0.00    +0.382 N 
ATOM     18  H   UNL     1       0.744  -0.380   0.499  0.00  0.00    -0.082 HD
ENDROOT
BRANCH  16  19
ATOM     19  O   UNL     1      -2.002  -6.119  -0.783  0.00  0.00    -0.387 OA
ATOM     20  H   UNL     1      -2.783  -6.576  -0.442  0.00  0.00    +0.210 HD
ENDBRANCH  16  19
BRANCH  17  21
ATOM     21  C   UNL     1      -0.018   1.465   0.010  0.00  0.00    -0.042 C 
BRANCH  21  22
ATOM     22  C   UNL     1       1.398   1.998  -0.220  0.00  0.00    +0.130 C 
BRANCH  22  23
ATOM     23  C   UNL     1       1.397   3.499  -0.087  0.00  0.00    +0.004 A 
ATOM     24  C   UNL     1       1.695   4.203   1.016  0.00  0.00    +0.092 A 
ATOM     25  N   UNL     1       1.587   5.543   0.759  0.00  0.00    -0.349 N 
ATOM     26  C   UNL     1       1.206   5.738  -0.550  0.00  0.00    +0.049 A 
ATOM     27  C   UNL     1       1.076   4.467  -1.139  0.00  0.00    +0.005 A 
ATOM     28  C   UNL     1       0.691   4.355  -2.476  0.00  0.00    +0.010 A 
ATOM     29  C   UNL     1       0.451   5.483  -3.209  0.00  0.00    +0.001 A 
ATOM     30  C   UNL     1       0.584   6.739  -2.635  0.00  0.00    +0.002 A 
ATOM     31  C   UNL     1       0.958   6.873  -1.315  0.00  0.00    +0.026 A 
ATOM     32  C   UNL     1       1.838   6.609   1.731  0.00  0.00    +0.149 C 
ENDBRANCH  22  23
BRANCH  22  33
ATOM     33  O   UNL     1       2.283   1.434   0.750  0.00  0.00    -0.389 OA
ATOM     34  H   UNL     1       2.046   1.639   1.664  0.00  0.00    +0.210 HD
ENDBRANCH  22  33
ENDBRANCH  21  22
ENDBRANCH  17  21
TORSDOF 5
