REMARK  Name = ZINC43464515
REMARK  3 active torsions:
REMARK  status: ('A' for Active; 'I' for Inactive)
REMARK    1  A    between atoms: C_1  and  C_2
REMARK    2  A    between atoms: C_8  and  C_12
REMARK    3  A    between atoms: C_8  and  O_16
REMARK                            x       y       z     vdW  Elec       q    Type
REMARK                         _______ _______ _______ _____ _____    ______ ____
ROOT
ATOM      1  C   UNL     1      -0.018   1.503   0.010  0.00  0.00    +0.044 C 
ATOM      2  C   UNL     1       0.002  -0.004   0.002  0.00  0.00    -0.050 A 
ATOM      3  C   UNL     1       0.006  -0.691  -1.198  0.00  0.00    +0.005 A 
ATOM      4  C   UNL     1       0.025  -2.070  -1.213  0.00  0.00    +0.024 A 
ATOM      5  C   UNL     1       0.040  -2.782  -0.015  0.00  0.00    +0.040 A 
ATOM      6  C   UNL     1       0.037  -2.081   1.184  0.00  0.00    +0.023 A 
ATOM      7  C   UNL     1       0.023  -0.704   1.196  0.00  0.00    +0.012 A 
ATOM      8  C   UNL     1       0.056  -3.118   2.283  0.00  0.00    +0.264 C 
ATOM      9  C   UNL     1       0.071  -4.439   1.543  0.00  0.00    +0.263 C 
ATOM     10  O   UNL     1       0.088  -5.544   2.042  0.00  0.00    -0.272 OA
ATOM     11  N   UNL     1       0.060  -4.156   0.229  0.00  0.00    -0.282 N 
ATOM     12  H   UNL     1       0.066  -4.829  -0.469  0.00  0.00    +0.155 HD
ENDROOT
BRANCH   8  13
ATOM     13  C   UNL     1      -1.198  -3.003   3.151  0.00  0.00    +0.431 C 
ATOM     14  F   UNL     1      -2.334  -3.203   2.358  0.00  0.00    -0.167 F 
ATOM     15  F   UNL     1      -1.158  -3.972   4.160  0.00  0.00    -0.167 F 
ATOM     16  F   UNL     1      -1.252  -1.730   3.728  0.00  0.00    -0.167 F 
ENDBRANCH   8  13
BRANCH   8  17
ATOM     17  O   UNL     1       1.233  -2.979   3.082  0.00  0.00    -0.368 OA
ATOM     18  H   UNL     1       1.297  -3.620   3.803  0.00  0.00    +0.212 HD
ENDBRANCH   8  17
TORSDOF 2
