REMARK  Name = ZINC47126296
REMARK  8 active torsions:
REMARK  status: ('A' for Active; 'I' for Inactive)
REMARK    1  A    between atoms: C_1  and  C_2
REMARK    2  A    between atoms: C_6  and  C_27
REMARK    3  A    between atoms: C_7  and  O_8
REMARK    4  A    between atoms: O_8  and  C_9
REMARK    5  A    between atoms: C_9  and  C_10
REMARK    6  A    between atoms: C_10  and  N_11
REMARK    7  A    between atoms: N_17  and  C_20
REMARK    8  A    between atoms: C_25  and  O_26
REMARK                            x       y       z     vdW  Elec       q    Type
REMARK                         _______ _______ _______ _____ _____    ______ ____
ROOT
ATOM      1  N   UNL     1      -0.416   2.318   4.005  0.00  0.00    -0.296 N 
ATOM      2  C   UNL     1      -0.144   3.160   5.021  0.00  0.00    +0.302 C 
ATOM      3  O   UNL     1      -0.498   2.883   6.151  0.00  0.00    -0.253 OA
ATOM      4  N   UNL     1       0.519   4.310   4.785  0.00  0.00    -0.283 N 
ATOM      5  C   UNL     1       0.847   4.716   3.412  0.00  0.00    +0.128 C 
ATOM      6  C   UNL     1       0.282   6.121   3.168  0.00  0.00    +0.124 C 
ATOM      7  N   UNL     1       0.690   6.990   4.280  0.00  0.00    -0.324 N 
ATOM      8  C   UNL     1       0.362   6.584   5.654  0.00  0.00    +0.124 C 
ATOM      9  C   UNL     1       0.922   5.182   5.897  0.00  0.00    +0.128 C 
ATOM     10  H   UNL     1      -0.199   2.572   3.094  0.00  0.00    +0.150 HD
ENDROOT
BRANCH   7  11
ATOM     11  C   UNL     1       1.379   8.184   4.035  0.00  0.00    +0.072 A 
ATOM     12  C   UNL     1       0.678   9.365   3.843  0.00  0.00    +0.027 A 
ATOM     13  C   UNL     1       1.360  10.543   3.602  0.00  0.00    +0.002 A 
ATOM     14  C   UNL     1       2.742  10.546   3.551  0.00  0.00    +0.004 A 
ATOM     15  C   UNL     1       3.448   9.373   3.742  0.00  0.00    +0.047 A 
ATOM     16  C   UNL     1       2.772   8.190   3.989  0.00  0.00    +0.138 A 
BRANCH  16  17
ATOM     17  O   UNL     1       3.465   7.035   4.182  0.00  0.00    -0.505 OA
ATOM     18  H   UNL     1       3.637   6.540   3.369  0.00  0.00    +0.292 HD
ENDBRANCH  16  17
ENDBRANCH   7  11
BRANCH   1  19
ATOM     19  C   UNL     1      -1.039   1.020   4.275  0.00  0.00    +0.146 C 
BRANCH  19  20
ATOM     20  C   UNL     1      -1.238   0.266   2.959  0.00  0.00    +0.248 C 
BRANCH  20  21
ATOM     21  O   UNL     1       0.036  -0.038   2.388  0.00  0.00    -0.490 OA
BRANCH  21  28
ATOM     22  C   UNL     1       0.000   1.493   0.014  0.00  0.00    +0.047 C 
ATOM     23  C   UNL     1       0.021  -0.014   0.009  0.00  0.00    -0.009 A 
ATOM     24  C   UNL     1       0.029  -0.701  -1.190  0.00  0.00    +0.007 A 
ATOM     25  C   UNL     1       0.049  -2.084  -1.195  0.00  0.00    +0.001 A 
ATOM     26  C   UNL     1       0.060  -2.782  -0.002  0.00  0.00    +0.007 A 
ATOM     27  C   UNL     1       0.052  -2.099   1.199  0.00  0.00    -0.009 A 
ATOM     28  C   UNL     1       0.038  -0.712   1.208  0.00  0.00    +0.126 A 
ATOM     29  C   UNL     1       0.064  -2.861   2.500  0.00  0.00    +0.047 C 
ENDBRANCH  21  28
ENDBRANCH  20  21
ENDBRANCH  19  20
ENDBRANCH   1  19
TORSDOF 6
