REMARK  Name = ZINC35106495
REMARK  14 active torsions:
REMARK  status: ('A' for Active; 'I' for Inactive)
REMARK    1  A    between atoms: C_1  and  C_2
REMARK    2  A    between atoms: N_8  and  C_9
REMARK    3  A    between atoms: C_9  and  C_10
REMARK    4  A    between atoms: C_10  and  C_11
REMARK    5  A    between atoms: C_11  and  N_12
REMARK    6  A    between atoms: N_12  and  C_13
REMARK    7  A    between atoms: C_13  and  C_14
REMARK    8  A    between atoms: N_25  and  C_26
REMARK    9  A    between atoms: C_27  and  C_35
REMARK   10  A    between atoms: C_31  and  C_32
REMARK   11  A    between atoms: C_32  and  C_33
REMARK   12  A    between atoms: C_32  and  C_34
REMARK   13  A    between atoms: C_35  and  C_36
REMARK   14  A    between atoms: C_35  and  C_37
REMARK                            x       y       z     vdW  Elec       q    Type
REMARK                         _______ _______ _______ _____ _____    ______ ____
ROOT
ATOM      1  N   UNL     1       6.722   0.559   3.723  0.00  0.00    -0.281 N 
ATOM      2  C   UNL     1       6.053   0.825   4.862  0.00  0.00    +0.307 C 
ATOM      3  O   UNL     1       4.859   0.607   4.931  0.00  0.00    -0.252 OA
ATOM      4  N   UNL     1       6.707   1.332   5.926  0.00  0.00    -0.269 N 
ATOM      5  H   UNL     1       7.669   1.457   5.889  0.00  0.00    +0.156 HD
ENDROOT
BRANCH   4   6
ATOM      6  C   UNL     1       6.000   1.678   7.083  0.00  0.00    +0.042 A 
ATOM      7  C   UNL     1       6.354   1.126   8.306  0.00  0.00    -0.023 A 
ATOM      8  C   UNL     1       5.655   1.470   9.447  0.00  0.00    +0.006 A 
ATOM      9  C   UNL     1       4.602   2.364   9.370  0.00  0.00    +0.001 A 
ATOM     10  C   UNL     1       4.247   2.915   8.153  0.00  0.00    +0.006 A 
ATOM     11  C   UNL     1       4.946   2.579   7.010  0.00  0.00    -0.023 A 
BRANCH  11  12
ATOM     12  C   UNL     1       4.562   3.186   5.685  0.00  0.00    +0.015 C 
ATOM     13  C   UNL     1       3.059   3.473   5.672  0.00  0.00    +0.012 C 
ATOM     14  C   UNL     1       5.333   4.492   5.480  0.00  0.00    +0.012 C 
ENDBRANCH  11  12
BRANCH   7  15
ATOM     15  C   UNL     1       7.501   0.151   8.391  0.00  0.00    +0.015 C 
ATOM     16  C   UNL     1       8.597   0.729   9.288  0.00  0.00    +0.012 C 
ATOM     17  C   UNL     1       7.004  -1.171   8.979  0.00  0.00    +0.012 C 
ENDBRANCH   7  15
ENDBRANCH   4   6
BRANCH   1  18
ATOM     18  C   UNL     1       6.011   0.008   2.567  0.00  0.00    +0.108 C 
BRANCH  18  19
ATOM     19  C   UNL     1       6.034  -1.520   2.635  0.00  0.00    +0.000 C 
BRANCH  19  20
ATOM     20  C   UNL     1       5.291  -2.096   1.428  0.00  0.00    -0.077 C 
BRANCH  20  27
ATOM     21  C   UNL     1       3.080  -3.552   0.493  0.00  0.00    -0.013 C 
ATOM     22  C   UNL     1       4.500  -4.112   0.401  0.00  0.00    -0.072 C 
ATOM     23  C   UNL     1       4.454  -5.638   0.513  0.00  0.00    -0.016 C 
ATOM     24  C   UNL     1       5.878  -6.194   0.421  0.00  0.00    -0.003 C 
ATOM     25  C   UNL     1       6.737  -5.557   1.518  0.00  0.00    -0.019 C 
ATOM     26  C   UNL     1       6.698  -4.035   1.369  0.00  0.00    -0.078 C 
ATOM     27  N   UNL     1       5.314  -3.563   1.493  0.00  0.00    +0.381 N 
ATOM     28  H   UNL     1       4.934  -3.864   2.378  0.00  0.00    -0.081 HD
ENDBRANCH  20  27
ENDBRANCH  19  20
ENDBRANCH  18  19
ENDBRANCH   1  18
BRANCH   1  29
ATOM     29  C   UNL     1       8.161   0.822   3.641  0.00  0.00    +0.144 C 
BRANCH  29  30
ATOM     30  C   UNL     1       8.387   2.229   3.149  0.00  0.00    -0.026 A 
ATOM     31  C   UNL     1       8.493   2.477   1.793  0.00  0.00    +0.009 A 
ATOM     32  C   UNL     1       8.700   3.765   1.337  0.00  0.00    +0.050 A 
ATOM     33  C   UNL     1       8.803   4.812   2.239  0.00  0.00    +0.166 A 
ATOM     34  C   UNL     1       8.697   4.562   3.605  0.00  0.00    +0.167 A 
ATOM     35  C   UNL     1       8.483   3.269   4.055  0.00  0.00    +0.054 A 
ATOM     36  O   UNL     1       8.831   5.743   4.277  0.00  0.00    -0.453 OA
ATOM     37  C   UNL     1       9.427   6.655   3.335  0.00  0.00    +0.466 C 
ATOM     38  O   UNL     1       9.004   6.149   2.055  0.00  0.00    -0.453 OA
ENDBRANCH  29  30
ENDBRANCH   1  29
TORSDOF 9
