REMARK  Name = ZINC33287198
REMARK  8 active torsions:
REMARK  status: ('A' for Active; 'I' for Inactive)
REMARK    1  A    between atoms: C_1  and  C_2
REMARK    2  A    between atoms: C_3  and  C_14
REMARK    3  A    between atoms: C_5  and  C_7
REMARK    4  A    between atoms: C_14  and  S_15
REMARK    5  A    between atoms: S_15  and  C_16
REMARK    6  A    between atoms: N_25  and  C_27
REMARK    7  A    between atoms: C_27  and  C_28
REMARK    8  A    between atoms: C_27  and  C_29
REMARK                            x       y       z     vdW  Elec       q    Type
REMARK                         _______ _______ _______ _____ _____    ______ ____
ROOT
ATOM      1  S   UNL     1       4.640   7.514   1.702  0.00  0.00    -0.080 S 
ENDROOT
BRANCH   1   2
ATOM      2  C   UNL     1       5.301   9.122   1.414  0.00  0.00    +0.192 A 
ATOM      3  N   UNL     1       5.635   9.910   2.473  0.00  0.00    -0.183 NA
ATOM      4  C   UNL     1       6.132  11.144   2.254  0.00  0.00    +0.276 A 
ATOM      5  O   UNL     1       6.436  11.865   3.191  0.00  0.00    -0.266 OA
ATOM      6  C   UNL     1       6.296  11.588   0.927  0.00  0.00    +0.024 A 
ATOM      7  C   UNL     1       5.951  10.758  -0.093  0.00  0.00    +0.049 A 
ATOM      8  N   UNL     1       5.464   9.543   0.176  0.00  0.00    -0.227 NA
ATOM      9  C   UNL     1       6.114  11.163  -1.535  0.00  0.00    +0.037 C 
ATOM     10  C   UNL     1       6.281  12.680  -1.636  0.00  0.00    -0.072 C 
ATOM     11  N   UNL     1       7.329  13.098  -0.691  0.00  0.00    +0.384 N 
ATOM     12  C   UNL     1       6.848  12.967   0.689  0.00  0.00    -0.035 C 
ATOM     13  H   UNL     1       8.200  12.437  -0.817  0.00  0.00    -0.081 HD
BRANCH  11  14
ATOM     14  C   UNL     1       7.770  14.471  -0.967  0.00  0.00    -0.074 C 
ATOM     15  C   UNL     1       8.857  14.869   0.033  0.00  0.00    -0.014 C 
ATOM     16  C   UNL     1       8.331  14.551  -2.388  0.00  0.00    -0.014 C 
ENDBRANCH  11  14
ENDBRANCH   1   2
BRANCH   1  17
ATOM     17  C   UNL     1       4.398   6.963  -0.005  0.00  0.00    +0.136 C 
BRANCH  17  20
ATOM     18  C   UNL     1       6.028   4.295  -0.025  0.00  0.00    +0.088 C 
ATOM     19  C   UNL     1       4.527   4.422  -0.015  0.00  0.00    +0.127 A 
ATOM     20  C   UNL     1       3.824   5.569  -0.006  0.00  0.00    +0.093 A 
ATOM     21  N   UNL     1       2.520   5.253   0.002  0.00  0.00    -0.213 NA
ATOM     22  C   UNL     1       2.406   3.945  -0.003  0.00  0.00    +0.228 A 
ATOM     23  O   UNL     1       3.638   3.409  -0.008  0.00  0.00    -0.440 OA
BRANCH  22  24
ATOM     24  C   UNL     1       1.135   3.190   0.003  0.00  0.00    +0.038 A 
ATOM     25  C   UNL     1       1.150   1.794  -0.003  0.00  0.00    +0.013 A 
ATOM     26  C   UNL     1      -0.039   1.094   0.003  0.00  0.00    +0.002 A 
ATOM     27  C   UNL     1      -1.245   1.772   0.008  0.00  0.00    +0.020 A 
ATOM     28  C   UNL     1      -1.267   3.156   0.019  0.00  0.00    +0.042 A 
ATOM     29  C   UNL     1      -0.084   3.869   0.014  0.00  0.00    +0.033 A 
ATOM     30 CL   UNL     1      -2.785   3.999   0.032  0.00  0.00    -0.084 Cl
ENDBRANCH  22  24
ENDBRANCH  17  20
ENDBRANCH   1  17
TORSDOF 5
