REMARK  Name = ZINC66119107
REMARK  6 active torsions:
REMARK  status: ('A' for Active; 'I' for Inactive)
REMARK    1  A    between atoms: C_1  and  C_2
REMARK    2  A    between atoms: C_2  and  C_4
REMARK    3  A    between atoms: C_2  and  N_11
REMARK    4  A    between atoms: C_18  and  C_21
REMARK    5  A    between atoms: C_21  and  C_22
REMARK    6  A    between atoms: C_22  and  C_23
REMARK                            x       y       z     vdW  Elec       q    Type
REMARK                         _______ _______ _______ _____ _____    ______ ____
ROOT
ATOM      1  N   UNL     1      -1.414  -0.530  -0.053  0.00  0.00    -0.293 N 
ATOM      2  C   UNL     1      -1.984  -0.751  -1.254  0.00  0.00    +0.303 C 
ATOM      3  O   UNL     1      -1.334  -0.609  -2.272  0.00  0.00    -0.253 OA
ATOM      4  N   UNL     1      -3.276  -1.130  -1.327  0.00  0.00    -0.285 N 
ATOM      5  C   UNL     1      -4.044  -1.409  -0.107  0.00  0.00    +0.109 C 
ATOM      6  C   UNL     1      -5.325  -0.568  -0.128  0.00  0.00    +0.019 C 
ATOM      7  C   UNL     1      -6.088  -0.840  -1.426  0.00  0.00    +0.006 C 
ATOM      8  C   UNL     1      -5.223  -0.434  -2.622  0.00  0.00    +0.007 C 
ATOM      9  C   UNL     1      -3.943  -1.267  -2.629  0.00  0.00    +0.112 C 
ATOM     10  H   UNL     1      -1.907  -0.718   0.760  0.00  0.00    +0.151 HD
ENDROOT
BRANCH   1  12
ATOM     11  C   UNL     1      -0.090   1.524   0.035  0.00  0.00    +0.033 C 
ATOM     12  C   UNL     1      -0.048  -0.005   0.023  0.00  0.00    +0.103 C 
BRANCH  12  13
ATOM     13  C   UNL     1       0.610  -0.499   1.286  0.00  0.00    -0.009 A 
ATOM     14  C   UNL     1      -0.162  -0.822   2.387  0.00  0.00    +0.007 A 
ATOM     15  C   UNL     1       0.442  -1.275   3.545  0.00  0.00    +0.000 A 
ATOM     16  C   UNL     1       1.817  -1.406   3.603  0.00  0.00    +0.001 A 
ATOM     17  C   UNL     1       2.589  -1.084   2.503  0.00  0.00    +0.020 A 
ATOM     18  C   UNL     1       1.985  -0.635   1.341  0.00  0.00    +0.046 A 
ATOM     19 CL   UNL     1       2.954  -0.237  -0.043  0.00  0.00    -0.083 Cl
ENDBRANCH  12  13
ENDBRANCH   1  12
BRANCH   8  20
ATOM     20  C   UNL     1      -5.999  -0.675  -3.919  0.00  0.00    +0.014 C 
BRANCH  20  21
ATOM     21  C   UNL     1      -5.185  -0.153  -5.105  0.00  0.00    +0.096 C 
BRANCH  21  22
ATOM     22  C   UNL     1      -5.950  -0.391  -6.381  0.00  0.00    +0.210 C 
ATOM     23  O   UNL     1      -7.038  -0.924  -6.346  0.00  0.00    -0.276 OA
ATOM     24  N   UNL     1      -5.424  -0.010  -7.562  0.00  0.00    -0.329 N 
ATOM     25  H   UNL     1      -4.553   0.417  -7.590  0.00  0.00    +0.145 HD
ATOM     26  H   UNL     1      -5.916  -0.163  -8.384  0.00  0.00    +0.145 HD
ENDBRANCH  21  22
ENDBRANCH  20  21
ENDBRANCH   8  20
TORSDOF 5
