REMARK  Name = ZINC64644838
REMARK  7 active torsions:
REMARK  status: ('A' for Active; 'I' for Inactive)
REMARK    1  A    between atoms: C_1  and  C_2
REMARK    2  A    between atoms: C_2  and  C_3
REMARK    3  A    between atoms: C_2  and  N_15
REMARK    4  A    between atoms: C_5  and  C_8
REMARK    5  A    between atoms: N_18  and  C_19
REMARK    6  A    between atoms: C_19  and  C_20
REMARK    7  A    between atoms: C_20  and  C_21
REMARK                            x       y       z     vdW  Elec       q    Type
REMARK                         _______ _______ _______ _____ _____    ______ ____
ROOT
ATOM      1  N   UNL     1       0.711  -0.489   1.189  0.00  0.00    -0.288 N 
ATOM      2  C   UNL     1       2.054  -0.600   1.174  0.00  0.00    +0.300 C 
ATOM      3  O   UNL     1       2.677  -0.297   0.175  0.00  0.00    -0.253 OA
ATOM      4  N   UNL     1       2.706  -1.046   2.266  0.00  0.00    -0.299 N 
ATOM      5  H   UNL     1       0.213  -0.731   1.986  0.00  0.00    +0.151 HD
ATOM      6  H   UNL     1       2.208  -1.288   3.062  0.00  0.00    +0.150 HD
ENDROOT
BRANCH   1   8
ATOM      7  C   UNL     1      -0.019   1.526   0.010  0.00  0.00    +0.038 C 
ATOM      8  C   UNL     1       0.002  -0.004   0.002  0.00  0.00    +0.160 C 
BRANCH   8   9
ATOM      9  C   UNL     1      -1.412  -0.526   0.013  0.00  0.00    +0.248 A 
ATOM     10  N   UNL     1      -2.039  -1.045  -1.004  0.00  0.00    -0.190 NA
ATOM     11  C   UNL     1      -3.284  -1.405  -0.642  0.00  0.00    +0.202 A 
ATOM     12  N   UNL     1      -3.453  -1.111   0.624  0.00  0.00    -0.056 NA
ATOM     13  O   UNL     1      -2.233  -0.539   1.071  0.00  0.00    -0.336 OA
BRANCH  11  14
ATOM     14  C   UNL     1      -4.296  -2.030  -1.528  0.00  0.00    +0.023 A 
ATOM     15  C   UNL     1      -3.988  -2.298  -2.861  0.00  0.00    +0.014 A 
ATOM     16  C   UNL     1      -4.932  -2.880  -3.682  0.00  0.00    +0.039 A 
ATOM     17  C   UNL     1      -6.185  -3.199  -3.183  0.00  0.00    +0.123 A 
ATOM     18  C   UNL     1      -6.495  -2.934  -1.858  0.00  0.00    +0.039 A 
ATOM     19  C   UNL     1      -5.555  -2.357  -1.029  0.00  0.00    +0.014 A 
ATOM     20  F   UNL     1      -7.106  -3.769  -3.989  0.00  0.00    -0.205 F 
ENDBRANCH  11  14
ENDBRANCH   8   9
ENDBRANCH   1   8
BRANCH   4  21
ATOM     21  C   UNL     1       4.166  -1.166   2.249  0.00  0.00    +0.110 C 
BRANCH  21  22
ATOM     22  C   UNL     1       4.649  -1.692   3.602  0.00  0.00    +0.059 C 
BRANCH  22  23
ATOM     23  C   UNL     1       6.151  -1.815   3.585  0.00  0.00    +0.024 A 
ATOM     24  C   UNL     1       6.745  -2.995   3.170  0.00  0.00    +0.129 A 
ATOM     25  C   UNL     1       8.125  -3.107   3.155  0.00  0.00    +0.039 A 
ATOM     26  C   UNL     1       8.910  -2.042   3.554  0.00  0.00    +0.006 A 
ATOM     27  C   UNL     1       8.318  -0.864   3.969  0.00  0.00    +0.039 A 
ATOM     28  C   UNL     1       6.939  -0.747   3.979  0.00  0.00    +0.129 A 
ATOM     29  F   UNL     1       6.361   0.407   4.379  0.00  0.00    -0.205 F 
ATOM     30  F   UNL     1       5.978  -4.036   2.780  0.00  0.00    -0.205 F 
ENDBRANCH  22  23
ENDBRANCH  21  22
ENDBRANCH   4  21
TORSDOF 6
