REMARK  Name = ZINC48949627
REMARK  5 active torsions:
REMARK  status: ('A' for Active; 'I' for Inactive)
REMARK    1  A    between atoms: C_1  and  N_2
REMARK    2  A    between atoms: N_5  and  N_6
REMARK    3  A    between atoms: C_7  and  C_9
REMARK    4  A    between atoms: C_12  and  S_15
REMARK    5  A    between atoms: S_15  and  C_16
REMARK                            x       y       z     vdW  Elec       q    Type
REMARK                         _______ _______ _______ _____ _____    ______ ____
ROOT
ATOM      1  N   UNL     1       0.016  -2.726   0.027  0.00  0.00    -0.229 N 
ATOM      2  C   UNL     1       0.035  -4.074   0.020  0.00  0.00    +0.260 C 
ATOM      3  O   UNL     1       0.561  -4.670  -0.900  0.00  0.00    -0.269 OA
ATOM      4  H   UNL     1      -0.403  -2.251   0.761  0.00  0.00    +0.173 HD
ENDROOT
BRANCH   1   9
ATOM      5  C   UNL     1      -0.018   1.461   0.010  0.00  0.00    +0.129 C 
ATOM      6  N   UNL     1       0.002  -0.004   0.002  0.00  0.00    -0.301 N 
ATOM      7  C   UNL     1       0.585  -0.664  -1.018  0.00  0.00    +0.316 C 
ATOM      8  O   UNL     1       1.095  -0.045  -1.931  0.00  0.00    -0.251 OA
ATOM      9  N   UNL     1       0.603  -2.012  -1.025  0.00  0.00    -0.218 N 
ATOM     10  H   UNL     1      -0.404  -0.499   0.731  0.00  0.00    +0.150 HD
ATOM     11  H   UNL     1       1.023  -2.487  -1.760  0.00  0.00    +0.174 HD
ENDBRANCH   1   9
BRANCH   2  12
ATOM     12  C   UNL     1      -0.583  -4.826   1.128  0.00  0.00    +0.038 A 
ATOM     13  C   UNL     1      -1.194  -4.142   2.184  0.00  0.00    +0.014 A 
ATOM     14  C   UNL     1      -1.767  -4.844   3.212  0.00  0.00    +0.016 A 
ATOM     15  C   UNL     1      -1.742  -6.237   3.206  0.00  0.00    +0.016 A 
ATOM     16  C   UNL     1      -1.135  -6.920   2.156  0.00  0.00    +0.016 A 
ATOM     17  C   UNL     1      -0.565  -6.224   1.121  0.00  0.00    +0.014 A 
BRANCH  15  18
ATOM     18  S   UNL     1      -2.480  -7.135   4.530  0.00  0.00    -0.016 S 
BRANCH  18  19
ATOM     19  C   UNL     1      -2.204  -8.873   4.090  0.00  0.00    +0.448 C 
ATOM     20  F   UNL     1      -0.829  -9.115   3.989  0.00  0.00    -0.160 F 
ATOM     21  F   UNL     1      -2.752  -9.697   5.078  0.00  0.00    -0.160 F 
ATOM     22  F   UNL     1      -2.816  -9.146   2.862  0.00  0.00    -0.160 F 
ENDBRANCH  18  19
ENDBRANCH  15  18
ENDBRANCH   2  12
TORSDOF 4
