REMARK  Name = ZINC64087679
REMARK  8 active torsions:
REMARK  status: ('A' for Active; 'I' for Inactive)
REMARK    1  A    between atoms: C_1  and  C_2
REMARK    2  A    between atoms: C_2  and  C_3
REMARK    3  A    between atoms: C_3  and  C_4
REMARK    4  A    between atoms: C_4  and  C_5
REMARK    5  A    between atoms: C_5  and  C_7
REMARK    6  A    between atoms: C_5  and  N_25
REMARK    7  A    between atoms: C_12  and  C_15
REMARK    8  A    between atoms: C_17  and  C_24
REMARK                            x       y       z     vdW  Elec       q    Type
REMARK                         _______ _______ _______ _____ _____    ______ ____
ROOT
ATOM      1  C   UNL     1       1.552  -4.110  -2.541  0.00  0.00    +0.236 C 
ATOM      2  O   UNL     1       2.604  -4.712  -2.488  0.00  0.00    -0.274 OA
ATOM      3  N   UNL     1       0.394  -4.788  -2.659  0.00  0.00    -0.296 N 
ATOM      4  C   UNL     1       0.360  -6.260  -2.612  0.00  0.00    +0.113 C 
ATOM      5  C   UNL     1      -0.470  -6.676  -1.395  0.00  0.00    +0.054 C 
ATOM      6  C   UNL     1      -1.737  -5.875  -1.327  0.00  0.00    -0.043 C 
ATOM      7  C   UNL     1      -1.925  -4.723  -1.960  0.00  0.00    -0.004 C 
ATOM      8  C   UNL     1      -0.886  -4.088  -2.836  0.00  0.00    +0.135 C 
ENDROOT
BRANCH   6   9
ATOM      9  C   UNL     1      -2.795  -6.378  -0.543  0.00  0.00    -0.016 C 
ATOM     10  C   UNL     1      -3.761  -7.298  -0.927  0.00  0.00    +0.006 A 
ATOM     11  C   UNL     1      -3.995  -7.988  -2.140  0.00  0.00    -0.041 A 
ATOM     12  C   UNL     1      -5.039  -8.847  -2.233  0.00  0.00    +0.004 A 
ATOM     13  C   UNL     1      -5.902  -9.074  -1.156  0.00  0.00    +0.002 A 
ATOM     14  C   UNL     1      -5.740  -8.450   0.035  0.00  0.00    +0.026 A 
ATOM     15  C   UNL     1      -4.668  -7.534   0.211  0.00  0.00    +0.043 A 
ATOM     16  N   UNL     1      -4.301  -6.812   1.248  0.00  0.00    -0.380 N 
ATOM     17  C   UNL     1      -3.110  -6.033   0.896  0.00  0.00    +0.149 C 
ATOM     18  C   UNL     1      -3.087  -7.769  -3.322  0.00  0.00    +0.044 C 
ATOM     19  H   UNL     1      -4.745  -6.801   2.110  0.00  0.00    +0.160 HD
ENDBRANCH   6   9
BRANCH   1  20
ATOM     20  C   UNL     1       1.541  -2.605  -2.473  0.00  0.00    +0.158 C 
BRANCH  20  21
ATOM     21  N   UNL     1       2.831  -2.086  -2.934  0.00  0.00    -0.316 N 
ATOM     22  C   UNL     1       2.916  -0.811  -3.451  0.00  0.00    +0.150 C 
ATOM     23  N   UNL     1       1.861  -0.064  -3.528  0.00  0.00    -0.113 NA
ATOM     24  S   UNL     1       2.372   1.381  -4.199  0.00  0.00    +0.101 S 
ATOM     25  O   UNL     1       2.257   2.386  -3.201  0.00  0.00    -0.146 OA
ATOM     26  O   UNL     1       1.788   1.490  -5.490  0.00  0.00    -0.146 OA
ATOM     27  C   UNL     1       4.094   1.025  -4.411  0.00  0.00    +0.123 A 
ATOM     28  C   UNL     1       4.207  -0.281  -3.916  0.00  0.00    +0.043 A 
ATOM     29  C   UNL     1       5.479  -0.873  -3.938  0.00  0.00    +0.013 A 
ATOM     30  C   UNL     1       6.561  -0.175  -4.428  0.00  0.00    +0.001 A 
ATOM     31  C   UNL     1       6.420   1.115  -4.905  0.00  0.00    +0.002 A 
ATOM     32  C   UNL     1       5.167   1.712  -4.900  0.00  0.00    +0.030 A 
ATOM     33  H   UNL     1       3.626  -2.639  -2.875  0.00  0.00    +0.148 HD
ENDBRANCH  20  21
BRANCH  20  34
ATOM     34  C   UNL     1       1.299  -2.161  -1.029  0.00  0.00    +0.032 C 
BRANCH  34  35
ATOM     35  C   UNL     1       1.143  -0.639  -0.983  0.00  0.00    +0.002 C 
BRANCH  35  37
ATOM     36  C   UNL     1       0.746   1.326   0.508  0.00  0.00    +0.004 C 
ATOM     37  C   UNL     1       0.901  -0.195   0.462  0.00  0.00    -0.003 C 
ENDBRANCH  35  37
ENDBRANCH  34  35
ENDBRANCH  20  34
ENDBRANCH   1  20
TORSDOF 6
