REMARK  Name = ZINC22343745
REMARK  15 active torsions:
REMARK  status: ('A' for Active; 'I' for Inactive)
REMARK    1  A    between atoms: C_1  and  C_2
REMARK    2  A    between atoms: C_2  and  C_3
REMARK    3  A    between atoms: N_9  and  C_10
REMARK    4  A    between atoms: C_10  and  C_11
REMARK    5  A    between atoms: C_11  and  C_12
REMARK    6  A    between atoms: C_12  and  N_13
REMARK    7  A    between atoms: C_14  and  C_16
REMARK    8  A    between atoms: C_16  and  N_17
REMARK    9  A    between atoms: N_17  and  C_18
REMARK   10  A    between atoms: N_17  and  S_26
REMARK   11  A    between atoms: C_21  and  O_24
REMARK   12  A    between atoms: O_24  and  C_25
REMARK   13  A    between atoms: S_26  and  C_29
REMARK   14  A    between atoms: C_32  and  C_38
REMARK   15  A    between atoms: C_33  and  N_35
REMARK                            x       y       z     vdW  Elec       q    Type
REMARK                         _______ _______ _______ _____ _____    ______ ____
ROOT
ATOM      1  N   UNL     1      -0.006   4.969 -10.317  0.00  0.00    -0.194 N 
ENDROOT
BRANCH   1   2
ATOM      2  C   UNL     1      -0.736   4.356 -11.342  0.00  0.00    +0.052 A 
ATOM      3  C   UNL     1      -0.573   4.773 -12.656  0.00  0.00    +0.028 A 
ATOM      4  C   UNL     1      -1.290   4.165 -13.668  0.00  0.00    +0.047 A 
ATOM      5  C   UNL     1      -2.181   3.144 -13.369  0.00  0.00    +0.120 A 
ATOM      6  C   UNL     1      -2.349   2.731 -12.056  0.00  0.00    +0.047 A 
ATOM      7  C   UNL     1      -1.629   3.335 -11.044  0.00  0.00    +0.028 A 
BRANCH   5   8
ATOM      8  O   UNL     1      -2.890   2.549 -14.365  0.00  0.00    -0.495 OA
ATOM      9  C   UNL     1      -2.668   3.025 -15.694  0.00  0.00    +0.277 C 
ENDBRANCH   5   8
ENDBRANCH   1   2
BRANCH   1  10
ATOM     10  S   UNL     1       0.524   6.527 -10.495  0.00  0.00    +0.075 S 
ATOM     11  O   UNL     1      -0.279   7.116 -11.509  0.00  0.00    -0.150 OA
ATOM     12  O   UNL     1       0.624   7.075  -9.188  0.00  0.00    -0.150 OA
BRANCH  10  13
ATOM     13  C   UNL     1       2.164   6.450 -11.135  0.00  0.00    +0.111 A 
ATOM     14  C   UNL     1       3.233   6.265 -10.277  0.00  0.00    +0.029 A 
ATOM     15  C   UNL     1       4.519   6.199 -10.779  0.00  0.00    +0.007 A 
ATOM     16  C   UNL     1       4.738   6.329 -12.138  0.00  0.00    -0.020 A 
ATOM     17  C   UNL     1       3.670   6.520 -12.995  0.00  0.00    +0.131 A 
ATOM     18  C   UNL     1       2.383   6.580 -12.493  0.00  0.00    +0.061 A 
ATOM     19  C   UNL     1       6.140   6.263 -12.685  0.00  0.00    +0.046 C 
BRANCH  17  20
ATOM     20  N   UNL     1       3.905   6.659 -14.450  0.00  0.00    +0.057 N 
ATOM     21  O   UNL     1       2.967   6.855 -15.202  0.00  0.00    -0.126 OA
ATOM     22  O   UNL     1       5.035   6.577 -14.895  0.00  0.00    -0.126 OA
ENDBRANCH  17  20
ENDBRANCH  10  13
ENDBRANCH   1  10
BRANCH   1  23
ATOM     23  C   UNL     1       0.290   4.231  -9.086  0.00  0.00    +0.227 C 
BRANCH  23  25
ATOM     24  N   UNL     1      -0.824   3.752  -6.931  0.00  0.00    -0.314 N 
ATOM     25  C   UNL     1      -0.872   4.354  -8.135  0.00  0.00    +0.232 C 
ATOM     26  O   UNL     1      -1.851   4.995  -8.454  0.00  0.00    -0.274 OA
ATOM     27  H   UNL     1       0.064   3.171  -6.641  0.00  0.00    +0.149 HD
BRANCH  24  28
ATOM     28  C   UNL     1      -1.954   3.872  -6.006  0.00  0.00    +0.102 C 
BRANCH  28  29
ATOM     29  C   UNL     1      -1.645   3.101  -4.721  0.00  0.00    +0.000 C 
BRANCH  29  30
ATOM     30  C   UNL     1      -2.825   3.226  -3.755  0.00  0.00    -0.077 C 
BRANCH  30  36
ATOM     31  C   UNL     1      -3.455   2.864  -1.446  0.00  0.00    -0.069 C 
ATOM     32  C   UNL     1      -3.028   2.186  -0.141  0.00  0.00    -0.015 C 
ATOM     33  C   UNL     1      -3.033   0.667  -0.335  0.00  0.00    -0.003 C 
ATOM     34  C   UNL     1      -2.098   0.305  -1.493  0.00  0.00    -0.019 C 
ATOM     35  C   UNL     1      -2.552   1.038  -2.757  0.00  0.00    -0.078 C 
ATOM     36  N   UNL     1      -2.529   2.487  -2.521  0.00  0.00    +0.382 N 
ATOM     37  H   UNL     1      -1.512   2.757  -2.199  0.00  0.00    -0.081 HD
BRANCH  31  39
ATOM     38  C   UNL     1      -1.996   4.842  -0.993  0.00  0.00    +0.002 C 
ATOM     39  C   UNL     1      -3.431   4.383  -1.262  0.00  0.00    -0.019 C 
ENDBRANCH  31  39
ENDBRANCH  30  36
ENDBRANCH  29  30
ENDBRANCH  28  29
ENDBRANCH  24  28
ENDBRANCH  23  25
ENDBRANCH   1  23
TORSDOF 12
