REMARK  Name = ZINC06550019
REMARK  6 active torsions:
REMARK  status: ('A' for Active; 'I' for Inactive)
REMARK    1  A    between atoms: C_4  and  C_7
REMARK    2  A    between atoms: C_12  and  C_14
REMARK    3  A    between atoms: C_14  and  S_15
REMARK    4  A    between atoms: S_15  and  C_16
REMARK    5  A    between atoms: C_18  and  C_27
REMARK    6  A    between atoms: N_19  and  C_21
REMARK                            x       y       z     vdW  Elec       q    Type
REMARK                         _______ _______ _______ _____ _____    ______ ____
ROOT
ATOM      1  S   UNL     1       5.405  -6.389  -0.083  0.00  0.00    -0.075 S 
ENDROOT
BRANCH   1   2
ATOM      2  C   UNL     1       4.099  -7.572  -0.077  0.00  0.00    +0.210 A 
ATOM      3  N   UNL     1       4.252  -8.900  -0.090  0.00  0.00    -0.205 NA
ATOM      4  C   UNL     1       3.079  -9.481  -0.076  0.00  0.00    +0.137 A 
ATOM      5  N   UNL     1       2.135  -8.521  -0.063  0.00  0.00    -0.216 N 
ATOM      6  N   UNL     1       2.816  -7.293  -0.063  0.00  0.00    -0.138 NA
BRANCH   5   7
ATOM      7  C   UNL     1       0.746  -8.710  -0.052  0.00  0.00    +0.067 A 
ATOM      8  C   UNL     1       0.183  -9.773  -0.746  0.00  0.00    +0.028 A 
ATOM      9  C   UNL     1      -1.185  -9.960  -0.729  0.00  0.00    +0.002 A 
ATOM     10  C   UNL     1      -1.995  -9.084  -0.030  0.00  0.00    +0.000 A 
ATOM     11  C   UNL     1      -1.438  -8.021   0.658  0.00  0.00    +0.002 A 
ATOM     12  C   UNL     1      -0.070  -7.832   0.649  0.00  0.00    +0.028 A 
ENDBRANCH   5   7
BRANCH   4  13
ATOM     13  C   UNL     1       2.829 -10.967  -0.081  0.00  0.00    +0.057 C 
ATOM     14  C   UNL     1       4.036 -11.887   0.110  0.00  0.00    +0.012 C 
ATOM     15  C   UNL     1       3.372 -11.771  -1.264  0.00  0.00    +0.012 C 
ENDBRANCH   4  13
ENDBRANCH   1   2
BRANCH   1  16
ATOM     16  C   UNL     1       4.550  -4.790  -0.067  0.00  0.00    +0.175 C 
BRANCH  16  22
ATOM     17  C   UNL     1       3.693  -0.682  -0.037  0.00  0.00    +0.068 C 
ATOM     18  N   UNL     1       3.832  -1.963  -0.041  0.00  0.00    -0.181 NA
ATOM     19  N   UNL     1       5.157  -2.392  -0.060  0.00  0.00    -0.192 N 
ATOM     20  C   UNL     1       6.039  -1.214  -0.062  0.00  0.00    +0.141 C 
ATOM     21  C   UNL     1       5.056  -0.027  -0.047  0.00  0.00    +0.078 C 
ATOM     22  C   UNL     1       5.565  -3.676  -0.071  0.00  0.00    +0.245 C 
ATOM     23  O   UNL     1       6.750  -3.936  -0.083  0.00  0.00    -0.273 OA
BRANCH  17  27
ATOM     24  C   UNL     1      -0.017   1.379   0.010  0.00  0.00    +0.000 A 
ATOM     25  C   UNL     1       1.168   2.094   0.002  0.00  0.00    +0.001 A 
ATOM     26  C   UNL     1       2.377   1.431  -0.013  0.00  0.00    +0.010 A 
ATOM     27  C   UNL     1       2.404   0.034  -0.021  0.00  0.00    -0.002 A 
ATOM     28  C   UNL     1       1.204  -0.681  -0.013  0.00  0.00    +0.010 A 
ATOM     29  C   UNL     1       0.002  -0.004   0.002  0.00  0.00    +0.001 A 
ENDBRANCH  17  27
ENDBRANCH  16  22
ENDBRANCH   1  16
TORSDOF 6
