REMARK  Name = ZINC40590687
REMARK  6 active torsions:
REMARK  status: ('A' for Active; 'I' for Inactive)
REMARK    1  A    between atoms: CD1_1  and  CG_2
REMARK    2  A    between atoms: CG_2  and  CD2_3
REMARK    3  A    between atoms: CG_2  and  CB_4
REMARK    4  A    between atoms: CB_4  and  CA_5
REMARK    5  A    between atoms: CA_5  and  C_7
REMARK    6  A    between atoms: CA_5  and  N_10
REMARK                            x       y       z     vdW  Elec       q    Type
REMARK                         _______ _______ _______ _____ _____    ______ ____
ROOT
ATOM      1  N   LEU A   1      -0.290   1.103   2.662  0.00  0.00    -0.286 N 
ATOM      2  C   UNK A   0      -1.344   1.602   3.339  0.00  0.00    +0.303 C 
ATOM      3  O   UNK A   0      -2.232   0.861   3.712  0.00  0.00    -0.253 OA
ATOM      4  N   UNK A   0      -1.412   2.922   3.602  0.00  0.00    -0.285 N 
ATOM      5  C   UNK A   0      -0.407   3.847   3.060  0.00  0.00    +0.109 C 
ATOM      6  C   UNK A   0       0.190   4.658   4.214  0.00  0.00    +0.023 C 
ATOM      7  C   UNK A   0      -0.939   5.344   4.988  0.00  0.00    -0.005 C 
ATOM      8  C   UNK A   0      -0.337   6.170   6.129  0.00  0.00    +0.004 C 
ATOM      9  C   UNK A   0       0.457   5.248   7.058  0.00  0.00    +0.000 C 
ATOM     10  C   UNK A   0      -0.474   4.181   7.637  0.00  0.00    +0.000 C 
ATOM     11  C   UNK A   0      -1.082   3.360   6.498  0.00  0.00    +0.005 C 
ATOM     12  C   UNK A   0      -1.880   4.285   5.566  0.00  0.00    +0.010 C 
ATOM     13  C   UNK A   0      -2.496   3.466   4.431  0.00  0.00    +0.113 C 
ATOM     14  H   LEU A   1       0.383   1.702   2.302  0.00  0.00    +0.151 HD
ENDROOT
BRANCH   1  15
ATOM     15  CA  LEU A   1      -0.161  -0.344   2.471  0.00  0.00    +0.188 C 
BRANCH  15  16
ATOM     16  C   LEU A   1       0.508  -0.952   3.676  0.00  0.00    +0.376 C 
ATOM     17  O   LEU A   1       1.310  -0.299   4.322  0.00  0.00    -0.244 OA
ATOM     18  OXT LEU A   1       0.249  -2.098   4.004  0.00  0.00    -0.244 OA
ENDBRANCH  15  16
BRANCH  15  19
ATOM     19  CB  LEU A   1       0.682  -0.620   1.224  0.00  0.00    +0.037 C 
BRANCH  19  21
ATOM     20  CD1 LEU A   1       0.874  -0.208  -1.232  0.00  0.00    +0.007 C 
ATOM     21  CG  LEU A   1      -0.033  -0.065  -0.009  0.00  0.00    -0.015 C 
ATOM     22  CD2 LEU A   1      -1.329  -0.845  -0.241  0.00  0.00    +0.007 C 
ENDBRANCH  19  21
ENDBRANCH  15  19
ENDBRANCH   1  15
TORSDOF 4
