REMARK  Name = ZINC16294499
REMARK  6 active torsions:
REMARK  status: ('A' for Active; 'I' for Inactive)
REMARK    1  A    between atoms: C_1  and  C_2
REMARK    2  A    between atoms: C_2  and  C_4
REMARK    3  A    between atoms: C_2  and  O_21
REMARK    4  A    between atoms: C_15  and  C_17
REMARK    5  A    between atoms: O_21  and  C_22
REMARK    6  A    between atoms: C_22  and  C_24
REMARK                            x       y       z     vdW  Elec       q    Type
REMARK                         _______ _______ _______ _____ _____    ______ ____
ROOT
ATOM      1  C   UNL     1      -8.448   2.693  -0.005  0.00  0.00    +0.261 C 
ATOM      2  O   UNL     1      -8.154   1.516   0.036  0.00  0.00    -0.271 OA
ATOM      3  N   UNL     1      -9.718   3.062  -0.263  0.00  0.00    -0.258 N 
ATOM      4  C   UNL     1     -10.079   4.478  -0.424  0.00  0.00    +0.209 C 
ATOM      5  C   UNL     1     -11.379   4.742   0.284  0.00  0.00    +0.235 C 
ATOM      6  O   UNL     1     -11.601   5.846   0.734  0.00  0.00    -0.274 OA
ATOM      7  N   UNL     1     -12.296   3.767   0.430  0.00  0.00    -0.283 N 
ATOM      8  C   UNL     1     -12.043   2.472  -0.035  0.00  0.00    +0.056 A 
ATOM      9  C   UNL     1     -10.740   2.107  -0.381  0.00  0.00    +0.058 A 
ATOM     10  C   UNL     1     -10.473   0.827  -0.830  0.00  0.00    +0.026 A 
ATOM     11  C   UNL     1     -11.503  -0.092  -0.939  0.00  0.00    +0.014 A 
ATOM     12  C   UNL     1     -12.794   0.269  -0.601  0.00  0.00    +0.057 A 
ATOM     13  C   UNL     1     -13.068   1.547  -0.150  0.00  0.00    +0.037 A 
ATOM     14  H   UNL     1     -13.141   3.965   0.862  0.00  0.00    +0.155 HD
ENDROOT
BRANCH  12  15
ATOM     15  C   UNL     1     -13.909  -0.737  -0.725  0.00  0.00    +0.417 C 
ATOM     16  F   UNL     1     -13.394  -1.949  -1.197  0.00  0.00    -0.166 F 
ATOM     17  F   UNL     1     -14.498  -0.937   0.528  0.00  0.00    -0.166 F 
ATOM     18  F   UNL     1     -14.871  -0.258  -1.621  0.00  0.00    -0.166 F 
ENDBRANCH  12  15
BRANCH   1  20
ATOM     19  C   UNL     1      -7.632   4.407   1.590  0.00  0.00    +0.062 C 
ATOM     20  C   UNL     1      -7.392   3.741   0.234  0.00  0.00    +0.259 C 
BRANCH  20  21
ATOM     21  O   UNL     1      -6.080   3.119   0.225  0.00  0.00    -0.452 OA
BRANCH  21  22
ATOM     22  C   UNL     1      -5.051   3.872  -0.192  0.00  0.00    +0.315 C 
ATOM     23  O   UNL     1      -5.239   5.014  -0.538  0.00  0.00    -0.250 OA
BRANCH  22  24
ATOM     24  C   UNL     1      -3.660   3.293  -0.229  0.00  0.00    +0.139 C 
ATOM     25  C   UNL     1      -2.675   4.349  -0.738  0.00  0.00    +0.057 C 
ATOM     26  C   UNL     1      -1.353   3.698  -1.057  0.00  0.00    -0.005 A 
ATOM     27  C   UNL     1      -0.228   4.497  -1.173  0.00  0.00    +0.007 A 
ATOM     28  C   UNL     1       0.999   3.936  -1.469  0.00  0.00    +0.000 A 
ATOM     29  C   UNL     1       1.107   2.569  -1.653  0.00  0.00    +0.004 A 
ATOM     30  C   UNL     1      -0.011   1.768  -1.538  0.00  0.00    +0.046 A 
ATOM     31  C   UNL     1      -1.249   2.331  -1.243  0.00  0.00    +0.124 A 
ATOM     32  O   UNL     1      -2.323   1.508  -1.123  0.00  0.00    -0.491 OA
ATOM     33  C   UNL     1      -3.623   2.097  -1.188  0.00  0.00    +0.244 C 
ENDBRANCH  22  24
ENDBRANCH  21  22
ENDBRANCH  20  21
ENDBRANCH   1  20
TORSDOF 5
