REMARK  Name = ZINC56946381
REMARK  9 active torsions:
REMARK  status: ('A' for Active; 'I' for Inactive)
REMARK    1  A    between atoms: C_1  and  O_2
REMARK    2  A    between atoms: O_2  and  C_3
REMARK    3  A    between atoms: C_6  and  N_9
REMARK    4  A    between atoms: N_12  and  C_15
REMARK    5  A    between atoms: C_15  and  C_17
REMARK    6  A    between atoms: C_15  and  C_32
REMARK    7  A    between atoms: C_17  and  N_18
REMARK    8  A    between atoms: N_18  and  S_19
REMARK    9  A    between atoms: S_19  and  C_22
REMARK                            x       y       z     vdW  Elec       q    Type
REMARK                         _______ _______ _______ _____ _____    ______ ____
ROOT
ATOM      1  C   UNL     1      -8.085  -4.456   2.006  0.00  0.00    +0.139 C 
ENDROOT
BRANCH   1   5
ATOM      2  N   UNL     1      -4.889  -2.581   0.035  0.00  0.00    -0.327 N 
ATOM      3  C   UNL     1      -6.142  -1.820   0.150  0.00  0.00    +0.120 C 
ATOM      4  C   UNL     1      -6.980  -2.428   1.280  0.00  0.00    +0.104 C 
ATOM      5  N   UNL     1      -7.147  -3.868   1.041  0.00  0.00    -0.289 NA
ATOM      6  C   UNL     1      -5.855  -4.566   1.069  0.00  0.00    +0.104 C 
ATOM      7  C   UNL     1      -4.972  -4.045  -0.076  0.00  0.00    +0.120 C 
BRANCH   2  11
ATOM      8  C   UNL     1      -1.201  -0.638   0.008  0.00  0.00    +0.120 A 
ATOM      9  C   UNL     1      -1.254  -2.024   0.022  0.00  0.00    +0.047 A 
ATOM     10  C   UNL     1      -2.476  -2.668   0.032  0.00  0.00    +0.027 A 
ATOM     11  C   UNL     1      -3.651  -1.928   0.027  0.00  0.00    +0.030 A 
ATOM     12  C   UNL     1      -3.597  -0.541   0.012  0.00  0.00    +0.027 A 
ATOM     13  C   UNL     1      -2.374   0.102   0.009  0.00  0.00    +0.047 A 
BRANCH   8  15
ATOM     14  C   UNL     1       1.169  -0.828  -0.001  0.00  0.00    +0.277 C 
ATOM     15  O   UNL     1       0.002  -0.004  -0.001  0.00  0.00    -0.495 OA
ENDBRANCH   8  15
ENDBRANCH   2  11
ENDBRANCH   1   5
BRANCH   1  16
ATOM     16  C   UNL     1      -7.501  -4.366   3.393  0.00  0.00    +0.123 A 
ATOM     17  C   UNL     1      -8.182  -4.071   4.515  0.00  0.00    +0.046 A 
ATOM     18  C   UNL     1      -7.250  -4.095   5.577  0.00  0.00    +0.041 A 
ATOM     19  C   UNL     1      -6.055  -4.404   5.041  0.00  0.00    +0.195 A 
ATOM     20  O   UNL     1      -6.215  -4.572   3.718  0.00  0.00    -0.466 OA
ENDBRANCH   1  16
BRANCH   1  21
ATOM     21  C   UNL     1      -8.329  -5.924   1.650  0.00  0.00    +0.132 C 
BRANCH  21  22
ATOM     22  N   UNL     1      -8.783  -6.020   0.261  0.00  0.00    -0.188 NA
ATOM     23  H   UNL     1      -9.092  -5.227  -0.205  0.00  0.00    +0.148 HD
BRANCH  22  24
ATOM     24  S   UNL     1      -8.771  -7.483  -0.515  0.00  0.00    +0.059 S 
ATOM     25  O   UNL     1      -9.287  -7.256  -1.820  0.00  0.00    -0.153 OA
ATOM     26  O   UNL     1      -7.487  -8.050  -0.292  0.00  0.00    -0.153 OA
BRANCH  24  27
ATOM     27  C   UNL     1      -9.930  -8.521   0.311  0.00  0.00    +0.109 A 
ATOM     28  C   UNL     1      -9.520  -9.306   1.373  0.00  0.00    +0.032 A 
ATOM     29  C   UNL     1     -10.426 -10.122   2.023  0.00  0.00    +0.051 A 
ATOM     30  C   UNL     1     -11.750 -10.156   1.611  0.00  0.00    +0.162 A 
ATOM     31  C   UNL     1     -12.163  -9.365   0.545  0.00  0.00    +0.164 A 
ATOM     32  C   UNL     1     -11.249  -8.546  -0.100  0.00  0.00    +0.078 A 
ATOM     33  O   UNL     1     -13.460  -9.377   0.131  0.00  0.00    -0.485 OA
ATOM     34  C   UNL     1     -14.263 -10.481   0.562  0.00  0.00    +0.270 C 
ATOM     35  C   UNL     1     -14.022 -10.693   2.063  0.00  0.00    +0.270 C 
ATOM     36  O   UNL     1     -12.630 -10.967   2.259  0.00  0.00    -0.485 OA
ENDBRANCH  24  27
ENDBRANCH  22  24
ENDBRANCH  21  22
ENDBRANCH   1  21
TORSDOF 8
