REMARK  Name = ZINC38676198
REMARK  9 active torsions:
REMARK  status: ('A' for Active; 'I' for Inactive)
REMARK    1  A    between atoms: C_1  and  C_2
REMARK    2  A    between atoms: C_2  and  O_3
REMARK    3  A    between atoms: O_3  and  C_4
REMARK    4  A    between atoms: C_4  and  C_6
REMARK    5  A    between atoms: C_8  and  N_16
REMARK    6  A    between atoms: N_17  and  N_18
REMARK    7  A    between atoms: C_20  and  C_29
REMARK    8  A    between atoms: C_25  and  C_27
REMARK    9  A    between atoms: C_25  and  C_28
REMARK                            x       y       z     vdW  Elec       q    Type
REMARK                         _______ _______ _______ _____ _____    ______ ____
ROOT
ATOM      1  C   UNL     1       1.468  -2.353  -2.550  0.00  0.00    +0.240 C 
ATOM      2  C   UNL     1       0.525  -2.353  -3.733  0.00  0.00    +0.107 C 
ATOM      3  C   UNL     1       0.397  -3.676  -4.109  0.00  0.00    +0.024 A 
ATOM      4  C   UNL     1      -0.338  -4.317  -5.137  0.00  0.00    +0.012 A 
ATOM      5  C   UNL     1      -0.278  -5.659  -5.281  0.00  0.00    +0.001 A 
ATOM      6  C   UNL     1       0.496  -6.471  -4.441  0.00  0.00    +0.002 A 
ATOM      7  C   UNL     1       1.235  -5.957  -3.431  0.00  0.00    +0.026 A 
ATOM      8  C   UNL     1       1.225  -4.506  -3.206  0.00  0.00    +0.045 A 
ATOM      9  N   UNL     1       1.833  -3.755  -2.322  0.00  0.00    -0.367 N 
ATOM     10  H   UNL     1       2.430  -4.075  -1.627  0.00  0.00    +0.161 HD
ENDROOT
BRANCH   1  11
ATOM     11  C   UNL     1       0.775  -1.794  -1.334  0.00  0.00    +0.336 C 
ATOM     12  O   UNL     1       0.314  -2.540  -0.504  0.00  0.00    -0.248 OA
BRANCH  11  13
ATOM     13  O   UNL     1       0.671  -0.465  -1.174  0.00  0.00    -0.463 OA
BRANCH  13  15
ATOM     14  C   UNL     1      -0.019   1.526   0.010  0.00  0.00    +0.048 C 
ATOM     15  C   UNL     1       0.002  -0.004   0.002  0.00  0.00    +0.229 C 
ENDBRANCH  13  15
ENDBRANCH  11  13
ENDBRANCH   1  11
BRANCH   2  16
ATOM     16  N   UNL     1      -0.067  -1.284  -4.301  0.00  0.00    -0.136 NA
ATOM     17  N   UNL     1      -0.822  -1.437  -5.273  0.00  0.00    -0.097 NA
BRANCH  17  18
ATOM     18  N   UNL     1      -1.423  -0.351  -5.850  0.00  0.00    -0.309 NA
ATOM     19  C   UNL     1      -0.399   0.495  -6.491  0.00  0.00    +0.110 C 
ATOM     20  C   UNL     1      -0.749   0.545  -7.996  0.00  0.00    -0.014 C 
ATOM     21  C   UNL     1      -1.526  -0.781  -8.208  0.00  0.00    +0.030 C 
ATOM     22  C   UNL     1      -2.360  -0.806  -6.904  0.00  0.00    +0.073 C 
ATOM     23  C   UNL     1      -3.481   0.216  -7.050  0.00  0.00    +0.028 C 
ATOM     24  C   UNL     1      -3.026   1.602  -7.462  0.00  0.00    -0.033 C 
ATOM     25  C   UNL     1      -1.728   1.692  -8.238  0.00  0.00    +0.014 C 
ATOM     26  C   UNL     1      -2.948   2.506  -6.220  0.00  0.00    +0.011 C 
ATOM     27  C   UNL     1      -4.138   2.199  -8.361  0.00  0.00    +0.011 C 
ATOM     28  C   UNL     1       0.503   0.637  -8.882  0.00  0.00    +0.013 C 
ATOM     29  H   UNL     1      -1.917   0.170  -5.145  0.00  0.00    +0.148 HD
ENDBRANCH  17  18
ENDBRANCH   2  16
TORSDOF 5
