REMARK  Name = ZINC53650699
REMARK  12 active torsions:
REMARK  status: ('A' for Active; 'I' for Inactive)
REMARK    1  A    between atoms: C_1  and  C_2
REMARK    2  A    between atoms: C_2  and  O_3
REMARK    3  A    between atoms: O_3  and  C_4
REMARK    4  A    between atoms: N_6  and  C_7
REMARK    5  A    between atoms: C_7  and  C_9
REMARK    6  A    between atoms: C_7  and  C_12
REMARK    7  A    between atoms: C_9  and  C_10
REMARK    8  A    between atoms: C_9  and  C_11
REMARK    9  A    between atoms: C_17  and  C_24
REMARK   10  A    between atoms: C_18  and  S_20
REMARK   11  A    between atoms: S_20  and  C_21
REMARK   12  A    between atoms: C_21  and  C_22
REMARK                            x       y       z     vdW  Elec       q    Type
REMARK                         _______ _______ _______ _____ _____    ______ ____
ROOT
ATOM      1  C   UNL     1       1.651  -4.068  -4.063  0.00  0.00    +0.239 C 
ATOM      2  O   UNL     1       1.656  -3.172  -4.881  0.00  0.00    -0.273 OA
ATOM      3  N   UNL     1       1.772  -5.348  -4.465  0.00  0.00    -0.263 N 
ATOM      4  C   UNL     1       1.903  -5.643  -5.819  0.00  0.00    +0.166 A 
ATOM      5  N   UNL     1       2.026  -6.816  -6.412  0.00  0.00    -0.229 NA
ATOM      6  C   UNL     1       2.141  -6.915  -7.723  0.00  0.00    +0.061 A 
ATOM      7  C   UNL     1       2.132  -5.785  -8.486  0.00  0.00    +0.070 A 
ATOM      8  S   UNL     1       1.940  -4.535  -7.221  0.00  0.00    -0.045 S 
ATOM      9  C   UNL     1       2.281  -8.267  -8.373  0.00  0.00    +0.067 C 
ATOM     10  H   UNL     1       1.768  -6.065  -3.811  0.00  0.00    +0.157 HD
ENDROOT
BRANCH   1  11
ATOM     11  C   UNL     1       1.509  -3.748  -2.597  0.00  0.00    +0.165 C 
BRANCH  11  14
ATOM     12  C   UNL     1       0.776  -1.798  -1.335  0.00  0.00    +0.401 C 
ATOM     13  O   UNL     1       0.312  -2.549  -0.500  0.00  0.00    -0.226 OA
ATOM     14  N   UNL     1       1.395  -2.298  -2.422  0.00  0.00    -0.270 N 
ATOM     15  H   UNL     1       1.765  -1.699  -3.088  0.00  0.00    +0.153 HD
BRANCH  12  16
ATOM     16  O   UNL     1       0.671  -0.465  -1.174  0.00  0.00    -0.451 OA
BRANCH  16  18
ATOM     17  C   UNL     1      -0.019   1.526   0.010  0.00  0.00    +0.048 C 
ATOM     18  C   UNL     1       0.002  -0.004   0.002  0.00  0.00    +0.230 C 
ENDBRANCH  16  18
ENDBRANCH  12  16
ENDBRANCH  11  14
BRANCH  11  19
ATOM     19  C   UNL     1       2.739  -4.258  -1.843  0.00  0.00    +0.012 C 
ATOM     20  C   UNL     1       3.977  -3.488  -2.307  0.00  0.00    +0.009 C 
ATOM     21  C   UNL     1       2.540  -4.046  -0.341  0.00  0.00    +0.009 C 
ENDBRANCH  11  19
ENDBRANCH   1  11
BRANCH   7  22
ATOM     22  S   UNL     1       2.266  -5.607 -10.233  0.00  0.00    -0.101 S 
BRANCH  22  23
ATOM     23  C   UNL     1       2.174  -3.815 -10.500  0.00  0.00    +0.193 C 
BRANCH  23  24
ATOM     24  C   UNL     1       2.276  -3.528 -11.940  0.00  0.00    +0.074 C 
ATOM     25  N   UNL     1       2.354  -3.306 -13.051  0.00  0.00    -0.196 NA
ENDBRANCH  23  24
ENDBRANCH  22  23
ENDBRANCH   7  22
TORSDOF 8
