REMARK  Name = ZINC13959898
REMARK  15 active torsions:
REMARK  status: ('A' for Active; 'I' for Inactive)
REMARK    1  A    between atoms: C_1  and  C_2
REMARK    2  A    between atoms: C_2  and  O_3
REMARK    3  A    between atoms: O_3  and  C_4
REMARK    4  A    between atoms: C_4  and  C_5
REMARK    5  A    between atoms: C_5  and  C_6
REMARK    6  A    between atoms: C_6  and  N_7
REMARK    7  A    between atoms: N_7  and  C_8
REMARK    8  A    between atoms: C_8  and  N_10
REMARK    9  A    between atoms: N_10  and  N_11
REMARK   10  A    between atoms: C_12  and  C_14
REMARK   11  A    between atoms: C_19  and  C_34
REMARK   12  A    between atoms: C_22  and  C_25
REMARK   13  A    between atoms: C_28  and  C_31
REMARK   14  A    between atoms: C_31  and  C_32
REMARK   15  A    between atoms: C_31  and  C_33
REMARK                            x       y       z     vdW  Elec       q    Type
REMARK                         _______ _______ _______ _____ _____    ______ ____
ROOT
ATOM      1  C   UNL     1      -9.403  -4.290   0.069  0.00  0.00    +0.150 A 
ATOM      2  C   UNL     1     -10.795  -4.530   0.086  0.00  0.00    +0.078 A 
ATOM      3  C   UNL     1     -11.415  -3.334   0.098  0.00  0.00    +0.119 A 
ATOM      4  N   UNL     1     -10.458  -2.359   0.086  0.00  0.00    -0.238 N 
ATOM      5  N   UNL     1      -9.211  -2.983   0.074  0.00  0.00    -0.164 NA
ATOM      6  C   UNL     1     -10.758  -0.924   0.088  0.00  0.00    +0.215 C 
ATOM      7  C   UNL     1     -12.205  -0.720  -0.374  0.00  0.00    +0.063 C 
ATOM      8  C   UNL     1     -13.141  -1.641   0.416  0.00  0.00    +0.104 C 
ATOM      9  N   UNL     1     -12.781  -3.042   0.119  0.00  0.00    -0.322 N 
ATOM     10  H   UNL     1     -13.454  -3.720  -0.051  0.00  0.00    +0.148 HD
ENDROOT
BRANCH   8  11
ATOM     11  C   UNL     1     -12.985  -1.376   1.892  0.00  0.00    -0.027 A 
ATOM     12  C   UNL     1     -11.917  -1.919   2.582  0.00  0.00    +0.006 A 
ATOM     13  C   UNL     1     -11.774  -1.676   3.936  0.00  0.00    +0.004 A 
ATOM     14  C   UNL     1     -12.698  -0.890   4.598  0.00  0.00    -0.045 A 
ATOM     15  C   UNL     1     -13.764  -0.346   3.907  0.00  0.00    +0.004 A 
ATOM     16  C   UNL     1     -13.905  -0.586   2.553  0.00  0.00    +0.006 A 
BRANCH  14  17
ATOM     17  C   UNL     1     -12.542  -0.626   6.074  0.00  0.00    +0.013 C 
ATOM     18  C   UNL     1     -12.406   0.880   6.311  0.00  0.00    +0.012 C 
ATOM     19  C   UNL     1     -13.771  -1.151   6.818  0.00  0.00    +0.012 C 
ENDBRANCH  14  17
ENDBRANCH   8  11
BRANCH   1  21
ATOM     20  N   UNL     1      -7.048  -4.956   0.043  0.00  0.00    -0.230 N 
ATOM     21  C   UNL     1      -8.345  -5.321   0.053  0.00  0.00    +0.280 C 
ATOM     22  O   UNL     1      -8.645  -6.500   0.050  0.00  0.00    -0.267 OA
ATOM     23  H   UNL     1      -6.809  -4.016   0.045  0.00  0.00    +0.173 HD
BRANCH  20  24
ATOM     24  N   UNL     1      -6.045  -5.934   0.028  0.00  0.00    -0.246 N 
ATOM     25  H   UNL     1      -6.284  -6.874   0.025  0.00  0.00    +0.172 HD
BRANCH  24  26
ATOM     26  C   UNL     1      -4.747  -5.569   0.018  0.00  0.00    +0.147 C 
ATOM     27  S   UNL     1      -3.522  -6.764  -0.001  0.00  0.00    -0.017 S 
BRANCH  26  28
ATOM     28  N   UNL     1      -4.415  -4.263   0.021  0.00  0.00    -0.325 N 
ATOM     29  H   UNL     1      -5.109  -3.586   0.032  0.00  0.00    +0.148 HD
BRANCH  28  30
ATOM     30  C   UNL     1      -3.005  -3.866   0.010  0.00  0.00    +0.105 C 
BRANCH  30  31
ATOM     31  C   UNL     1      -2.905  -2.339   0.017  0.00  0.00    +0.047 C 
BRANCH  31  32
ATOM     32  C   UNL     1      -1.432  -1.925   0.005  0.00  0.00    +0.161 C 
BRANCH  32  33
ATOM     33  O   UNL     1      -1.339  -0.499   0.012  0.00  0.00    -0.380 OA
BRANCH  33  35
ATOM     34  C   UNL     1      -0.019   1.526   0.010  0.00  0.00    +0.034 C 
ATOM     35  C   UNL     1       0.002  -0.004   0.002  0.00  0.00    +0.156 C 
ENDBRANCH  33  35
ENDBRANCH  32  33
ENDBRANCH  31  32
ENDBRANCH  30  31
ENDBRANCH  28  30
ENDBRANCH  26  28
ENDBRANCH  24  26
ENDBRANCH  20  24
ENDBRANCH   1  21
BRANCH   6  36
ATOM     36  C   UNL     1      -9.806  -0.200  -0.865  0.00  0.00    +0.412 C 
ATOM     37  F   UNL     1      -9.966  -0.706  -2.159  0.00  0.00    -0.168 F 
ATOM     38  F   UNL     1     -10.094   1.169  -0.861  0.00  0.00    -0.168 F 
ATOM     39  F   UNL     1      -8.486  -0.399  -0.446  0.00  0.00    -0.168 F 
ENDBRANCH   6  36
TORSDOF 12
