REMARK  Name = ZINC39012371
REMARK  9 active torsions:
REMARK  status: ('A' for Active; 'I' for Inactive)
REMARK    1  A    between atoms: C_1  and  C_2
REMARK    2  A    between atoms: N_4  and  C_5
REMARK    3  A    between atoms: C_8  and  N_11
REMARK    4  A    between atoms: C_12  and  C_14
REMARK    5  A    between atoms: C_14  and  S_15
REMARK    6  A    between atoms: S_15  and  C_16
REMARK    7  A    between atoms: C_20  and  C_24
REMARK    8  A    between atoms: N_22  and  N_23
REMARK    9  A    between atoms: C_27  and  C_30
REMARK                            x       y       z     vdW  Elec       q    Type
REMARK                         _______ _______ _______ _____ _____    ______ ____
ROOT
ATOM      1  C   UNL     1       0.343 -10.978  -3.203  0.00  0.00    +0.214 C 
ATOM      2  N   UNL     1       1.475 -11.292  -2.300  0.00  0.00    -0.228 NA
ATOM      3  N   UNL     1       0.975 -12.384  -1.451  0.00  0.00    -0.234 NA
ATOM      4  C   UNL     1      -0.445 -12.009  -1.221  0.00  0.00    +0.185 C 
ATOM      5  N   UNL     1      -0.883 -11.435  -2.516  0.00  0.00    -0.197 NA
ATOM      6  H   UNL     1       2.286 -11.583  -2.825  0.00  0.00    +0.143 HD
ATOM      7  H   UNL     1       1.043 -13.272  -1.926  0.00  0.00    +0.143 HD
ENDROOT
BRANCH   4   8
ATOM      8  C   UNL     1      -1.275 -13.246  -0.873  0.00  0.00    +0.187 C 
ATOM      9  C   UNL     1      -0.812 -13.851   0.440  0.00  0.00    +0.034 C 
ATOM     10  C   UNL     1      -0.399 -15.086   0.098  0.00  0.00    +0.091 C 
ATOM     11  N   UNL     1      -0.557 -15.287  -1.237  0.00  0.00    -0.154 NA
ATOM     12  N   UNL     1      -1.036 -14.324  -1.847  0.00  0.00    -0.176 NA
BRANCH  10  13
ATOM     13  C   UNL     1       0.153 -16.087   1.044  0.00  0.00    +0.002 A 
ATOM     14  C   UNL     1       0.268 -15.779   2.399  0.00  0.00    +0.010 A 
ATOM     15  C   UNL     1       0.781 -16.714   3.275  0.00  0.00    +0.001 A 
ATOM     16  C   UNL     1       1.181 -17.954   2.811  0.00  0.00    +0.000 A 
ATOM     17  C   UNL     1       1.069 -18.265   1.468  0.00  0.00    +0.001 A 
ATOM     18  C   UNL     1       0.552 -17.340   0.584  0.00  0.00    +0.010 A 
ENDBRANCH  10  13
ENDBRANCH   4   8
BRANCH   5  19
ATOM     19  N   UNL     1      -1.589 -12.424  -3.313  0.00  0.00    -0.264 NA
ATOM     20  H   UNL     1      -1.857 -12.043  -4.208  0.00  0.00    +0.137 HD
ATOM     21  H   UNL     1      -1.035 -13.259  -3.427  0.00  0.00    +0.137 HD
ENDBRANCH   5  19
BRANCH   1  22
ATOM     22  S   UNL     1       0.261  -9.190  -3.499  0.00  0.00    -0.115 S 
BRANCH  22  23
ATOM     23  C   UNL     1       0.089  -8.478  -1.839  0.00  0.00    +0.168 C 
BRANCH  23  25
ATOM     24  N   UNL     1      -0.123  -6.230  -0.829  0.00  0.00    -0.285 N 
ATOM     25  C   UNL     1       0.009  -6.977  -1.943  0.00  0.00    +0.227 C 
ATOM     26  O   UNL     1       0.062  -6.440  -3.030  0.00  0.00    -0.275 OA
ATOM     27  H   UNL     1      -0.233  -6.661   0.033  0.00  0.00    +0.155 HD
BRANCH  24  31
ATOM     28  C   UNL     1      -0.055  -2.069  -1.087  0.00  0.00    +0.033 A 
ATOM     29  C   UNL     1       0.500  -2.706   0.016  0.00  0.00    +0.025 A 
ATOM     30  C   UNL     1       0.477  -4.083   0.101  0.00  0.00    +0.025 A 
ATOM     31  C   UNL     1      -0.100  -4.833  -0.915  0.00  0.00    +0.034 A 
ATOM     32  C   UNL     1      -0.655  -4.196  -2.018  0.00  0.00    +0.025 A 
ATOM     33  C   UNL     1      -0.637  -2.818  -2.101  0.00  0.00    +0.025 A 
BRANCH  28  37
ATOM     34  C   UNL     1      -1.089   1.493  -1.737  0.00  0.00    +0.109 C 
ATOM     35  C   UNL     1      -1.065  -0.014  -1.737  0.00  0.00    +0.214 C 
ATOM     36  O   UNL     1      -1.975  -0.635  -2.244  0.00  0.00    -0.276 OA
ATOM     37  N   UNL     1      -0.032  -0.671  -1.173  0.00  0.00    -0.286 N 
ATOM     38  H   UNL     1       0.727  -0.176  -0.828  0.00  0.00    +0.155 HD
ENDBRANCH  28  37
ENDBRANCH  24  31
ENDBRANCH  23  25
ENDBRANCH  22  23
ENDBRANCH   1  22
TORSDOF 8
