REMARK  Name = ZINC51036553
REMARK  7 active torsions:
REMARK  status: ('A' for Active; 'I' for Inactive)
REMARK    1  A    between atoms: C_7  and  S_11
REMARK    2  A    between atoms: S_11  and  C_12
REMARK    3  A    between atoms: C_12  and  C_13
REMARK    4  A    between atoms: C_13  and  C_14
REMARK    5  A    between atoms: C_14  and  C_15
REMARK    6  A    between atoms: C_15  and  C_16
REMARK    7  A    between atoms: N_17  and  O_18
REMARK                            x       y       z     vdW  Elec       q    Type
REMARK                         _______ _______ _______ _____ _____    ______ ____
ROOT
ATOM      1  S   UNL     1      -3.106   4.529  -0.271  0.00  0.00    -0.104 S 
ENDROOT
BRANCH   1   8
ATOM      2  C   UNL     1       0.044   1.160  -0.593  0.00  0.00    +0.199 A 
ATOM      3  N   UNL     1       1.086   1.934  -0.716  0.00  0.00    -0.216 NA
ATOM      4  H   UNL     1      -1.983   1.572  -0.381  0.00  0.00    +0.167 HD
ATOM      5  C   UNL     1       0.702   3.224  -0.684  0.00  0.00    +0.182 A 
ATOM      6  C   UNL     1      -0.694   3.229  -0.529  0.00  0.00    +0.117 A 
ATOM      7  N   UNL     1      -1.078   1.906  -0.480  0.00  0.00    -0.341 N 
ATOM      8  C   UNL     1      -1.356   4.457  -0.465  0.00  0.00    +0.126 A 
ATOM      9  N   UNL     1      -0.635   5.573  -0.555  0.00  0.00    -0.227 NA
ATOM     10  C   UNL     1       0.676   5.527  -0.702  0.00  0.00    +0.224 A 
ATOM     11  N   UNL     1       1.342   4.395  -0.766  0.00  0.00    -0.214 NA
ENDBRANCH   1   8
BRANCH   1  12
ATOM     12  C   UNL     1      -3.472   6.305  -0.245  0.00  0.00    +0.076 C 
BRANCH  12  13
ATOM     13  C   UNL     1      -4.979   6.512  -0.080  0.00  0.00    +0.011 C 
BRANCH  13  14
ATOM     14  C   UNL     1      -5.288   8.011  -0.058  0.00  0.00    +0.008 C 
BRANCH  14  15
ATOM     15  C   UNL     1      -6.795   8.218   0.108  0.00  0.00    +0.074 C 
BRANCH  15  16
ATOM     16  C   UNL     1      -7.087   9.690   0.245  0.00  0.00    +0.132 C 
ATOM     17  N   UNL     1      -7.582  10.346  -0.752  0.00  0.00    -0.077 NA
ATOM     18  N   UNL     1      -6.827  10.337   1.433  0.00  0.00    -0.344 N 
ATOM     19  H   UNL     1      -6.456   9.844   2.181  0.00  0.00    +0.144 HD
ATOM     20  H   UNL     1      -7.015  11.284   1.521  0.00  0.00    +0.144 HD
BRANCH  17  21
ATOM     21  O   UNL     1      -7.954   9.662  -1.935  0.00  0.00    -0.408 OA
ATOM     22  H   UNL     1      -8.313  10.236  -2.625  0.00  0.00    +0.328 HD
ENDBRANCH  17  21
ENDBRANCH  15  16
ENDBRANCH  14  15
ENDBRANCH  13  14
ENDBRANCH  12  13
ENDBRANCH   1  12
TORSDOF 7
