REMARK  Name = ZINC14478104
REMARK  7 active torsions:
REMARK  status: ('A' for Active; 'I' for Inactive)
REMARK    1  A    between atoms: C_1  and  C_2
REMARK    2  A    between atoms: C_2  and  C_3
REMARK    3  A    between atoms: C_2  and  N_4
REMARK    4  A    between atoms: N_4  and  S_5
REMARK    5  A    between atoms: S_5  and  C_8
REMARK    6  A    between atoms: C_21  and  C_24
REMARK    7  A    between atoms: C_29  and  N_30
REMARK                            x       y       z     vdW  Elec       q    Type
REMARK                         _______ _______ _______ _____ _____    ______ ____
ROOT
ATOM      1  C   UNL     1      -1.228   3.120   0.184  0.00  0.00    +0.106 A 
ATOM      2  C   UNL     1      -1.210   1.738   0.236  0.00  0.00    +0.030 A 
ATOM      3  C   UNL     1      -0.003   1.068   0.210  0.00  0.00    +0.025 A 
ATOM      4  C   UNL     1       1.186   1.781   0.120  0.00  0.00    +0.031 A 
ATOM      5  C   UNL     1       1.173   3.166   0.059  0.00  0.00    -0.018 A 
ATOM      6  C   UNL     1      -0.047   3.828   0.093  0.00  0.00    +0.034 A 
ATOM      7  C   UNL     1       2.426   3.975  -0.044  0.00  0.00    +0.049 C 
ATOM      8  C   UNL     1       2.761   4.644   1.268  0.00  0.00    -0.023 C 
ATOM      9  C   UNL     1       4.059   4.667   1.447  0.00  0.00    -0.030 C 
ATOM     10  C   UNL     1       4.769   4.021   0.274  0.00  0.00    +0.033 C 
ATOM     11  C   UNL     1       3.669   3.121  -0.363  0.00  0.00    +0.029 C 
ATOM     12  C   UNL     1       3.626   1.817   0.440  0.00  0.00    +0.107 C 
ATOM     13  N   UNL     1       2.401   1.088   0.094  0.00  0.00    -0.336 N 
ATOM     14  H   UNL     1       2.433   0.149  -0.146  0.00  0.00    +0.147 HD
ENDROOT
BRANCH  12  15
ATOM     15  C   UNL     1       4.828   0.975   0.099  0.00  0.00    +0.003 A 
ATOM     16  C   UNL     1       5.570   1.255  -1.034  0.00  0.00    +0.008 A 
ATOM     17  C   UNL     1       6.675   0.485  -1.344  0.00  0.00    +0.000 A 
ATOM     18  C   UNL     1       7.034  -0.571  -0.527  0.00  0.00    +0.002 A 
ATOM     19  C   UNL     1       6.289  -0.854   0.603  0.00  0.00    +0.033 A 
ATOM     20  C   UNL     1       5.186  -0.081   0.916  0.00  0.00    +0.131 A 
BRANCH  20  21
ATOM     21  N   UNL     1       4.389  -0.384   2.125  0.00  0.00    +0.057 N 
ATOM     22  O   UNL     1       4.763  -1.245   2.901  0.00  0.00    -0.126 OA
ATOM     23  O   UNL     1       3.359   0.227   2.345  0.00  0.00    -0.126 OA
ENDBRANCH  20  21
ENDBRANCH  12  15
BRANCH   1  24
ATOM     24  S   UNL     1      -2.765   3.980   0.227  0.00  0.00    +0.059 S 
ATOM     25  O   UNL     1      -3.696   3.115   0.864  0.00  0.00    -0.153 OA
ATOM     26  O   UNL     1      -2.486   5.287   0.709  0.00  0.00    -0.153 OA
BRANCH  24  27
ATOM     27  N   UNL     1      -3.274   4.151  -1.340  0.00  0.00    -0.187 NA
ATOM     28  H   UNL     1      -3.344   5.035  -1.733  0.00  0.00    +0.148 HD
BRANCH  27  30
ATOM     29  C   UNL     1      -5.127   2.724  -2.053  0.00  0.00    +0.025 C 
ATOM     30  C   UNL     1      -3.619   2.968  -2.132  0.00  0.00    +0.070 C 
ATOM     31  C   UNL     1      -3.214   3.195  -3.590  0.00  0.00    +0.025 C 
ENDBRANCH  27  30
ENDBRANCH  24  27
ENDBRANCH   1  24
TORSDOF 5
