REMARK  Name = ZINC39666004
REMARK  12 active torsions:
REMARK  status: ('A' for Active; 'I' for Inactive)
REMARK    1  A    between atoms: C_1  and  C_2
REMARK    2  A    between atoms: C_5  and  O_8
REMARK    3  A    between atoms: O_8  and  C_9
REMARK    4  A    between atoms: C_9  and  C_11
REMARK    5  A    between atoms: C_9  and  C_12
REMARK    6  A    between atoms: C_12  and  N_13
REMARK    7  A    between atoms: C_14  and  C_16
REMARK    8  A    between atoms: C_27  and  C_29
REMARK    9  A    between atoms: C_32  and  O_37
REMARK   10  A    between atoms: C_34  and  O_35
REMARK   11  A    between atoms: O_35  and  C_36
REMARK   12  A    between atoms: O_37  and  C_38
REMARK                            x       y       z     vdW  Elec       q    Type
REMARK                         _______ _______ _______ _____ _____    ______ ____
ROOT
ATOM      1  C   UNL     1       5.005  -6.264   0.770  0.00  0.00    +0.100 C 
ATOM      2  C   UNL     1       5.089  -5.551  -0.598  0.00  0.00    +0.121 C 
ATOM      3  N   UNL     1       6.338  -6.063  -1.210  0.00  0.00    -0.296 N 
ATOM      4  C   UNL     1       6.365  -7.500  -0.848  0.00  0.00    +0.115 C 
ATOM      5  C   UNL     1       5.843  -7.543   0.601  0.00  0.00    -0.004 C 
ATOM      6  C   UNL     1       4.971  -8.778   0.811  0.00  0.00    -0.010 C 
ATOM      7  C   UNL     1       5.837 -10.035   0.696  0.00  0.00    -0.082 C 
ATOM      8  N   UNL     1       6.905  -9.989   1.702  0.00  0.00    +0.379 N 
ATOM      9  C   UNL     1       7.794  -8.851   1.438  0.00  0.00    -0.082 C 
ATOM     10  C   UNL     1       7.010  -7.544   1.584  0.00  0.00    -0.010 C 
ATOM     11  C   UNL     1       7.246  -5.376  -1.932  0.00  0.00    +0.250 C 
ATOM     12  O   UNL     1       7.038  -4.213  -2.221  0.00  0.00    -0.270 OA
ATOM     13  H   UNL     1       6.497  -9.889   2.620  0.00  0.00    -0.086 HD
ATOM     14  H   UNL     1       7.437 -10.845   1.665  0.00  0.00    -0.086 HD
ENDROOT
BRANCH  11  15
ATOM     15  C   UNL     1       8.489  -6.034  -2.371  0.00  0.00    +0.079 A 
ATOM     16  C   UNL     1       8.456  -7.346  -2.854  0.00  0.00    +0.020 A 
ATOM     17  C   UNL     1       9.618  -7.956  -3.264  0.00  0.00    +0.046 A 
ATOM     18  C   UNL     1      10.829  -7.273  -3.199  0.00  0.00    +0.124 A 
ATOM     19  C   UNL     1      10.873  -5.972  -2.720  0.00  0.00    +0.092 A 
ATOM     20  C   UNL     1       9.709  -5.345  -2.311  0.00  0.00    +0.136 A 
BRANCH  20  21
ATOM     21  O   UNL     1       9.750  -4.070  -1.849  0.00  0.00    -0.494 OA
ATOM     22  C   UNL     1      11.028  -3.432  -1.817  0.00  0.00    +0.277 C 
ENDBRANCH  20  21
BRANCH  18  23
ATOM     23  O   UNL     1      11.972  -7.884  -3.604  0.00  0.00    -0.495 OA
ATOM     24  C   UNL     1      11.856  -9.224  -4.085  0.00  0.00    +0.277 C 
ENDBRANCH  18  23
ENDBRANCH  11  15
BRANCH   1  26
ATOM     25  N   UNL     1       3.169  -6.673   2.377  0.00  0.00    -0.312 N 
ATOM     26  C   UNL     1       3.575  -6.613   1.093  0.00  0.00    +0.218 C 
ATOM     27  O   UNL     1       2.789  -6.839   0.197  0.00  0.00    -0.275 OA
ATOM     28  H   UNL     1       3.798  -6.492   3.093  0.00  0.00    +0.149 HD
BRANCH  25  29
ATOM     29  C   UNL     1       1.779  -7.011   2.690  0.00  0.00    +0.148 C 
BRANCH  29  30
ATOM     30  C   UNL     1       1.584  -7.011   4.208  0.00  0.00    +0.187 C 
ATOM     31  C   UNL     1       0.167  -7.485   4.540  0.00  0.00    +0.053 C 
BRANCH  30  32
ATOM     32  O   UNL     1       1.774  -5.688   4.712  0.00  0.00    -0.488 OA
BRANCH  32  37
ATOM     33  C   UNL     1       3.596  -5.212  10.020  0.00  0.00    +0.044 C 
ATOM     34  C   UNL     1       3.108  -5.339   8.600  0.00  0.00    -0.050 A 
ATOM     35  C   UNL     1       2.800  -6.585   8.086  0.00  0.00    +0.007 A 
ATOM     36  C   UNL     1       2.352  -6.704   6.784  0.00  0.00    +0.046 A 
ATOM     37  C   UNL     1       2.213  -5.573   5.993  0.00  0.00    +0.121 A 
ATOM     38  C   UNL     1       2.523  -4.324   6.512  0.00  0.00    +0.046 A 
ATOM     39  C   UNL     1       2.965  -4.210   7.816  0.00  0.00    +0.007 A 
ENDBRANCH  32  37
ENDBRANCH  30  32
ENDBRANCH  29  30
ENDBRANCH  25  29
ENDBRANCH   1  26
TORSDOF 8
