REMARK  Name = ZINC34527611
REMARK  14 active torsions:
REMARK  status: ('A' for Active; 'I' for Inactive)
REMARK    1  A    between atoms: C_1  and  C_2
REMARK    2  A    between atoms: C_6  and  C_39
REMARK    3  A    between atoms: C_7  and  C_38
REMARK    4  A    between atoms: C_11  and  C_37
REMARK    5  A    between atoms: C_12  and  C_15
REMARK    6  A    between atoms: C_15  and  O_17
REMARK    7  A    between atoms: O_17  and  C_18
REMARK    8  A    between atoms: C_23  and  C_35
REMARK    9  A    between atoms: C_26  and  O_31
REMARK   10  A    between atoms: C_28  and  C_29
REMARK   11  A    between atoms: C_28  and  C_30
REMARK   12  A    between atoms: O_31  and  C_32
REMARK   13  A    between atoms: C_32  and  C_34
REMARK   14  A    between atoms: C_35  and  O_36
REMARK                            x       y       z     vdW  Elec       q    Type
REMARK                         _______ _______ _______ _____ _____    ______ ____
ROOT
ATOM      1  C   UNL     1       0.842   0.580  -0.463  0.00  0.00    +0.023 C 
ATOM      2  C   UNL     1       1.163  -0.904  -0.268  0.00  0.00    +0.120 C 
ATOM      3  C   UNL     1      -0.092  -1.735  -0.409  0.00  0.00    +0.155 C 
ATOM      4  O   UNL     1      -0.729  -1.923  -1.425  0.00  0.00    -0.296 OA
ATOM      5  C   UNL     1      -0.406  -2.306   0.975  0.00  0.00    +0.071 C 
ATOM      6  C   UNL     1      -1.424  -1.421   1.625  0.00  0.00    -0.062 C 
ATOM      7  C   UNL     1      -1.227  -0.712   2.695  0.00  0.00    -0.022 C 
ATOM      8  C   UNL     1       0.106  -0.713   3.383  0.00  0.00    +0.028 C 
ATOM      9  C   UNL     1       0.762  -2.075   3.218  0.00  0.00    -0.001 C 
ATOM     10  C   UNL     1       0.944  -2.295   1.709  0.00  0.00    +0.147 C 
ATOM     11  C   UNL     1       1.721  -1.137   1.119  0.00  0.00    +0.162 C 
ATOM     12  O   UNL     1       2.617  -0.513   1.636  0.00  0.00    -0.295 OA
ATOM     13  C   UNL     1       2.111  -2.123   3.933  0.00  0.00    +0.009 C 
ATOM     14  C   UNL     1       1.953  -1.681   5.396  0.00  0.00    +0.005 C 
ATOM     15  C   UNL     1       1.433  -0.247   5.416  0.00  0.00    +0.007 C 
ATOM     16  C   UNL     1       0.036  -0.185   4.810  0.00  0.00    +0.004 C 
ATOM     17  C   UNL     1      -0.385   1.296   4.751  0.00  0.00    +0.013 C 
ATOM     18  C   UNL     1      -0.416   1.865   6.166  0.00  0.00    +0.046 C 
ATOM     19  C   UNL     1       0.971   1.822   6.794  0.00  0.00    +0.182 C 
ATOM     20  C   UNL     1       1.598   0.430   6.757  0.00  0.00    +0.006 C 
ATOM     21  C   UNL     1       1.062  -0.416   7.913  0.00  0.00    +0.015 C 
ATOM     22  C   UNL     1       3.114   0.629   7.009  0.00  0.00    +0.015 C 
ATOM     23  C   UNL     1      -0.104  -3.209   3.768  0.00  0.00    +0.013 C 
ATOM     24  C   UNL     1      -2.792  -1.352   0.998  0.00  0.00    +0.040 C 
ATOM     25  C   UNL     1      -0.955  -3.729   0.802  0.00  0.00    +0.025 C 
ENDROOT
BRANCH  10  26
ATOM     26  C   UNL     1       1.672  -3.592   1.462  0.00  0.00    +0.322 C 
ATOM     27  O   UNL     1       1.978  -4.300   2.393  0.00  0.00    -0.250 OA
BRANCH  26  28
ATOM     28  O   UNL     1       1.981  -3.961   0.209  0.00  0.00    -0.467 OA
ATOM     29  C   UNL     1       2.671  -5.202   0.049  0.00  0.00    +0.280 C 
ENDBRANCH  26  28
ENDBRANCH  10  26
BRANCH  19  30
ATOM     30  O   UNL     1       1.834   2.743   6.117  0.00  0.00    -0.461 OA
BRANCH  30  31
ATOM     31  C   UNL     1       1.881   3.997   6.595  0.00  0.00    +0.304 C 
ATOM     32  O   UNL     1       1.214   4.304   7.554  0.00  0.00    -0.251 OA
ATOM     33  C   UNL     1       2.767   5.022   5.934  0.00  0.00    +0.136 C 
ENDBRANCH  30  31
ENDBRANCH  19  30
BRANCH  16  34
ATOM     34  C   UNL     1      -1.009  -0.942   5.621  0.00  0.00    +0.163 C 
BRANCH  34  35
ATOM     35  O   UNL     1      -2.266  -0.893   4.943  0.00  0.00    -0.394 OA
ATOM     36  H   UNL     1      -2.979  -1.356   5.402  0.00  0.00    +0.209 HD
ENDBRANCH  34  35
ENDBRANCH  16  34
TORSDOF 6
