REMARK  Name = ZINC22187093
REMARK  6 active torsions:
REMARK  status: ('A' for Active; 'I' for Inactive)
REMARK    1  A    between atoms: C_11  and  C_13
REMARK    2  A    between atoms: C_13  and  S_14
REMARK    3  A    between atoms: S_14  and  C_15
REMARK    4  A    between atoms: C_18  and  C_27
REMARK    5  A    between atoms: N_19  and  C_20
REMARK    6  A    between atoms: C_27  and  N_28
REMARK                            x       y       z     vdW  Elec       q    Type
REMARK                         _______ _______ _______ _____ _____    ______ ____
ROOT
ATOM      1  C   UNL     1       1.736  -6.495  -0.049  0.00  0.00    +0.196 A 
ATOM      2  N   UNL     1       0.600  -7.153  -0.035  0.00  0.00    -0.122 NA
ATOM      3  N   UNL     1       0.826  -8.418  -0.050  0.00  0.00    -0.135 NA
ATOM      4  C   UNL     1       2.109  -8.644  -0.064  0.00  0.00    +0.122 A 
ATOM      5  N   UNL     1       2.737  -7.427  -0.064  0.00  0.00    -0.276 N 
ENDROOT
BRANCH   5   6
ATOM      6  C   UNL     1       4.120  -7.186  -0.076  0.00  0.00    +0.050 A 
ATOM      7  C   UNL     1       4.882  -7.566  -1.172  0.00  0.00    +0.029 A 
ATOM      8  C   UNL     1       6.241  -7.324  -1.184  0.00  0.00    +0.040 A 
ATOM      9  C   UNL     1       6.846  -6.711  -0.100  0.00  0.00    +0.124 A 
ATOM     10  C   UNL     1       6.088  -6.336   0.997  0.00  0.00    +0.040 A 
ATOM     11  C   UNL     1       4.728  -6.572   1.010  0.00  0.00    +0.029 A 
ATOM     12  F   UNL     1       8.177  -6.479  -0.111  0.00  0.00    -0.205 F 
ENDBRANCH   5   6
BRANCH   1  13
ATOM     13  S   UNL     1       1.934  -4.744  -0.042  0.00  0.00    -0.078 S 
BRANCH  13  14
ATOM     14  C   UNL     1       0.198  -4.232  -0.022  0.00  0.00    +0.151 C 
BRANCH  14  25
ATOM     15  C   UNL     1       1.173   2.084   0.002  0.00  0.00    +0.001 A 
ATOM     16  C   UNL     1       2.386   1.408  -0.013  0.00  0.00    +0.002 A 
ATOM     17  C   UNL     1       2.426   0.032  -0.021  0.00  0.00    +0.028 A 
ATOM     18  C   UNL     1       1.234  -0.695  -0.013  0.00  0.00    +0.078 A 
ATOM     19  C   UNL     1       0.002  -0.004   0.002  0.00  0.00    +0.065 A 
ATOM     20  C   UNL     1      -0.017   1.389   0.010  0.00  0.00    +0.015 A 
ATOM     21  C   UNL     1      -1.235  -0.799   0.010  0.00  0.00    +0.259 A 
ATOM     22  O   UNL     1      -2.329  -0.266   0.024  0.00  0.00    -0.267 OA
ATOM     23  N   UNL     1      -1.110  -2.147   0.002  0.00  0.00    -0.310 N 
ATOM     24  H   UNL     1      -2.007  -2.782   0.008  0.00  0.00    +0.170 HD
ATOM     25  C   UNL     1       0.119  -2.727  -0.013  0.00  0.00    +0.121 A 
ATOM     26  N   UNL     1       1.227  -2.051  -0.020  0.00  0.00    -0.233 NA
ENDBRANCH  14  25
ENDBRANCH  13  14
ENDBRANCH   1  13
BRANCH   4  27
ATOM     27  C   UNL     1       2.778  -9.994  -0.078  0.00  0.00    -0.001 C 
BRANCH  27  28
ATOM     28  N   UNL     1       3.009 -10.440   1.303  0.00  0.00    +0.384 N 
ATOM     29  C   UNL     1       3.978  -9.571   1.982  0.00  0.00    -0.078 C 
ATOM     30  C   UNL     1       4.084  -9.975   3.454  0.00  0.00    -0.019 C 
ATOM     31  C   UNL     1       4.529 -11.437   3.546  0.00  0.00    -0.004 C 
ATOM     32  C   UNL     1       3.528 -12.316   2.791  0.00  0.00    -0.019 C 
ATOM     33  C   UNL     1       3.439 -11.844   1.338  0.00  0.00    -0.078 C 
ATOM     34  H   UNL     1       2.055 -10.368   1.847  0.00  0.00    -0.081 HD
ENDBRANCH  27  28
ENDBRANCH   4  27
TORSDOF 6
