REMARK  Name = ZINC14129443
REMARK  7 active torsions:
REMARK  status: ('A' for Active; 'I' for Inactive)
REMARK    1  A    between atoms: C_7  and  C_28
REMARK    2  A    between atoms: C_10  and  S_11
REMARK    3  A    between atoms: S_11  and  C_12
REMARK    4  A    between atoms: C_12  and  C_13
REMARK    5  A    between atoms: N_15  and  C_16
REMARK    6  A    between atoms: C_21  and  C_22
REMARK    7  A    between atoms: N_24  and  C_25
REMARK                            x       y       z     vdW  Elec       q    Type
REMARK                         _______ _______ _______ _____ _____    ______ ____
ROOT
ATOM      1  S   UNL     1       3.842   3.146   0.018  0.00  0.00    -0.094 S 
ENDROOT
BRANCH   1  11
ATOM      2  C   UNL     1      -1.045   1.096  -0.609  0.00  0.00    +0.001 A 
ATOM      3  C   UNL     1       0.253   0.593  -0.597  0.00  0.00    +0.001 A 
ATOM      4  C   UNL     1       1.324   1.416  -0.404  0.00  0.00    +0.011 A 
ATOM      5  C   UNL     1       1.112   2.785  -0.210  0.00  0.00    +0.018 A 
ATOM      6  C   UNL     1      -0.211   3.296  -0.217  0.00  0.00    +0.012 A 
ATOM      7  C   UNL     1      -1.286   2.426  -0.417  0.00  0.00    +0.011 A 
ATOM      8  C   UNL     1      -0.380   4.689  -0.016  0.00  0.00    +0.101 A 
ATOM      9  N   UNL     1       0.690   5.443   0.167  0.00  0.00    -0.148 NA
ATOM     10  N   UNL     1       1.885   4.981   0.172  0.00  0.00    -0.142 NA
ATOM     11  C   UNL     1       2.170   3.701  -0.004  0.00  0.00    +0.127 A 
BRANCH   8  12
ATOM     12  C   UNL     1      -1.733   5.289  -0.011  0.00  0.00    +0.003 A 
ATOM     13  C   UNL     1      -1.973   6.481  -0.697  0.00  0.00    +0.013 A 
ATOM     14  C   UNL     1      -3.236   7.033  -0.694  0.00  0.00    +0.039 A 
ATOM     15  C   UNL     1      -4.265   6.413  -0.002  0.00  0.00    +0.123 A 
ATOM     16  C   UNL     1      -4.031   5.232   0.685  0.00  0.00    +0.039 A 
ATOM     17  C   UNL     1      -2.772   4.669   0.684  0.00  0.00    +0.013 A 
ATOM     18  F   UNL     1      -5.500   6.961   0.003  0.00  0.00    -0.205 F 
ENDBRANCH   8  12
ENDBRANCH   1  11
BRANCH   1  19
ATOM     19  C   UNL     1       4.691   4.717   0.311  0.00  0.00    +0.172 C 
BRANCH  19  20
ATOM     20  C   UNL     1       6.178   4.481   0.370  0.00  0.00    +0.227 C 
ATOM     21  O   UNL     1       6.621   3.361   0.228  0.00  0.00    -0.275 OA
ATOM     22  N   UNL     1       7.017   5.515   0.580  0.00  0.00    -0.284 N 
ATOM     23  H   UNL     1       6.661   6.397   0.769  0.00  0.00    +0.155 HD
BRANCH  22  24
ATOM     24  C   UNL     1       8.395   5.317   0.525  0.00  0.00    +0.046 A 
ATOM     25  C   UNL     1       8.933   4.403  -0.371  0.00  0.00    +0.024 A 
ATOM     26  C   UNL     1      10.299   4.211  -0.427  0.00  0.00    +0.002 A 
ATOM     27  C   UNL     1      11.141   4.919   0.415  0.00  0.00    +0.001 A 
ATOM     28  C   UNL     1      10.624   5.826   1.314  0.00  0.00    +0.015 A 
ATOM     29  C   UNL     1       9.245   6.035   1.379  0.00  0.00    +0.058 A 
BRANCH  29  30
ATOM     30  C   UNL     1       8.685   7.004   2.340  0.00  0.00    +0.246 C 
ATOM     31  O   UNL     1       7.494   7.249   2.333  0.00  0.00    -0.270 OA
ATOM     32  N   UNL     1       9.494   7.619   3.226  0.00  0.00    -0.308 N 
ATOM     33  H   UNL     1      10.444   7.423   3.232  0.00  0.00    +0.149 HD
BRANCH  32  34
ATOM     34  C   UNL     1       8.938   8.581   4.180  0.00  0.00    +0.073 C 
ATOM     35  C   UNL     1       9.711   9.882   4.403  0.00  0.00    +0.024 C 
ATOM     36  C   UNL     1       9.702   8.802   5.487  0.00  0.00    +0.024 C 
ENDBRANCH  32  34
ENDBRANCH  29  30
ENDBRANCH  22  24
ENDBRANCH  19  20
ENDBRANCH   1  19
TORSDOF 7
