REMARK  Name = ZINC36506482
REMARK  16 active torsions:
REMARK  status: ('A' for Active; 'I' for Inactive)
REMARK    1  A    between atoms: C_1  and  C_2
REMARK    2  A    between atoms: C_2  and  C_3
REMARK    3  A    between atoms: C_2  and  C_4
REMARK    4  A    between atoms: C_2  and  C_5
REMARK    5  A    between atoms: C_5  and  C_6
REMARK    6  A    between atoms: C_6  and  C_7
REMARK    7  A    between atoms: C_6  and  C_8
REMARK    8  A    between atoms: C_6  and  N_9
REMARK    9  A    between atoms: C_10  and  C_12
REMARK   10  A    between atoms: C_12  and  C_14
REMARK   11  A    between atoms: C_12  and  N_21
REMARK   12  A    between atoms: C_19  and  O_20
REMARK   13  A    between atoms: N_21  and  C_22
REMARK   14  A    between atoms: C_22  and  C_23
REMARK   15  A    between atoms: C_28  and  C_30
REMARK   16  A    between atoms: C_33  and  N_36
REMARK                            x       y       z     vdW  Elec       q    Type
REMARK                         _______ _______ _______ _____ _____    ______ ____
ROOT
ATOM      1  C   UNL     1       5.338  -0.124  -4.384  0.00  0.00    +0.196 C 
ENDROOT
BRANCH   1   2
ATOM      2  C   UNL     1       4.943  -1.574  -4.502  0.00  0.00    +0.023 A 
ATOM      3  C   UNL     1       5.720  -2.552  -3.913  0.00  0.00    +0.009 A 
ATOM      4  C   UNL     1       5.359  -3.882  -4.022  0.00  0.00    +0.001 A 
ATOM      5  C   UNL     1       4.218  -4.237  -4.719  0.00  0.00    +0.004 A 
ATOM      6  C   UNL     1       3.438  -3.262  -5.309  0.00  0.00    +0.046 A 
ATOM      7  C   UNL     1       3.795  -1.926  -5.197  0.00  0.00    +0.122 A 
BRANCH   7   8
ATOM      8  O   UNL     1       3.026  -0.965  -5.772  0.00  0.00    -0.506 OA
ATOM      9  H   UNL     1       3.274  -0.754  -6.683  0.00  0.00    +0.292 HD
ENDBRANCH   7   8
ENDBRANCH   1   2
BRANCH   1  11
ATOM     10  N   UNL     1       3.206   0.447  -3.266  0.00  0.00    -0.308 N 
ATOM     11  C   UNL     1       4.552   0.521  -3.272  0.00  0.00    +0.239 C 
ATOM     12  O   UNL     1       5.131   1.108  -2.382  0.00  0.00    -0.273 OA
ATOM     13  H   UNL     1       2.747  -0.074  -3.942  0.00  0.00    +0.149 HD
BRANCH  10  14
ATOM     14  C   UNL     1       2.438   1.155  -2.239  0.00  0.00    +0.030 C 
ATOM     15  C   UNL     1       2.969   2.583  -2.098  0.00  0.00    +0.031 C 
ATOM     16  C   UNL     1       2.580   0.424  -0.902  0.00  0.00    +0.031 C 
BRANCH  14  17
ATOM     17  C   UNL     1       0.963   1.196  -2.643  0.00  0.00    +0.031 C 
BRANCH  17  19
ATOM     18  C   UNL     1       1.101   0.361  -4.994  0.00  0.00    +0.010 C 
ATOM     19  C   UNL     1       0.849   1.590  -4.117  0.00  0.00    -0.036 C 
ATOM     20  C   UNL     1       1.886   2.667  -4.439  0.00  0.00    +0.010 C 
ATOM     21  C   UNL     1      -0.554   2.134  -4.392  0.00  0.00    +0.010 C 
ENDBRANCH  17  19
ENDBRANCH  14  17
ENDBRANCH  10  14
ENDBRANCH   1  11
BRANCH   1  22
ATOM     22  N   UNL     1       6.769  -0.031  -4.089  0.00  0.00    -0.274 N 
ATOM     23  C   UNL     1       7.675  -0.282  -5.055  0.00  0.00    +0.248 C 
ATOM     24  O   UNL     1       8.857  -0.342  -4.780  0.00  0.00    -0.270 OA
BRANCH  23  25
ATOM     25  C   UNL     1       7.229  -0.486  -6.450  0.00  0.00    +0.037 A 
ATOM     26  C   UNL     1       5.882  -0.721  -6.729  0.00  0.00    +0.015 A 
ATOM     27  C   UNL     1       5.473  -0.909  -8.033  0.00  0.00    +0.033 A 
ATOM     28  C   UNL     1       6.396  -0.866  -9.063  0.00  0.00    +0.126 A 
ATOM     29  C   UNL     1       7.733  -0.634  -8.794  0.00  0.00    +0.033 A 
ATOM     30  C   UNL     1       8.154  -0.438  -7.495  0.00  0.00    +0.015 A 
BRANCH  28  31
ATOM     31  N   UNL     1       5.950  -1.070 -10.460  0.00  0.00    +0.056 N 
ATOM     32  O   UNL     1       4.782  -1.273 -10.698  0.00  0.00    -0.126 OA
ATOM     33  O   UNL     1       6.753  -1.033 -11.362  0.00  0.00    -0.126 OA
ENDBRANCH  28  31
ENDBRANCH  23  25
BRANCH  22  34
ATOM     34  C   UNL     1       7.218   0.336  -2.743  0.00  0.00    +0.183 C 
BRANCH  34  35
ATOM     35  C   UNL     1       7.577   1.800  -2.715  0.00  0.00    +0.122 A 
ATOM     36  C   UNL     1       6.720   2.817  -2.513  0.00  0.00    +0.046 A 
ATOM     37  C   UNL     1       7.479   4.008  -2.567  0.00  0.00    +0.041 A 
ATOM     38  C   UNL     1       8.754   3.648  -2.798  0.00  0.00    +0.195 A 
ATOM     39  O   UNL     1       8.809   2.309  -2.881  0.00  0.00    -0.466 OA
ENDBRANCH  34  35
ENDBRANCH  22  34
ENDBRANCH   1  22
TORSDOF 11
