REMARK  Name = ZINC38050459
REMARK  4 active torsions:
REMARK  status: ('A' for Active; 'I' for Inactive)
REMARK    1  A    between atoms: C_6  and  S_7
REMARK    2  A    between atoms: S_7  and  N_10
REMARK    3  A    between atoms: N_10  and  C_11
REMARK    4  A    between atoms: C_17  and  N_19
REMARK                            x       y       z     vdW  Elec       q    Type
REMARK                         _______ _______ _______ _____ _____    ______ ____
ROOT
ATOM      1  S   UNL     1      -1.510  -0.908   0.012  0.00  0.00    +0.059 S 
ATOM      2  O   UNL     1      -1.215  -2.188   0.553  0.00  0.00    -0.153 OA
ATOM      3  O   UNL     1      -2.492  -0.050   0.577  0.00  0.00    -0.153 OA
ENDROOT
BRANCH   1   9
ATOM      4  C   UNL     1      -0.017   1.378   0.010  0.00  0.00    +0.030 A 
ATOM      5  C   UNL     1       1.164   2.092   0.002  0.00  0.00    +0.025 A 
ATOM      6  C   UNL     1       2.386   1.423  -0.013  0.00  0.00    +0.037 A 
ATOM      7  C   UNL     1       2.392   0.034  -0.021  0.00  0.00    -0.016 A 
ATOM      8  C   UNL     1       1.212  -0.676  -0.013  0.00  0.00    +0.034 A 
ATOM      9  C   UNL     1       0.002  -0.004   0.002  0.00  0.00    +0.106 A 
ATOM     10  C   UNL     1       3.843  -0.386  -0.037  0.00  0.00    +0.133 C 
ATOM     11  C   UNL     1       4.604   0.923  -0.037  0.00  0.00    +0.222 C 
ATOM     12  O   UNL     1       5.810   1.055  -0.048  0.00  0.00    -0.275 OA
ATOM     13  N   UNL     1       3.693   1.911  -0.023  0.00  0.00    -0.285 N 
ATOM     14  H   UNL     1       3.918   2.854  -0.020  0.00  0.00    +0.155 HD
ENDBRANCH   1   9
BRANCH   1  15
ATOM     15  N   UNL     1      -1.946  -1.151  -1.567  0.00  0.00    -0.188 NA
ATOM     16  H   UNL     1      -2.755  -0.743  -1.915  0.00  0.00    +0.148 HD
BRANCH  15  17
ATOM     17  C   UNL     1      -1.111  -1.982  -2.438  0.00  0.00    +0.062 C 
ATOM     18  C   UNL     1      -1.653  -3.412  -2.450  0.00  0.00    +0.019 C 
ATOM     19  C   UNL     1      -3.090  -3.409  -2.974  0.00  0.00    +0.001 C 
ATOM     20  C   UNL     1      -3.114  -2.843  -4.395  0.00  0.00    -0.001 C 
ATOM     21  C   UNL     1      -2.573  -1.412  -4.383  0.00  0.00    -0.015 C 
ATOM     22  C   UNL     1      -1.135  -1.415  -3.859  0.00  0.00    -0.056 C 
BRANCH  22  23
ATOM     23  N   UNL     1      -0.615  -0.041  -3.847  0.00  0.00    +0.381 N 
ATOM     24  H   UNL     1       0.333  -0.043  -3.502  0.00  0.00    -0.090 HD
ATOM     25  H   UNL     1      -0.631   0.333  -4.785  0.00  0.00    -0.090 HD
ATOM     26  H   UNL     1      -1.190   0.531  -3.247  0.00  0.00    -0.090 HD
ENDBRANCH  22  23
ENDBRANCH  15  17
ENDBRANCH   1  15
TORSDOF 4
