REMARK  Name = ZINC59824814
REMARK  10 active torsions:
REMARK  status: ('A' for Active; 'I' for Inactive)
REMARK    1  A    between atoms: C_1  and  N_2
REMARK    2  A    between atoms: N_2  and  C_3
REMARK    3  A    between atoms: N_2  and  C_25
REMARK    4  A    between atoms: C_3  and  C_4
REMARK    5  A    between atoms: C_4  and  C_5
REMARK    6  A    between atoms: C_5  and  N_6
REMARK    7  A    between atoms: C_7  and  C_9
REMARK    8  A    between atoms: C_9  and  C_10
REMARK    9  A    between atoms: C_10  and  N_11
REMARK   10  A    between atoms: N_14  and  C_15
REMARK                            x       y       z     vdW  Elec       q    Type
REMARK                         _______ _______ _______ _____ _____    ______ ____
ROOT
ATOM      1  C   UNL     1      -4.401  -3.002   5.069  0.00  0.00    +0.114 C 
ENDROOT
BRANCH   1   3
ATOM      2  N   UNL     1      -2.761  -2.058   3.476  0.00  0.00    -0.315 N 
ATOM      3  C   UNL     1      -2.987  -2.729   4.622  0.00  0.00    +0.215 C 
ATOM      4  O   UNL     1      -2.054  -3.115   5.294  0.00  0.00    -0.276 OA
ATOM      5  H   UNL     1      -3.508  -1.750   2.939  0.00  0.00    +0.149 HD
BRANCH   2   6
ATOM      6  C   UNL     1      -1.387  -1.792   3.041  0.00  0.00    +0.105 C 
BRANCH   6   7
ATOM      7  C   UNL     1      -1.411  -1.020   1.720  0.00  0.00    +0.037 C 
BRANCH   7   8
ATOM      8  C   UNL     1       0.024  -0.743   1.267  0.00  0.00    +0.106 C 
BRANCH   8  10
ATOM      9  C   UNL     1      -0.018   1.461   0.010  0.00  0.00    +0.129 C 
ATOM     10  N   UNL     1       0.002  -0.004   0.002  0.00  0.00    -0.331 N 
BRANCH  10  11
ATOM     11  C   UNL     1       0.000  -0.697  -1.213  0.00  0.00    +0.065 A 
ATOM     12  C   UNL     1       1.200  -1.030  -1.826  0.00  0.00    +0.026 A 
ATOM     13  C   UNL     1       1.195  -1.715  -3.026  0.00  0.00    +0.002 A 
ATOM     14  C   UNL     1      -0.004  -2.068  -3.618  0.00  0.00    +0.003 A 
ATOM     15  C   UNL     1      -1.202  -1.738  -3.011  0.00  0.00    +0.040 A 
ATOM     16  C   UNL     1      -1.204  -1.058  -1.807  0.00  0.00    +0.144 A 
ATOM     17  F   UNL     1      -2.375  -0.741  -1.212  0.00  0.00    -0.204 F 
ENDBRANCH  10  11
ENDBRANCH   8  10
ENDBRANCH   7   8
ENDBRANCH   6   7
ENDBRANCH   2   6
ENDBRANCH   1   3
BRANCH   1  18
ATOM     18  C   UNL     1      -4.378  -3.774   6.390  0.00  0.00    +0.115 C 
BRANCH  18  19
ATOM     19  N   UNL     1      -5.751  -4.040   6.824  0.00  0.00    -0.299 N 
ATOM     20  C   UNL     1      -5.978  -4.712   7.971  0.00  0.00    +0.300 C 
ATOM     21  O   UNL     1      -5.042  -5.098   8.644  0.00  0.00    -0.253 OA
ATOM     22  N   UNL     1      -7.241  -4.955   8.370  0.00  0.00    -0.294 N 
ATOM     23  H   UNL     1      -6.498  -3.732   6.287  0.00  0.00    +0.150 HD
ATOM     24  H   UNL     1      -7.988  -4.647   7.833  0.00  0.00    +0.151 HD
BRANCH  22  25
ATOM     25  C   UNL     1      -7.487  -5.686   9.616  0.00  0.00    +0.037 C 
ATOM     26  C   UNL     1      -6.853  -7.075   9.527  0.00  0.00    +0.029 C 
ATOM     27  C   UNL     1      -7.110  -7.838  10.828  0.00  0.00    -0.008 C 
ATOM     28  C   UNL     1      -8.618  -7.979  11.047  0.00  0.00    +0.007 C 
ATOM     29  C   UNL     1      -9.252  -6.589  11.137  0.00  0.00    -0.008 C 
ATOM     30  C   UNL     1      -8.995  -5.827   9.836  0.00  0.00    +0.029 C 
ATOM     31  C   UNL     1      -8.635  -5.822  12.309  0.00  0.00    +0.007 C 
ATOM     32  C   UNL     1      -7.128  -5.681  12.089  0.00  0.00    -0.008 C 
ATOM     33  C   UNL     1      -6.493  -7.071  11.999  0.00  0.00    +0.007 C 
ATOM     34  C   UNL     1      -6.871  -4.919  10.788  0.00  0.00    +0.029 C 
ENDBRANCH  22  25
ENDBRANCH  18  19
ENDBRANCH   1  18
TORSDOF 9
