REMARK  Name = ZINC40714960
REMARK  9 active torsions:
REMARK  status: ('A' for Active; 'I' for Inactive)
REMARK    1  A    between atoms: C_1  and  N_2
REMARK    2  A    between atoms: N_2  and  C_3
REMARK    3  A    between atoms: N_2  and  C_4
REMARK    4  A    between atoms: C_8  and  O_10
REMARK    5  A    between atoms: O_10  and  C_11
REMARK    6  A    between atoms: C_11  and  C_12
REMARK    7  A    between atoms: C_12  and  C_13
REMARK    8  A    between atoms: C_13  and  C_14
REMARK    9  A    between atoms: C_16  and  C_19
REMARK                            x       y       z     vdW  Elec       q    Type
REMARK                         _______ _______ _______ _____ _____    ______ ____
ROOT
ATOM      1  O   UNL     1      -0.033  -0.005  -4.787  0.00  0.00    -0.492 OA
ENDROOT
BRANCH   1   6
ATOM      2  C   UNL     1       0.000  -0.696  -1.211  0.00  0.00    +0.033 A 
ATOM      3  C   UNL     1       0.013  -2.086  -1.220  0.00  0.00    +0.023 A 
ATOM      4  C   UNL     1       0.011  -2.769  -2.420  0.00  0.00    +0.005 A 
ATOM      5  C   UNL     1      -0.004  -2.074  -3.615  0.00  0.00    +0.046 A 
ATOM      6  C   UNL     1      -0.018  -0.687  -3.612  0.00  0.00    +0.122 A 
ATOM      7  C   UNL     1      -0.021   0.004  -2.410  0.00  0.00    +0.068 A 
BRANCH   2   9
ATOM      8  C   UNL     1      -0.018   1.461   0.010  0.00  0.00    +0.129 C 
ATOM      9  N   UNL     1       0.002  -0.004   0.002  0.00  0.00    -0.336 N 
ATOM     10  C   UNL     1       0.024  -0.743   1.267  0.00  0.00    +0.129 C 
ENDBRANCH   2   9
ENDBRANCH   1   6
BRANCH   1  11
ATOM     11  C   UNL     1      -0.035  -0.781  -5.988  0.00  0.00    +0.229 C 
BRANCH  11  12
ATOM     12  C   UNL     1      -0.052   0.154  -7.199  0.00  0.00    +0.048 C 
BRANCH  12  13
ATOM     13  C   UNL     1      -0.054  -0.677  -8.484  0.00  0.00    +0.066 C 
BRANCH  13  14
ATOM     14  C   UNL     1      -0.072   0.244  -9.677  0.00  0.00    +0.079 A 
ATOM     15  N   UNL     1       0.945   0.746 -10.332  0.00  0.00    -0.248 NA
ATOM     16  C   UNL     1       0.768   1.544 -11.366  0.00  0.00    +0.063 A 
ATOM     17  C   UNL     1      -0.514   1.819 -11.718  0.00  0.00    +0.071 A 
ATOM     18  S   UNL     1      -1.403   0.869 -10.495  0.00  0.00    -0.080 S 
BRANCH  16  19
ATOM     19  C   UNL     1       1.935   2.125 -12.122  0.00  0.00    +0.164 C 
ATOM     20 CL   UNL     1       2.398   1.011 -13.462  0.00  0.00    -0.119 Cl
ENDBRANCH  16  19
ENDBRANCH  13  14
ENDBRANCH  12  13
ENDBRANCH  11  12
ENDBRANCH   1  11
TORSDOF 7
