REMARK  Name = ZINC13571522
REMARK  8 active torsions:
REMARK  status: ('A' for Active; 'I' for Inactive)
REMARK    1  A    between atoms: C_1  and  C_2
REMARK    2  A    between atoms: C_2  and  C_3
REMARK    3  A    between atoms: C_3  and  C_4
REMARK    4  A    between atoms: C_4  and  C_5
REMARK    5  A    between atoms: C_8  and  C_11
REMARK    6  A    between atoms: N_13  and  C_14
REMARK    7  A    between atoms: C_14  and  C_16
REMARK    8  A    between atoms: C_14  and  C_17
REMARK                            x       y       z     vdW  Elec       q    Type
REMARK                         _______ _______ _______ _____ _____    ______ ____
ROOT
ATOM      1  C   UNL     1      -8.986  -5.497  -2.432  0.00  0.00    +0.236 C 
ATOM      2  O   UNL     1      -8.166  -5.328  -3.309  0.00  0.00    -0.274 OA
ATOM      3  N   UNL     1     -10.039  -6.312  -2.641  0.00  0.00    -0.300 N 
ATOM      4  C   UNL     1     -11.101  -6.438  -1.633  0.00  0.00    +0.110 C 
ATOM      5  C   UNL     1     -12.451  -6.157  -2.302  0.00  0.00    +0.047 C 
ATOM      6  C   UNL     1     -12.618  -7.077  -3.512  0.00  0.00    +0.064 C 
ATOM      7  C   UNL     1     -11.508  -6.804  -4.527  0.00  0.00    +0.047 C 
ATOM      8  C   UNL     1     -10.151  -7.087  -3.885  0.00  0.00    +0.110 C 
ATOM      9  C   UNL     1     -13.960  -6.838  -4.150  0.00  0.00    +0.057 A 
ATOM     10  C   UNL     1     -14.784  -7.830  -4.560  0.00  0.00    +0.039 A 
ATOM     11  N   UNL     1     -15.880  -7.272  -5.072  0.00  0.00    -0.349 N 
ATOM     12  C   UNL     1     -15.772  -5.970  -4.998  0.00  0.00    +0.171 A 
ATOM     13  N   UNL     1     -14.584  -5.662  -4.427  0.00  0.00    -0.348 N 
ATOM     14  H   UNL     1     -14.242  -4.772  -4.250  0.00  0.00    +0.166 HD
ATOM     15  C   UNL     1     -14.438  -9.293  -4.426  0.00  0.00    +0.070 C 
ATOM     16  C   UNL     1     -12.930  -9.399  -4.161  0.00  0.00    +0.088 C 
ATOM     17  N   UNL     1     -12.552  -8.481  -3.076  0.00  0.00    -0.305 NA
ATOM     18  H   UNL     1     -11.637  -8.705  -2.715  0.00  0.00    +0.123 HD
ATOM     19  H   UNL     1     -16.637  -7.753  -5.440  0.00  0.00    +0.166 HD
ENDROOT
BRANCH   1  20
ATOM     20  C   UNL     1      -8.828  -4.796  -1.107  0.00  0.00    +0.156 C 
ATOM     21  C   UNL     1      -9.611  -3.482  -1.129  0.00  0.00    +0.038 C 
BRANCH  20  24
ATOM     22  C   UNL     1      -6.953  -4.373   0.391  0.00  0.00    +0.245 C 
ATOM     23  O   UNL     1      -7.718  -4.477   1.330  0.00  0.00    -0.270 OA
ATOM     24  N   UNL     1      -7.410  -4.516  -0.869  0.00  0.00    -0.300 N 
ATOM     25  H   UNL     1      -6.799  -4.434  -1.619  0.00  0.00    +0.150 HD
BRANCH  22  29
ATOM     26  C   UNL     1      -2.841  -3.562   1.080  0.00  0.00    -0.047 A 
ATOM     27  C   UNL     1      -3.709  -3.679   2.151  0.00  0.00    +0.004 A 
ATOM     28  C   UNL     1      -5.045  -3.942   1.934  0.00  0.00    +0.013 A 
ATOM     29  C   UNL     1      -5.522  -4.091   0.631  0.00  0.00    +0.037 A 
ATOM     30  C   UNL     1      -4.641  -3.972  -0.445  0.00  0.00    +0.013 A 
ATOM     31  C   UNL     1      -3.307  -3.703  -0.215  0.00  0.00    +0.004 A 
BRANCH  26  32
ATOM     32  C   UNL     1      -1.382  -3.275   1.325  0.00  0.00    +0.035 C 
BRANCH  32  33
ATOM     33  C   UNL     1      -1.158  -1.762   1.351  0.00  0.00    +0.004 C 
BRANCH  33  35
ATOM     34  C   UNL     1       0.548   0.044   1.625  0.00  0.00    +0.004 C 
ATOM     35  C   UNL     1       0.324  -1.470   1.599  0.00  0.00    -0.003 C 
ENDBRANCH  33  35
ENDBRANCH  32  33
ENDBRANCH  26  32
ENDBRANCH  22  29
ENDBRANCH  20  24
ENDBRANCH   1  20
TORSDOF 6
