REMARK  Name = ZINC64920438
REMARK  7 active torsions:
REMARK  status: ('A' for Active; 'I' for Inactive)
REMARK    1  A    between atoms: C_1  and  C_2
REMARK    2  A    between atoms: C_6  and  N_9
REMARK    3  A    between atoms: C_7  and  C_8
REMARK    4  A    between atoms: N_9  and  S_10
REMARK    5  A    between atoms: S_10  and  C_13
REMARK    6  A    between atoms: C_16  and  C_18
REMARK    7  A    between atoms: C_21  and  C_23
REMARK                            x       y       z     vdW  Elec       q    Type
REMARK                         _______ _______ _______ _____ _____    ______ ____
ROOT
ATOM      1  C   UNL     1       0.088  -4.986   4.057  0.00  0.00    +0.148 A 
ATOM      2  C   UNL     1      -0.962  -5.263   4.873  0.00  0.00    +0.037 A 
ATOM      3  C   UNL     1      -0.722  -5.670   6.165  0.00  0.00    +0.023 A 
ATOM      4  C   UNL     1       0.590  -5.782   6.586  0.00  0.00    +0.077 A 
ATOM      5  S   UNL     1       1.488  -5.307   5.117  0.00  0.00    -0.063 S 
ENDROOT
BRANCH   4   6
ATOM      6  C   UNL     1       1.111  -6.191   7.899  0.00  0.00    +0.255 A 
ATOM      7  N   UNL     1       0.398  -6.542   8.947  0.00  0.00    -0.107 NA
ATOM      8  N   UNL     1       1.188  -6.836   9.918  0.00  0.00    -0.112 NA
ATOM      9  C   UNL     1       2.425  -6.686   9.536  0.00  0.00    +0.221 A 
ATOM     10  O   UNL     1       2.410  -6.282   8.253  0.00  0.00    -0.419 OA
BRANCH   9  11
ATOM     11  C   UNL     1       3.651  -6.928  10.377  0.00  0.00    +0.077 C 
ATOM     12  C   UNL     1       3.486  -6.502  11.845  0.00  0.00    +0.013 C 
ATOM     13  C   UNL     1       2.955  -7.920  12.116  0.00  0.00    +0.001 C 
ATOM     14  C   UNL     1       3.770  -8.373  10.893  0.00  0.00    +0.013 C 
ENDBRANCH   9  11
ENDBRANCH   4   6
BRANCH   1  15
ATOM     15  S   UNL     1       0.073  -4.452   2.378  0.00  0.00    +0.098 S 
ATOM     16  O   UNL     1      -1.169  -4.871   1.830  0.00  0.00    -0.148 OA
ATOM     17  O   UNL     1       1.321  -4.838   1.818  0.00  0.00    -0.148 OA
BRANCH  15  18
ATOM     18  N   UNL     1       0.051  -2.796   2.390  0.00  0.00    -0.097 NA
BRANCH  18  24
ATOM     19  C   UNL     1      -0.018   1.503   0.010  0.00  0.00    +0.044 C 
ATOM     20  C   UNL     1       0.002  -0.004   0.002  0.00  0.00    -0.046 A 
ATOM     21  C   UNL     1       0.006  -0.688  -1.200  0.00  0.00    +0.004 A 
ATOM     22  C   UNL     1       0.024  -2.071  -1.212  0.00  0.00    +0.002 A 
ATOM     23  C   UNL     1       0.039  -2.773  -0.023  0.00  0.00    +0.027 A 
ATOM     24  C   UNL     1       0.036  -2.089   1.186  0.00  0.00    +0.077 A 
ATOM     25  C   UNL     1       0.023  -0.700   1.194  0.00  0.00    -0.023 A 
ATOM     26  C   UNL     1       0.025   0.046   2.504  0.00  0.00    +0.046 C 
ENDBRANCH  18  24
ENDBRANCH  15  18
ENDBRANCH   1  15
TORSDOF 5
