REMARK  Name = ZINC25469936
REMARK  7 active torsions:
REMARK  status: ('A' for Active; 'I' for Inactive)
REMARK    1  A    between atoms: C_3  and  C_24
REMARK    2  A    between atoms: C_6  and  C_7
REMARK    3  A    between atoms: C_9  and  C_12
REMARK    4  A    between atoms: C_12  and  S_13
REMARK    5  A    between atoms: S_13  and  C_14
REMARK    6  A    between atoms: C_17  and  C_20
REMARK    7  A    between atoms: N_18  and  N_19
REMARK                            x       y       z     vdW  Elec       q    Type
REMARK                         _______ _______ _______ _____ _____    ______ ____
ROOT
ATOM      1  C   UNL     1      -5.126   5.850   6.980  0.00  0.00    +0.202 A 
ATOM      2  N   UNL     1      -4.967   4.899   6.032  0.00  0.00    -0.191 NA
ATOM      3  C   UNL     1      -3.682   4.651   5.995  0.00  0.00    +0.238 A 
ATOM      4  O   UNL     1      -3.101   5.446   6.898  0.00  0.00    -0.337 OA
ATOM      5  N   UNL     1      -3.938   6.125   7.453  0.00  0.00    -0.056 NA
ENDROOT
BRANCH   1  11
ATOM      6  C   UNL     1      -7.603   6.078   6.802  0.00  0.00    +0.012 A 
ATOM      7  C   UNL     1      -8.793   6.652   7.201  0.00  0.00    +0.013 A 
ATOM      8  C   UNL     1      -8.798   7.622   8.188  0.00  0.00    +0.055 A 
ATOM      9  C   UNL     1      -7.614   8.017   8.783  0.00  0.00    +0.013 A 
ATOM     10  C   UNL     1      -6.419   7.445   8.395  0.00  0.00    +0.012 A 
ATOM     11  C   UNL     1      -6.408   6.468   7.402  0.00  0.00    +0.022 A 
BRANCH   8  12
ATOM     12  C   UNL     1     -10.100   8.251   8.615  0.00  0.00    +0.417 C 
ATOM     13  F   UNL     1     -10.352   9.380   7.828  0.00  0.00    -0.166 F 
ATOM     14  F   UNL     1     -11.139   7.328   8.453  0.00  0.00    -0.166 F 
ATOM     15  F   UNL     1     -10.016   8.628   9.959  0.00  0.00    -0.166 F 
ENDBRANCH   8  12
ENDBRANCH   1  11
BRANCH   3  16
ATOM     16  C   UNL     1      -2.987   3.658   5.098  0.00  0.00    +0.176 C 
BRANCH  16  17
ATOM     17  S   UNL     1      -2.516   4.470   3.551  0.00  0.00    -0.075 S 
BRANCH  17  18
ATOM     18  C   UNL     1      -1.748   3.120   2.718  0.00  0.00    +0.209 A 
ATOM     19  N   UNL     1      -1.605   1.899   3.178  0.00  0.00    -0.121 NA
ATOM     20  N   UNL     1      -1.000   1.173   2.308  0.00  0.00    -0.123 NA
ATOM     21  C   UNL     1      -0.722   1.881   1.250  0.00  0.00    +0.255 A 
ATOM     22  N   UNL     1      -1.184   3.148   1.475  0.00  0.00    -0.220 N 
BRANCH  21  23
ATOM     23  C   UNL     1      -0.017   1.395   0.010  0.00  0.00    +0.454 C 
ATOM     24  F   UNL     1       0.002  -0.004   0.002  0.00  0.00    -0.163 F 
ATOM     25  F   UNL     1       1.296   1.879  -0.000  0.00  0.00    -0.163 F 
ATOM     26  F   UNL     1      -0.694   1.858  -1.124  0.00  0.00    -0.163 F 
ENDBRANCH  21  23
BRANCH  22  27
ATOM     27  N   UNL     1      -1.101   4.219   0.631  0.00  0.00    -0.295 N 
ATOM     28  H   UNL     1      -0.618   4.108  -0.351  0.00  0.00    +0.163 HD
ATOM     29  H   UNL     1      -1.517   5.191   0.933  0.00  0.00    +0.163 HD
ENDBRANCH  22  27
ENDBRANCH  17  18
ENDBRANCH  16  17
ENDBRANCH   3  16
TORSDOF 7
