REMARK  Name = ZINC21657775
REMARK  4 active torsions:
REMARK  status: ('A' for Active; 'I' for Inactive)
REMARK    1  A    between atoms: C_1  and  C_2
REMARK    2  A    between atoms: C_5  and  N_8
REMARK    3  A    between atoms: CA_11  and  C_20
REMARK    4  A    between atoms: C_16  and  C_19
REMARK                            x       y       z     vdW  Elec       q    Type
REMARK                         _______ _______ _______ _____ _____    ______ ____
ROOT
ATOM      1  N   UNL     1       2.401   1.139  -0.015  0.00  0.00    -0.355 N 
ATOM      2  C   UNL     1       1.188   1.812  -0.011  0.00  0.00    +0.051 A 
ATOM      3  C   UNL     1      -0.007   1.131   0.164  0.00  0.00    +0.059 A 
ATOM      4  CA  UNL     1      -1.212   1.839   0.156  0.00  0.00    +0.131 A 
ATOM      5  N   UNL     1      -1.244   3.150  -0.003  0.00  0.00    -0.349 N 
ATOM      6  C   UNL     1      -0.130   3.861  -0.177  0.00  0.00    +0.049 A 
ATOM      7  C   UNL     1       1.132   3.215  -0.187  0.00  0.00    +0.022 A 
ATOM      8  C   UNL     1       2.298   3.972  -0.369  0.00  0.00    +0.015 A 
ATOM      9  C   UNL     1       2.207   5.321  -0.536  0.00  0.00    -0.050 A 
ATOM     10  C   UNL     1       0.969   5.960  -0.526  0.00  0.00    +0.005 A 
ATOM     11  C   UNL     1      -0.183   5.258  -0.351  0.00  0.00    +0.026 A 
ATOM     12  C   UNL     1       3.462   6.132  -0.732  0.00  0.00    +0.044 C 
ATOM     13  H   UNL     1      -2.207   3.682   0.006  0.00  0.00    +0.166 HD
ATOM     14  H   UNL     1       2.679   0.512  -0.876  0.00  0.00    +0.166 HD
ENDROOT
BRANCH   1  19
ATOM     15  C   UNL     1       5.922   1.616   4.404  0.00  0.00    +0.044 C 
ATOM     16  C   UNL     1       4.986   1.489   3.230  0.00  0.00    -0.050 A 
ATOM     17  C   UNL     1       5.391   0.809   2.095  0.00  0.00    +0.005 A 
ATOM     18  C   UNL     1       4.536   0.691   1.017  0.00  0.00    +0.026 A 
ATOM     19  C   UNL     1       3.268   1.256   1.074  0.00  0.00    +0.040 A 
ATOM     20  C   UNL     1       2.867   1.942   2.213  0.00  0.00    +0.026 A 
ATOM     21  C   UNL     1       3.724   2.051   3.289  0.00  0.00    +0.005 A 
ENDBRANCH   1  19
BRANCH   4  22
ATOM     22  C   UNL     1      -2.485   1.102   0.338  0.00  0.00    +0.402 C 
ATOM     23  O   UNL     1      -2.473  -0.102   0.491  0.00  0.00    -0.239 OA
ATOM     24  OXT UNL     1      -3.655   1.768   0.333  0.00  0.00    -0.239 OA
ENDBRANCH   4  22
TORSDOF 2
