REMARK  Name = ZINC45871959
REMARK  3 active torsions:
REMARK  status: ('A' for Active; 'I' for Inactive)
REMARK    1  A    between atoms: C_6  and  N_7
REMARK    2  A    between atoms: C_8  and  C_25
REMARK    3  A    between atoms: C_9  and  C_12
REMARK                            x       y       z     vdW  Elec       q    Type
REMARK                         _______ _______ _______ _____ _____    ______ ____
ROOT
ATOM      1  N   UNL     1      -1.202  -0.723   0.010  0.00  0.00    -0.227 N 
ATOM      2  C   UNL     1      -1.423  -1.893  -0.616  0.00  0.00    +0.159 A 
ATOM      3  C   UNL     1      -2.729  -2.258  -0.356  0.00  0.00    +0.087 A 
ATOM      4  C   UNL     1      -3.291  -1.250   0.459  0.00  0.00    +0.148 A 
ATOM      5  N   UNL     1      -2.374  -0.347   0.675  0.00  0.00    -0.174 NA
ENDROOT
BRANCH   3   6
ATOM      6  C   UNL     1      -3.411  -3.472  -0.841  0.00  0.00    +0.253 C 
ATOM      7  O   UNL     1      -2.813  -4.266  -1.541  0.00  0.00    -0.270 OA
ATOM      8  N   UNL     1      -4.696  -3.702  -0.507  0.00  0.00    -0.261 N 
ATOM      9  C   UNL     1      -5.338  -4.846  -0.963  0.00  0.00    +0.165 A 
ATOM     10  N   UNL     1      -4.855  -5.810  -1.717  0.00  0.00    -0.229 NA
ATOM     11  C   UNL     1      -5.596  -6.859  -2.080  0.00  0.00    +0.054 A 
ATOM     12  C   UNL     1      -6.852  -6.851  -1.598  0.00  0.00    +0.014 A 
ATOM     13  S   UNL     1      -6.925  -5.342  -0.680  0.00  0.00    -0.057 S 
ATOM     14  C   UNL     1      -7.905  -7.914  -1.779  0.00  0.00    +0.044 C 
ATOM     15  C   UNL     1      -8.307  -7.898  -3.267  0.00  0.00    +0.005 C 
ATOM     16  C   UNL     1      -7.267  -8.615  -4.094  0.00  0.00    +0.001 C 
ATOM     17  C   UNL     1      -5.946  -7.915  -4.278  0.00  0.00    +0.006 C 
ATOM     18  C   UNL     1      -5.089  -7.963  -3.009  0.00  0.00    +0.056 C 
ATOM     19  H   UNL     1      -5.173  -3.068   0.052  0.00  0.00    +0.157 HD
ENDBRANCH   3   6
BRANCH   1  25
ATOM     20  C   UNL     1      -0.017   1.384   0.010  0.00  0.00    +0.029 A 
ATOM     21  C   UNL     1       1.170   2.090   0.002  0.00  0.00    +0.022 A 
ATOM     22  C   UNL     1       2.378   1.414  -0.013  0.00  0.00    +0.041 A 
ATOM     23  C   UNL     1       2.400   0.030  -0.021  0.00  0.00    +0.022 A 
ATOM     24  C   UNL     1       1.215  -0.680  -0.013  0.00  0.00    +0.029 A 
ATOM     25  C   UNL     1       0.002  -0.004   0.002  0.00  0.00    +0.066 A 
ATOM     26 CL   UNL     1       3.869   2.304  -0.023  0.00  0.00    -0.084 Cl
ENDBRANCH   1  25
BRANCH   2  27
ATOM     27  C   UNL     1      -0.429  -2.662  -1.447  0.00  0.00    +0.435 C 
ATOM     28  F   UNL     1       0.275  -3.551  -0.628  0.00  0.00    -0.164 F 
ATOM     29  F   UNL     1      -1.107  -3.379  -2.439  0.00  0.00    -0.164 F 
ATOM     30  F   UNL     1       0.467  -1.771  -2.046  0.00  0.00    -0.164 F 
ENDBRANCH   2  27
TORSDOF 3
