REMARK  Name = ZINC39203599
REMARK  13 active torsions:
REMARK  status: ('A' for Active; 'I' for Inactive)
REMARK    1  A    between atoms: C_1  and  O_2
REMARK    2  A    between atoms: O_2  and  C_3
REMARK    3  A    between atoms: C_5  and  C_13
REMARK    4  A    between atoms: C_7  and  O_11
REMARK    5  A    between atoms: C_8  and  O_9
REMARK    6  A    between atoms: O_9  and  C_10
REMARK    7  A    between atoms: O_11  and  C_12
REMARK    8  A    between atoms: C_14  and  C_15
REMARK    9  A    between atoms: C_20  and  N_23
REMARK   10  A    between atoms: C_28  and  O_35
REMARK   11  A    between atoms: C_29  and  O_33
REMARK   12  A    between atoms: O_33  and  C_34
REMARK   13  A    between atoms: O_35  and  C_36
REMARK                            x       y       z     vdW  Elec       q    Type
REMARK                         _______ _______ _______ _____ _____    ______ ____
ROOT
ATOM      1  C   UNL     1      -7.255   0.318   0.060  0.00  0.00    +0.239 C 
ATOM      2  O   UNL     1      -6.242  -0.350  -0.033  0.00  0.00    -0.271 OA
ATOM      3  N   UNL     1      -8.454  -0.288   0.168  0.00  0.00    -0.298 N 
ATOM      4  C   UNL     1      -8.545  -1.748   0.309  0.00  0.00    +0.106 C 
ATOM      5  C   UNL     1      -9.484  -2.290  -0.774  0.00  0.00    +0.004 C 
ATOM      6  C   UNL     1     -10.829  -1.565  -0.686  0.00  0.00    -0.065 C 
ATOM      7  C   UNL     1     -10.621  -0.069  -0.932  0.00  0.00    +0.004 C 
ATOM      8  C   UNL     1      -9.695   0.498   0.154  0.00  0.00    +0.106 C 
ENDROOT
BRANCH   6   9
ATOM      9  N   UNL     1     -11.743  -2.106  -1.701  0.00  0.00    +0.385 N 
ATOM     10  C   UNL     1     -13.012  -1.363  -1.665  0.00  0.00    -0.073 C 
ATOM     11  C   UNL     1     -13.823  -1.724  -2.911  0.00  0.00    +0.017 C 
ATOM     12  C   UNL     1     -13.910  -3.223  -3.047  0.00  0.00    -0.044 A 
ATOM     13  C   UNL     1     -14.871  -3.757  -3.893  0.00  0.00    +0.053 A 
ATOM     14  C   UNL     1     -14.982  -5.127  -4.047  0.00  0.00    +0.162 A 
ATOM     15  C   UNL     1     -14.121  -5.971  -3.350  0.00  0.00    +0.162 A 
ATOM     16  C   UNL     1     -13.165  -5.433  -2.508  0.00  0.00    +0.051 A 
ATOM     17  C   UNL     1     -13.059  -4.058  -2.354  0.00  0.00    -0.057 A 
ATOM     18  C   UNL     1     -12.009  -3.519  -1.419  0.00  0.00    -0.042 C 
ATOM     19  H   UNL     1     -11.324  -2.017  -2.615  0.00  0.00    -0.081 HD
BRANCH  15  20
ATOM     20  O   UNL     1     -14.221  -7.319  -3.497  0.00  0.00    -0.491 OA
ATOM     21  C   UNL     1     -13.305  -8.122  -2.750  0.00  0.00    +0.277 C 
ENDBRANCH  15  20
BRANCH  14  22
ATOM     22  O   UNL     1     -15.926  -5.647  -4.876  0.00  0.00    -0.491 OA
ATOM     23  C   UNL     1     -16.773  -4.720  -5.558  0.00  0.00    +0.277 C 
ENDBRANCH  14  22
ENDBRANCH   6   9
BRANCH   1  25
ATOM     24  C   UNL     1      -5.966   2.385   0.047  0.00  0.00    +0.013 C 
ATOM     25  C   UNL     1      -7.172   1.778   0.055  0.00  0.00    +0.068 C 
BRANCH  24  28
ATOM     26  C   UNL     1      -4.558   5.863   0.028  0.00  0.00    +0.166 A 
ATOM     27  C   UNL     1      -4.633   4.484   0.034  0.00  0.00    +0.057 A 
ATOM     28  C   UNL     1      -5.882   3.852   0.042  0.00  0.00    -0.018 A 
ATOM     29  C   UNL     1      -7.051   4.622   0.044  0.00  0.00    +0.057 A 
ATOM     30  C   UNL     1      -6.968   6.001   0.039  0.00  0.00    +0.166 A 
ATOM     31  C   UNL     1      -5.724   6.626   0.036  0.00  0.00    +0.204 A 
BRANCH  26  33
ATOM     32  C   UNL     1      -2.191   5.635   0.012  0.00  0.00    +0.277 C 
ATOM     33  O   UNL     1      -3.345   6.478   0.020  0.00  0.00    -0.491 OA
ENDBRANCH  26  33
BRANCH  31  34
ATOM     34  O   UNL     1      -5.646   7.983   0.037  0.00  0.00    -0.488 OA
ATOM     35  C   UNL     1      -5.618   8.631  -1.236  0.00  0.00    +0.277 C 
ENDBRANCH  31  34
BRANCH  30  36
ATOM     36  O   UNL     1      -8.104   6.750   0.041  0.00  0.00    -0.491 OA
ATOM     37  C   UNL     1      -9.346   6.044   0.049  0.00  0.00    +0.277 C 
ENDBRANCH  30  36
ENDBRANCH  24  28
ENDBRANCH   1  25
TORSDOF 8
