REMARK  Name = ZINC37609144
REMARK  4 active torsions:
REMARK  status: ('A' for Active; 'I' for Inactive)
REMARK    1  A    between atoms: C_5  and  N_7
REMARK    2  A    between atoms: C_8  and  C_10
REMARK    3  A    between atoms: C_10  and  N_11
REMARK    4  A    between atoms: N_11  and  C_12
REMARK                            x       y       z     vdW  Elec       q    Type
REMARK                         _______ _______ _______ _____ _____    ______ ____
ROOT
ATOM      1  C   UNL     1       0.156   1.375   0.641  0.00  0.00    +0.003 A 
ATOM      2  C   UNL     1       1.163   2.104   0.045  0.00  0.00    +0.014 A 
ATOM      3  C   UNL     1       2.214   1.443  -0.589  0.00  0.00    +0.057 A 
ATOM      4  C   UNL     1       2.238   0.030  -0.614  0.00  0.00    +0.074 A 
ATOM      5  C   UNL     1       1.206  -0.693  -0.003  0.00  0.00    +0.047 A 
ATOM      6  C   UNL     1       0.173  -0.010   0.620  0.00  0.00    +0.024 A 
ATOM      7  C   UNL     1       3.356  -0.634  -1.288  0.00  0.00    +0.274 A 
ATOM      8  O   UNL     1       3.418  -1.851  -1.335  0.00  0.00    -0.266 OA
ATOM      9  N   UNL     1       4.317   0.123  -1.857  0.00  0.00    -0.239 N 
ATOM     10  H   UNL     1       5.059  -0.313  -2.305  0.00  0.00    +0.192 HD
ATOM     11  N   UNL     1       4.273   1.517  -1.819  0.00  0.00    -0.128 NA
ATOM     12  C   UNL     1       3.308   2.174  -1.238  0.00  0.00    +0.295 A 
ATOM     13  O   UNL     1       3.317   3.531  -1.232  0.00  0.00    -0.264 OA
ENDROOT
BRANCH   5  14
ATOM     14  N   UNL     1       1.217  -2.087  -0.021  0.00  0.00    -0.286 N 
ATOM     15  C   UNL     1       0.061  -2.772   0.088  0.00  0.00    +0.200 C 
ATOM     16  O   UNL     1      -0.996  -2.178   0.102  0.00  0.00    -0.278 OA
ATOM     17  H   UNL     1       2.057  -2.564  -0.113  0.00  0.00    +0.155 HD
BRANCH  15  18
ATOM     18  C   UNL     1       0.083  -4.275   0.193  0.00  0.00    +0.015 C 
BRANCH  18  19
ATOM     19  N   UNL     1      -1.293  -4.778   0.300  0.00  0.00    +0.387 N 
ATOM     20  H   UNL     1      -1.730  -4.390   1.123  0.00  0.00    -0.085 HD
ATOM     21  H   UNL     1      -1.816  -4.506  -0.518  0.00  0.00    -0.085 HD
BRANCH  19  22
ATOM     22  C   UNL     1      -1.272  -6.244   0.403  0.00  0.00    -0.071 C 
ATOM     23  C   UNL     1      -1.927  -7.040  -0.727  0.00  0.00    -0.017 C 
ATOM     24  C   UNL     1      -2.605  -6.954   0.642  0.00  0.00    -0.017 C 
ENDBRANCH  19  22
ENDBRANCH  18  19
ENDBRANCH  15  18
ENDBRANCH   5  14
TORSDOF 4
