REMARK  Name = ZINC37775552
REMARK  6 active torsions:
REMARK  status: ('A' for Active; 'I' for Inactive)
REMARK    1  A    between atoms: C_1  and  C_2
REMARK    2  A    between atoms: C_2  and  C_4
REMARK    3  A    between atoms: C_2  and  N_13
REMARK    4  A    between atoms: C_8  and  N_10
REMARK    5  A    between atoms: N_13  and  C_14
REMARK    6  A    between atoms: C_14  and  C_15
REMARK                            x       y       z     vdW  Elec       q    Type
REMARK                         _______ _______ _______ _____ _____    ______ ____
ROOT
ATOM      1  N   UNL     1       0.690  -0.478  -1.207  0.00  0.00    +0.386 N 
ATOM      2  H   UNL     1       1.608  -0.063  -1.256  0.00  0.00    -0.085 HD
ATOM      3  H   UNL     1       0.776  -1.482  -1.172  0.00  0.00    -0.085 HD
ENDROOT
BRANCH   1   5
ATOM      4  C   UNL     1      -0.019   1.526   0.010  0.00  0.00    -0.009 C 
ATOM      5  C   UNL     1       0.002  -0.004   0.002  0.00  0.00    -0.044 C 
BRANCH   5   6
ATOM      6  C   UNL     1       0.731  -0.503   1.223  0.00  0.00    -0.059 A 
ATOM      7  C   UNL     1       2.113  -0.514   1.247  0.00  0.00    +0.002 A 
ATOM      8  C   UNL     1       2.782  -0.972   2.366  0.00  0.00    +0.002 A 
ATOM      9  C   UNL     1       2.068  -1.419   3.463  0.00  0.00    +0.033 A 
ATOM     10  C   UNL     1       0.686  -1.407   3.439  0.00  0.00    +0.126 A 
ATOM     11  C   UNL     1       0.018  -0.945   2.321  0.00  0.00    +0.034 A 
BRANCH  10  12
ATOM     12  N   UNL     1      -0.078  -1.887   4.613  0.00  0.00    +0.056 N 
ATOM     13  O   UNL     1       0.507  -2.288   5.592  0.00  0.00    -0.126 OA
ATOM     14  O   UNL     1      -1.287  -1.877   4.593  0.00  0.00    -0.126 OA
ENDBRANCH  10  12
ENDBRANCH   5   6
ENDBRANCH   1   5
BRANCH   1  15
ATOM     15  C   UNL     1      -0.086  -0.093  -2.394  0.00  0.00    -0.044 C 
BRANCH  15  16
ATOM     16  C   UNL     1       0.620  -0.579  -3.634  0.00  0.00    -0.045 A 
ATOM     17  C   UNL     1       1.392   0.294  -4.376  0.00  0.00    +0.003 A 
ATOM     18  C   UNL     1       2.040  -0.151  -5.514  0.00  0.00    +0.002 A 
ATOM     19  C   UNL     1       1.915  -1.469  -5.910  0.00  0.00    +0.021 A 
ATOM     20  C   UNL     1       1.142  -2.344  -5.168  0.00  0.00    +0.059 A 
ATOM     21  C   UNL     1       0.499  -1.900  -4.025  0.00  0.00    +0.061 A 
ATOM     22 CL   UNL     1      -0.465  -2.999  -3.088  0.00  0.00    -0.082 Cl
ATOM     23 CL   UNL     1       0.985  -4.000  -5.665  0.00  0.00    -0.082 Cl
ENDBRANCH  15  16
ENDBRANCH   1  15
TORSDOF 5
