REMARK  Name = ZINC49505345
REMARK  7 active torsions:
REMARK  status: ('A' for Active; 'I' for Inactive)
REMARK    1  A    between atoms: C_1  and  O_2
REMARK    2  A    between atoms: O_2  and  C_3
REMARK    3  A    between atoms: C_3  and  C_4
REMARK    4  A    between atoms: C_9  and  N_10
REMARK    5  A    between atoms: N_10  and  S_11
REMARK    6  A    between atoms: S_11  and  C_14
REMARK    7  A    between atoms: C_19  and  N_20
REMARK                            x       y       z     vdW  Elec       q    Type
REMARK                         _______ _______ _______ _____ _____    ______ ____
ROOT
ATOM      1  S   UNL     1       1.839  -3.006  -4.679  0.00  0.00    +0.074 S 
ATOM      2  O   UNL     1       2.606  -2.287  -5.635  0.00  0.00    -0.150 OA
ATOM      3  O   UNL     1       2.130  -4.351  -4.325  0.00  0.00    -0.150 OA
ENDROOT
BRANCH   1   4
ATOM      4  C   UNL     1       0.173  -2.985  -5.252  0.00  0.00    +0.130 A 
ATOM      5  C   UNL     1      -0.549  -4.160  -5.322  0.00  0.00    +0.050 A 
ATOM      6  C   UNL     1      -1.857  -4.144  -5.772  0.00  0.00    +0.043 A 
ATOM      7  C   UNL     1      -2.446  -2.951  -6.152  0.00  0.00    +0.022 A 
ATOM      8  C   UNL     1      -1.730  -1.773  -6.084  0.00  0.00    +0.026 A 
ATOM      9  C   UNL     1      -0.418  -1.785  -5.628  0.00  0.00    +0.052 A 
ATOM     10 CL   UNL     1      -2.761  -5.624  -5.859  0.00  0.00    -0.083 Cl
BRANCH   9  11
ATOM     11  N   UNL     1       0.308  -0.594  -5.552  0.00  0.00    -0.356 N 
ATOM     12  H   UNL     1       1.191  -0.588  -5.149  0.00  0.00    +0.142 HD
ATOM     13  H   UNL     1      -0.070   0.228  -5.902  0.00  0.00    +0.142 HD
ENDBRANCH   9  11
ENDBRANCH   1   4
BRANCH   1  14
ATOM     14  N   UNL     1       1.886  -2.127  -3.276  0.00  0.00    -0.216 N 
ATOM     15  H   UNL     1       2.449  -1.340  -3.216  0.00  0.00    +0.174 HD
BRANCH  14  21
ATOM     16  C   UNL     1       0.550  -1.560  -1.348  0.00  0.00    +0.000 A 
ATOM     17  C   UNL     1      -0.218  -1.951  -0.268  0.00  0.00    +0.008 A 
ATOM     18  C   UNL     1      -0.421  -3.294  -0.012  0.00  0.00    +0.000 A 
ATOM     19  C   UNL     1       0.143  -4.251  -0.836  0.00  0.00    +0.002 A 
ATOM     20  C   UNL     1       0.912  -3.868  -1.917  0.00  0.00    +0.025 A 
ATOM     21  C   UNL     1       1.113  -2.518  -2.180  0.00  0.00    +0.053 A 
BRANCH  16  22
ATOM     22  C   UNL     1       0.771  -0.095  -1.625  0.00  0.00    +0.196 C 
BRANCH  22  24
ATOM     23  C   UNL     1       0.242   2.095  -0.809  0.00  0.00    +0.194 C 
ATOM     24  O   UNL     1       0.095   0.684  -0.637  0.00  0.00    -0.378 OA
ENDBRANCH  22  24
ENDBRANCH  16  22
ENDBRANCH  14  21
ENDBRANCH   1  14
TORSDOF 6
