REMARK  Name = ZINC34989016
REMARK  10 active torsions:
REMARK  status: ('A' for Active; 'I' for Inactive)
REMARK    1  A    between atoms: C_1  and  C_2
REMARK    2  A    between atoms: C_2  and  O_3
REMARK    3  A    between atoms: O_3  and  C_4
REMARK    4  A    between atoms: C_4  and  C_6
REMARK    5  A    between atoms: C_10  and  N_11
REMARK    6  A    between atoms: C_12  and  C_14
REMARK    7  A    between atoms: C_15  and  C_25
REMARK    8  A    between atoms: C_18  and  C_24
REMARK    9  A    between atoms: C_19  and  C_23
REMARK   10  A    between atoms: N_27  and  C_30
REMARK                            x       y       z     vdW  Elec       q    Type
REMARK                         _______ _______ _______ _____ _____    ______ ____
ROOT
ATOM      1  C   UNL     1       1.449  -2.344  -2.516  0.00  0.00    +0.091 A 
ATOM      2  C   UNL     1       2.872  -2.619  -2.517  0.00  0.00    -0.025 A 
ATOM      3  C   UNL     1       3.342  -3.117  -3.683  0.00  0.00    -0.021 A 
ATOM      4  S   UNL     1       1.923  -3.213  -4.732  0.00  0.00    -0.079 S 
ATOM      5  C   UNL     1       0.750  -2.625  -3.683  0.00  0.00    +0.087 A 
ATOM      6  C   UNL     1       4.761  -3.489  -3.976  0.00  0.00    -0.036 C 
ATOM      7  N   UNL     1       5.622  -2.878  -2.946  0.00  0.00    +0.381 N 
ATOM      8  C   UNL     1       5.096  -3.196  -1.612  0.00  0.00    -0.074 C 
ATOM      9  C   UNL     1       3.817  -2.396  -1.344  0.00  0.00    +0.018 C 
ATOM     10  C   UNL     1       6.987  -3.408  -3.073  0.00  0.00    -0.096 C 
ATOM     11  H   UNL     1       5.638  -1.877  -3.072  0.00  0.00    -0.082 HD
ENDROOT
BRANCH   5  12
ATOM     12  N   UNL     1      -0.602  -2.457  -3.927  0.00  0.00    -0.273 N 
ATOM     13  C   UNL     1      -1.116  -2.784  -5.129  0.00  0.00    +0.284 C 
ATOM     14  O   UNL     1      -0.391  -3.228  -6.000  0.00  0.00    -0.266 OA
ATOM     15  H   UNL     1      -1.180  -2.103  -3.233  0.00  0.00    +0.156 HD
BRANCH  13  16
ATOM     16  C   UNL     1      -2.551  -2.606  -5.388  0.00  0.00    +0.194 A 
ATOM     17  C   UNL     1      -3.178  -2.906  -6.555  0.00  0.00    +0.008 A 
ATOM     18  C   UNL     1      -4.587  -2.568  -6.356  0.00  0.00    +0.024 A 
ATOM     19  C   UNL     1      -5.728  -2.639  -7.159  0.00  0.00    +0.015 A 
ATOM     20  C   UNL     1      -6.933  -2.232  -6.661  0.00  0.00    -0.047 A 
ATOM     21  C   UNL     1      -7.030  -1.748  -5.363  0.00  0.00    -0.044 A 
ATOM     22  C   UNL     1      -5.917  -1.669  -4.555  0.00  0.00    +0.050 A 
ATOM     23  C   UNL     1      -4.679  -2.079  -5.040  0.00  0.00    +0.136 A 
ATOM     24  O   UNL     1      -3.446  -2.125  -4.500  0.00  0.00    -0.450 OA
ATOM     25  C   UNL     1      -8.369  -1.303  -4.832  0.00  0.00    +0.044 C 
ATOM     26  C   UNL     1      -8.165  -2.308  -7.525  0.00  0.00    +0.044 C 
ATOM     27  C   UNL     1      -2.549  -3.471  -7.803  0.00  0.00    +0.048 C 
ENDBRANCH  13  16
ENDBRANCH   5  12
BRANCH   1  28
ATOM     28  C   UNL     1       0.776  -1.800  -1.335  0.00  0.00    +0.342 C 
ATOM     29  O   UNL     1       0.312  -2.552  -0.499  0.00  0.00    -0.245 OA
BRANCH  28  30
ATOM     30  O   UNL     1       0.671  -0.465  -1.174  0.00  0.00    -0.461 OA
BRANCH  30  32
ATOM     31  C   UNL     1      -0.019   1.526   0.010  0.00  0.00    +0.048 C 
ATOM     32  C   UNL     1       0.002  -0.004   0.002  0.00  0.00    +0.229 C 
ENDBRANCH  30  32
ENDBRANCH  28  30
ENDBRANCH   1  28
TORSDOF 5
