REMARK  Name = ZINC01965139
REMARK  7 active torsions:
REMARK  status: ('A' for Active; 'I' for Inactive)
REMARK    1  A    between atoms: C_1  and  C_2
REMARK    2  A    between atoms: C_2  and  C_3
REMARK    3  A    between atoms: C_8  and  N_9
REMARK    4  A    between atoms: C_10  and  N_32
REMARK    5  A    between atoms: C_11  and  S_22
REMARK    6  A    between atoms: S_22  and  C_25
REMARK    7  A    between atoms: C_28  and  C_31
REMARK                            x       y       z     vdW  Elec       q    Type
REMARK                         _______ _______ _______ _____ _____    ______ ____
ROOT
ATOM      1  N   UNL     1      -1.158   2.145   0.019  0.00  0.00    -0.279 N 
ATOM      2  C   UNL     1      -0.017   1.379   0.010  0.00  0.00    +0.130 A 
ATOM      3  C   UNL     1       1.086   2.164   0.003  0.00  0.00    +0.160 A 
ATOM      4  C   UNL     1       0.664   3.515   0.014  0.00  0.00    +0.136 A 
ATOM      5  C   UNL     1      -0.804   3.480   0.028  0.00  0.00    +0.168 A 
ATOM      6  N   UNL     1      -1.482   4.605   0.041  0.00  0.00    -0.225 NA
ATOM      7  C   UNL     1      -0.832   5.776   0.041  0.00  0.00    +0.092 A 
ATOM      8  C   UNL     1      -1.551   6.985   0.054  0.00  0.00    +0.030 A 
ATOM      9  C   UNL     1      -0.883   8.170   0.055  0.00  0.00    +0.002 A 
ATOM     10  C   UNL     1       0.511   8.208   0.042  0.00  0.00    +0.002 A 
ATOM     11  C   UNL     1       1.240   7.060   0.028  0.00  0.00    +0.030 A 
ATOM     12  C   UNL     1       0.585   5.814   0.027  0.00  0.00    +0.090 A 
ATOM     13  N   UNL     1       1.294   4.679   0.015  0.00  0.00    -0.240 NA
ENDROOT
BRANCH   1  19
ATOM     14  C   UNL     1      -3.127   1.419  -1.178  0.00  0.00    -0.024 A 
ATOM     15  C   UNL     1      -4.418   0.927  -1.172  0.00  0.00    +0.005 A 
ATOM     16  C   UNL     1      -5.059   0.678   0.027  0.00  0.00    +0.000 A 
ATOM     17  C   UNL     1      -4.407   0.914   1.224  0.00  0.00    +0.002 A 
ATOM     18  C   UNL     1      -3.115   1.400   1.225  0.00  0.00    +0.026 A 
ATOM     19  C   UNL     1      -2.469   1.652   0.022  0.00  0.00    +0.053 A 
BRANCH  14  21
ATOM     20  C   UNL     1      -1.588   0.483  -2.883  0.00  0.00    +0.009 C 
ATOM     21  C   UNL     1      -2.432   1.696  -2.486  0.00  0.00    +0.034 C 
ENDBRANCH  14  21
ENDBRANCH   1  19
BRANCH   3  22
ATOM     22  S   UNL     1       2.756   1.602  -0.014  0.00  0.00    +0.030 S 
ATOM     23  O   UNL     1       3.543   2.650   0.534  0.00  0.00    -0.164 OA
ATOM     24  O   UNL     1       2.748   0.289   0.531  0.00  0.00    -0.164 OA
BRANCH  22  25
ATOM     25  C   UNL     1       3.234   1.443  -1.703  0.00  0.00    +0.094 A 
ATOM     26  C   UNL     1       3.045   0.245  -2.365  0.00  0.00    +0.027 A 
ATOM     27  C   UNL     1       3.417   0.121  -3.691  0.00  0.00    +0.005 A 
ATOM     28  C   UNL     1       3.986   1.194  -4.351  0.00  0.00    -0.050 A 
ATOM     29  C   UNL     1       4.180   2.391  -3.688  0.00  0.00    +0.005 A 
ATOM     30  C   UNL     1       3.804   2.516  -2.363  0.00  0.00    +0.027 A 
ATOM     31  C   UNL     1       4.394   1.059  -5.796  0.00  0.00    +0.044 C 
ENDBRANCH  22  25
ENDBRANCH   3  22
BRANCH   2  32
ATOM     32  N   UNL     1       0.002  -0.004   0.002  0.00  0.00    -0.343 N 
ATOM     33  H   UNL     1       0.849  -0.478  -0.008  0.00  0.00    +0.144 HD
ATOM     34  H   UNL     1      -0.831  -0.500   0.007  0.00  0.00    +0.144 HD
ENDBRANCH   2  32
TORSDOF 5
