REMARK  Name = ZINC38884166
REMARK  8 active torsions:
REMARK  status: ('A' for Active; 'I' for Inactive)
REMARK    1  A    between atoms: C_1  and  C_2
REMARK    2  A    between atoms: C_2  and  C_4
REMARK    3  A    between atoms: C_2  and  N_16
REMARK    4  A    between atoms: C_7  and  N_10
REMARK    5  A    between atoms: C_17  and  C_19
REMARK    6  A    between atoms: N_22  and  C_25
REMARK    7  A    between atoms: C_25  and  C_26
REMARK    8  A    between atoms: C_28  and  C_31
REMARK                            x       y       z     vdW  Elec       q    Type
REMARK                         _______ _______ _______ _____ _____    ______ ____
ROOT
ATOM      1  N   UNL     1       0.705  -0.474   1.198  0.00  0.00    -0.309 N 
ATOM      2  C   UNL     1       2.048  -0.585   1.191  0.00  0.00    +0.216 C 
ATOM      3  O   UNL     1       2.675  -0.295   0.194  0.00  0.00    -0.276 OA
ATOM      4  H   UNL     1       0.204  -0.706   1.996  0.00  0.00    +0.149 HD
ENDROOT
BRANCH   2   5
ATOM      5  C   UNL     1       2.771  -1.068   2.421  0.00  0.00    +0.071 C 
ATOM      6  C   UNL     1       2.494  -0.114   3.587  0.00  0.00    -0.006 C 
ATOM      7  C   UNL     1       3.293  -0.566   4.811  0.00  0.00    -0.077 C 
ATOM      8  N   UNL     1       4.727  -0.551   4.495  0.00  0.00    +0.386 N 
ATOM      9  C   UNL     1       5.012  -1.517   3.427  0.00  0.00    -0.077 C 
ATOM     10  C   UNL     1       4.278  -1.101   2.150  0.00  0.00    -0.006 C 
ATOM     11  H   UNL     1       4.994   0.373   4.192  0.00  0.00    -0.081 HD
BRANCH   8  12
ATOM     12  C   UNL     1       5.494  -0.910   5.695  0.00  0.00    +0.022 C 
BRANCH  12  13
ATOM     13  C   UNL     1       6.968  -0.777   5.408  0.00  0.00    +0.211 A 
ATOM     14  N   UNL     1       7.683   0.296   5.588  0.00  0.00    -0.192 NA
ATOM     15  C   UNL     1       8.960   0.064   5.229  0.00  0.00    +0.209 A 
ATOM     16  N   UNL     1       9.059  -1.177   4.813  0.00  0.00    -0.056 NA
ATOM     17  O   UNL     1       7.762  -1.744   4.930  0.00  0.00    -0.340 OA
BRANCH  15  18
ATOM     18  C   UNL     1      10.065   1.043   5.291  0.00  0.00    +0.060 A 
ATOM     19  C   UNL     1      11.380   0.884   4.941  0.00  0.00    +0.019 A 
ATOM     20  C   UNL     1      12.238   1.950   5.087  0.00  0.00    +0.008 A 
ATOM     21  C   UNL     1      11.757   3.125   5.573  0.00  0.00    +0.046 A 
ATOM     22  S   UNL     1      10.033   2.743   5.836  0.00  0.00    -0.093 S 
ENDBRANCH  15  18
ENDBRANCH  12  13
ENDBRANCH   8  12
ENDBRANCH   2   5
BRANCH   1  24
ATOM     23  C   UNL     1      -0.019   1.526  -0.009  0.00  0.00    +0.033 C 
ATOM     24  C   UNL     1       0.002  -0.004   0.002  0.00  0.00    +0.100 C 
BRANCH  24  25
ATOM     25  C   UNL     1      -1.412  -0.526   0.013  0.00  0.00    -0.027 A 
ATOM     26  C   UNL     1      -2.127  -0.555   1.196  0.00  0.00    +0.007 A 
ATOM     27  C   UNL     1      -3.423  -1.033   1.209  0.00  0.00    +0.023 A 
ATOM     28  C   UNL     1      -4.008  -1.483   0.032  0.00  0.00    +0.030 A 
ATOM     29  C   UNL     1      -3.286  -1.452  -1.154  0.00  0.00    +0.023 A 
ATOM     30  C   UNL     1      -1.993  -0.969  -1.161  0.00  0.00    +0.007 A 
BRANCH  28  31
ATOM     31  N   UNL     1      -5.318  -1.967   0.042  0.00  0.00    -0.330 N 
ATOM     32  C   UNL     1      -5.990  -2.334  -1.212  0.00  0.00    +0.105 C 
ATOM     33  C   UNL     1      -6.517  -3.767  -1.087  0.00  0.00    +0.019 C 
ATOM     34  C   UNL     1      -7.403  -3.875   0.156  0.00  0.00    +0.003 C 
ATOM     35  C   UNL     1      -6.577  -3.554   1.403  0.00  0.00    +0.019 C 
ATOM     36  C   UNL     1      -6.048  -2.125   1.308  0.00  0.00    +0.105 C 
ENDBRANCH  28  31
ENDBRANCH  24  25
ENDBRANCH   1  24
TORSDOF 7
