REMARK  Name = ZINC14067786
REMARK  8 active torsions:
REMARK  status: ('A' for Active; 'I' for Inactive)
REMARK    1  A    between atoms: C_4  and  C_7
REMARK    2  A    between atoms: C_7  and  C_8
REMARK    3  A    between atoms: C_8  and  C_10
REMARK    4  A    between atoms: C_8  and  N_28
REMARK    5  A    between atoms: N_12  and  C_13
REMARK    6  A    between atoms: C_17  and  S_19
REMARK    7  A    between atoms: S_19  and  N_22
REMARK    8  A    between atoms: C_29  and  C_31
REMARK                            x       y       z     vdW  Elec       q    Type
REMARK                         _______ _______ _______ _____ _____    ______ ____
ROOT
ATOM      1  C   UNL     1       5.543  -1.587   1.385  0.00  0.00    +0.238 C 
ATOM      2  O   UNL     1       5.717  -2.679   1.884  0.00  0.00    -0.273 OA
ATOM      3  N   UNL     1       6.577  -0.931   0.823  0.00  0.00    -0.284 N 
ATOM      4  H   UNL     1       6.425  -0.089   0.364  0.00  0.00    +0.155 HD
ENDROOT
BRANCH   3   5
ATOM      5  C   UNL     1       7.869  -1.462   0.900  0.00  0.00    +0.035 A 
ATOM      6  C   UNL     1       8.963  -0.617   1.030  0.00  0.00    +0.023 A 
ATOM      7  C   UNL     1      10.236  -1.144   1.106  0.00  0.00    +0.004 A 
ATOM      8  C   UNL     1      10.423  -2.514   1.052  0.00  0.00    +0.029 A 
ATOM      9  C   UNL     1       9.337  -3.358   0.922  0.00  0.00    +0.114 A 
ATOM     10  C   UNL     1       8.059  -2.837   0.852  0.00  0.00    +0.052 A 
BRANCH   9  11
ATOM     11  S   UNL     1       9.580  -5.102   0.853  0.00  0.00    +0.100 S 
ATOM     12  O   UNL     1       8.451  -5.644   0.181  0.00  0.00    -0.146 OA
ATOM     13  O   UNL     1      10.910  -5.308   0.396  0.00  0.00    -0.146 OA
BRANCH  11  14
ATOM     14  N   UNL     1       9.521  -5.667   2.408  0.00  0.00    -0.118 NA
ATOM     15  C   UNL     1       9.673  -6.929   2.644  0.00  0.00    +0.117 C 
ATOM     16  N   UNL     1       9.893  -7.890   1.693  0.00  0.00    -0.331 N 
ATOM     17  C   UNL     1      10.488  -9.076   2.331  0.00  0.00    +0.103 C 
ATOM     18  C   UNL     1       9.915  -9.070   3.766  0.00  0.00    +0.026 C 
ATOM     19  C   UNL     1       9.641  -7.572   4.013  0.00  0.00    +0.074 C 
ATOM     20  H   UNL     1       9.690  -7.803   0.749  0.00  0.00    +0.147 HD
ENDBRANCH  11  14
ENDBRANCH   9  11
ENDBRANCH   3   5
BRANCH   1  21
ATOM     21  C   UNL     1       4.170  -0.966   1.393  0.00  0.00    +0.164 C 
BRANCH  21  22
ATOM     22  N   UNL     1       3.228  -1.871   2.056  0.00  0.00    -0.300 N 
ATOM     23  C   UNL     1       2.113  -1.379   2.631  0.00  0.00    +0.245 C 
ATOM     24  O   UNL     1       1.888  -0.185   2.599  0.00  0.00    -0.270 OA
ATOM     25  H   UNL     1       3.407  -2.824   2.082  0.00  0.00    +0.150 HD
BRANCH  23  26
ATOM     26  C   UNL     1       1.162  -2.292   3.301  0.00  0.00    +0.037 A 
ATOM     27  C   UNL     1       1.420  -3.663   3.345  0.00  0.00    +0.013 A 
ATOM     28  C   UNL     1       0.529  -4.510   3.972  0.00  0.00    +0.001 A 
ATOM     29  C   UNL     1      -0.618  -4.003   4.556  0.00  0.00    +0.000 A 
ATOM     30  C   UNL     1      -0.880  -2.645   4.516  0.00  0.00    +0.001 A 
ATOM     31  C   UNL     1       0.006  -1.786   3.897  0.00  0.00    +0.013 A 
ENDBRANCH  23  26
ENDBRANCH  21  22
BRANCH  21  32
ATOM     32  C   UNL     1       3.713  -0.721  -0.047  0.00  0.00    +0.067 C 
BRANCH  32  36
ATOM     33  C   UNL     1      -0.021   1.355  -0.024  0.00  0.00    +0.000 A 
ATOM     34  C   UNL     1       1.165   2.065  -0.033  0.00  0.00    +0.000 A 
ATOM     35  C   UNL     1       2.373   1.394  -0.040  0.00  0.00    +0.004 A 
ATOM     36  C   UNL     1       2.396   0.011  -0.038  0.00  0.00    -0.045 A 
ATOM     37  C   UNL     1       1.210  -0.699  -0.028  0.00  0.00    +0.004 A 
ATOM     38  C   UNL     1       0.002  -0.028  -0.022  0.00  0.00    +0.000 A 
ENDBRANCH  32  36
ENDBRANCH  21  32
ENDBRANCH   1  21
TORSDOF 8
