REMARK  Name = ZINC15605673
REMARK  10 active torsions:
REMARK  status: ('A' for Active; 'I' for Inactive)
REMARK    1  A    between atoms: C_1  and  C_2
REMARK    2  A    between atoms: C_2  and  C_3
REMARK    3  A    between atoms: C_3  and  C_4
REMARK    4  A    between atoms: C_4  and  N_5
REMARK    5  A    between atoms: C_6  and  N_32
REMARK    6  A    between atoms: C_7  and  N_14
REMARK    7  A    between atoms: N_14  and  C_15
REMARK    8  A    between atoms: C_15  and  C_16
REMARK    9  A    between atoms: C_16  and  C_17
REMARK   10  A    between atoms: C_18  and  C_20
REMARK                            x       y       z     vdW  Elec       q    Type
REMARK                         _______ _______ _______ _____ _____    ______ ____
ROOT
ATOM      1  N   UNL     1       0.493  -3.166  -3.076  0.00  0.00    -0.264 N 
ATOM      2  C   UNL     1      -0.215  -2.789  -4.162  0.00  0.00    +0.227 C 
ATOM      3  O   UNL     1      -0.585  -3.622  -4.963  0.00  0.00    -0.275 OA
ENDROOT
BRANCH   2   4
ATOM      4  C   UNL     1      -0.545  -1.335  -4.378  0.00  0.00    +0.117 C 
ATOM      5  C   UNL     1      -0.729  -1.065  -5.874  0.00  0.00    +0.055 C 
ATOM      6  C   UNL     1      -1.342   0.298  -6.072  0.00  0.00    -0.004 A 
ATOM      7  C   UNL     1      -1.255   0.893  -7.319  0.00  0.00    +0.027 A 
ATOM      8  C   UNL     1      -1.813   2.138  -7.539  0.00  0.00    +0.041 A 
ATOM      9  C   UNL     1      -2.462   2.796  -6.508  0.00  0.00    +0.023 A 
ATOM     10  C   UNL     1      -2.548   2.209  -5.263  0.00  0.00    +0.047 A 
ATOM     11  C   UNL     1      -1.987   0.956  -5.039  0.00  0.00    +0.124 A 
ATOM     12  O   UNL     1      -2.089   0.412  -3.798  0.00  0.00    -0.491 OA
ATOM     13  C   UNL     1      -1.857  -0.990  -3.662  0.00  0.00    +0.242 C 
ATOM     14 CL   UNL     1      -1.701   2.876  -9.106  0.00  0.00    -0.084 Cl
ENDBRANCH   2   4
BRANCH   1  17
ATOM     15  N   UNL     1       2.296  -0.435  -1.406  0.00  0.00    -0.280 N 
ATOM     16  C   UNL     1       1.939  -1.357  -2.362  0.00  0.00    +0.127 A 
ATOM     17  C   UNL     1       0.879  -2.206  -2.118  0.00  0.00    +0.140 A 
ATOM     18  C   UNL     1       0.187  -2.094  -0.897  0.00  0.00    +0.277 A 
ATOM     19  O   UNL     1      -0.757  -2.828  -0.658  0.00  0.00    -0.266 OA
ATOM     20  N   UNL     1       0.573  -1.169   0.004  0.00  0.00    -0.273 N 
ATOM     21  H   UNL     1       0.082  -1.089   0.871  0.00  0.00    +0.173 HD
ATOM     22  C   UNL     1       1.612  -0.354  -0.250  0.00  0.00    +0.331 A 
ATOM     23  O   UNL     1       1.940   0.471   0.581  0.00  0.00    -0.246 OA
BRANCH  16  24
ATOM     24  N   UNL     1       2.634  -1.435  -3.546  0.00  0.00    -0.343 N 
ATOM     25  H   UNL     1       3.451  -0.927  -3.663  0.00  0.00    +0.144 HD
ATOM     26  H   UNL     1       2.306  -1.999  -4.264  0.00  0.00    +0.144 HD
ENDBRANCH  16  24
BRANCH  15  27
ATOM     27  C   UNL     1       3.423   0.469  -1.650  0.00  0.00    +0.128 C 
BRANCH  27  28
ATOM     28  C   UNL     1       4.713  -0.175  -1.138  0.00  0.00    +0.021 C 
BRANCH  28  30
ATOM     29  C   UNL     1       7.180   0.125  -0.880  0.00  0.00    +0.004 C 
ATOM     30  C   UNL     1       5.890   0.769  -1.393  0.00  0.00    -0.002 C 
ENDBRANCH  28  30
ENDBRANCH  27  28
ENDBRANCH  15  27
ENDBRANCH   1  17
BRANCH   1  31
ATOM     31  C   UNL     1       0.860  -4.573  -2.893  0.00  0.00    +0.113 C 
BRANCH  31  32
ATOM     32  C   UNL     1      -0.164  -5.253  -1.983  0.00  0.00    +0.016 C 
ATOM     33  C   UNL     1       0.145  -6.749  -1.896  0.00  0.00    +0.005 C 
ENDBRANCH  31  32
ENDBRANCH   1  31
TORSDOF 8
