REMARK  Name = ZINC39266451
REMARK  9 active torsions:
REMARK  status: ('A' for Active; 'I' for Inactive)
REMARK    1  A    between atoms: C_1  and  C_2
REMARK    2  A    between atoms: N_4  and  C_5
REMARK    3  A    between atoms: C_21  and  C_26
REMARK    4  A    between atoms: N_28  and  C_29
REMARK    5  A    between atoms: C_31  and  C_38
REMARK    6  A    between atoms: C_31  and  C_39
REMARK    7  A    between atoms: N_32  and  C_37
REMARK    8  A    between atoms: C_33  and  C_35
REMARK    9  A    between atoms: C_33  and  C_36
REMARK                            x       y       z     vdW  Elec       q    Type
REMARK                         _______ _______ _______ _____ _____    ______ ____
ROOT
ATOM      1  C   UNL     1      -1.979  -2.300   0.794  0.00  0.00    +0.161 C 
ATOM      2  C   UNL     1      -3.384  -2.814   1.192  0.00  0.00    +0.060 C 
ATOM      3  C   UNL     1      -4.045  -2.998  -0.186  0.00  0.00    +0.126 C 
ATOM      4  C   UNL     1      -4.947  -4.207  -0.186  0.00  0.00    +0.041 A 
ATOM      5  H   UNL     1      -6.339  -3.811   1.315  0.00  0.00    +0.166 HD
ATOM      6  C   UNL     1      -4.785  -5.256  -1.023  0.00  0.00    -0.015 A 
ATOM      7  C   UNL     1      -5.845  -6.200  -0.724  0.00  0.00    +0.003 A 
ATOM      8  C   UNL     1      -6.183  -7.444  -1.264  0.00  0.00    +0.010 A 
ATOM      9  C   UNL     1      -7.277  -8.077  -0.726  0.00  0.00    +0.001 A 
ATOM     10  C   UNL     1      -8.017  -7.520   0.303  0.00  0.00    +0.002 A 
ATOM     11  C   UNL     1      -7.705  -6.289   0.855  0.00  0.00    +0.026 A 
ATOM     12  C   UNL     1      -6.601  -5.623   0.329  0.00  0.00    +0.047 A 
ATOM     13  N   UNL     1      -6.027  -4.421   0.628  0.00  0.00    -0.356 N 
ATOM     14  C   UNL     1      -3.689  -5.394  -2.050  0.00  0.00    +0.069 C 
ATOM     15  C   UNL     1      -3.128  -4.003  -2.384  0.00  0.00    +0.167 C 
ATOM     16  N   UNL     1      -2.930  -3.270  -1.115  0.00  0.00    -0.280 N 
ATOM     17  C   UNL     1      -1.764  -2.837  -0.605  0.00  0.00    +0.237 C 
ATOM     18  O   UNL     1      -0.697  -2.872  -1.179  0.00  0.00    -0.274 OA
ENDROOT
BRANCH   1  22
ATOM     19  C   UNL     1      -0.750   1.323   0.934  0.00  0.00    +0.109 C 
ATOM     20  C   UNL     1      -0.780  -0.184   0.938  0.00  0.00    +0.211 C 
ATOM     21  O   UNL     1       0.250  -0.810   1.073  0.00  0.00    -0.276 OA
ATOM     22  N   UNL     1      -1.950  -0.836   0.791  0.00  0.00    -0.304 N 
ATOM     23  H   UNL     1      -2.774  -0.335   0.682  0.00  0.00    +0.149 HD
ENDBRANCH   1  22
BRANCH  15  24
ATOM     24  C   UNL     1      -4.106  -3.253  -3.252  0.00  0.00    +0.234 C 
ATOM     25  O   UNL     1      -4.571  -2.200  -2.869  0.00  0.00    -0.274 OA
ATOM     26  N   UNL     1      -4.463  -3.751  -4.452  0.00  0.00    -0.311 N 
ATOM     27  H   UNL     1      -4.090  -4.593  -4.757  0.00  0.00    +0.149 HD
BRANCH  26  28
ATOM     28  C   UNL     1      -5.415  -3.020  -5.297  0.00  0.00    +0.070 C 
ATOM     29  C   UNL     1      -6.840  -3.420  -4.910  0.00  0.00    +0.010 C 
ATOM     30  C   UNL     1      -7.844  -2.678  -5.791  0.00  0.00    -0.069 C 
ATOM     31  N   UNL     1      -7.579  -2.872  -7.210  0.00  0.00    +0.385 N 
ATOM     32  C   UNL     1      -6.205  -2.713  -7.663  0.00  0.00    -0.069 C 
ATOM     33  C   UNL     1      -5.190  -3.404  -6.759  0.00  0.00    +0.010 C 
ATOM     34  C   UNL     1      -5.833  -1.239  -7.837  0.00  0.00    -0.010 C 
ATOM     35  C   UNL     1      -6.099  -3.373  -9.059  0.00  0.00    -0.010 C 
ATOM     36  C   UNL     1      -8.444  -1.958  -7.984  0.00  0.00    -0.095 C 
ATOM     37  C   UNL     1      -7.891  -1.199  -5.411  0.00  0.00    -0.010 C 
ATOM     38  C   UNL     1      -9.241  -3.272  -5.494  0.00  0.00    -0.010 C 
ATOM     39  H   UNL     1      -7.877  -3.825  -7.452  0.00  0.00    -0.081 HD
ENDBRANCH  26  28
ENDBRANCH  15  24
TORSDOF 3
