REMARK  Name = ZINC06506953
REMARK  4 active torsions:
REMARK  status: ('A' for Active; 'I' for Inactive)
REMARK    1  A    between atoms: C_11  and  S_14
REMARK    2  A    between atoms: S_14  and  C_15
REMARK    3  A    between atoms: C_15  and  C_16
REMARK    4  A    between atoms: C_19  and  C_22
REMARK                            x       y       z     vdW  Elec       q    Type
REMARK                         _______ _______ _______ _____ _____    ______ ____
ROOT
ATOM      1  C   UNL     1       1.179   1.782   0.000  0.00  0.00    +0.002 A 
ATOM      2  C   UNL     1      -0.013   1.076   0.008  0.00  0.00    +0.002 A 
ATOM      3  C   UNL     1      -1.219   1.747   0.017  0.00  0.00    +0.028 A 
ATOM      4  C   UNL     1      -1.239   3.134   0.030  0.00  0.00    +0.075 A 
ATOM      5  C   UNL     1      -0.039   3.846   0.022  0.00  0.00    +0.066 A 
ATOM      6  C   UNL     1       1.169   3.162   0.007  0.00  0.00    +0.028 A 
ATOM      7  N   UNL     1      -0.357   5.200   0.031  0.00  0.00    -0.322 N 
ATOM      8  H   UNL     1       0.445   5.953   0.027  0.00  0.00    +0.169 HD
ATOM      9  C   UNL     1      -1.736   5.318   0.045  0.00  0.00    +0.235 A 
ATOM     10  N   UNL     1      -2.281   4.065   0.044  0.00  0.00    -0.255 N 
ATOM     11  C   UNL     1      -3.644   4.196   0.058  0.00  0.00    +0.198 A 
ATOM     12  N   UNL     1      -3.928   5.475   0.067  0.00  0.00    -0.120 NA
ATOM     13  N   UNL     1      -2.721   6.187   0.059  0.00  0.00    -0.110 NA
ENDROOT
BRANCH  11  14
ATOM     14  S   UNL     1      -4.811   2.876   0.064  0.00  0.00    -0.081 S 
BRANCH  14  15
ATOM     15  C   UNL     1      -6.420   3.713   0.084  0.00  0.00    +0.112 C 
BRANCH  15  16
ATOM     16  C   UNL     1      -7.521   2.685   0.090  0.00  0.00    -0.037 A 
ATOM     17  C   UNL     1      -8.041   2.224  -1.107  0.00  0.00    +0.006 A 
ATOM     18  C   UNL     1      -9.046   1.279  -1.109  0.00  0.00    +0.019 A 
ATOM     19  C   UNL     1      -9.546   0.795   0.102  0.00  0.00    +0.052 A 
ATOM     20  C   UNL     1      -9.021   1.268   1.306  0.00  0.00    +0.019 A 
ATOM     21  C   UNL     1      -8.013   2.209   1.293  0.00  0.00    +0.006 A 
BRANCH  19  22
ATOM     22  C   UNL     1     -10.593  -0.182   0.107  0.00  0.00    +0.099 C 
ATOM     23  N   UNL     1     -11.423  -0.957   0.112  0.00  0.00    -0.191 NA
ENDBRANCH  19  22
ENDBRANCH  15  16
ENDBRANCH  14  15
ENDBRANCH  11  14
TORSDOF 4
