REMARK  Name = ZINC38621051
REMARK  7 active torsions:
REMARK  status: ('A' for Active; 'I' for Inactive)
REMARK    1  A    between atoms: C_5  and  N_7
REMARK    2  A    between atoms: N_10  and  C_13
REMARK    3  A    between atoms: C_13  and  C_15
REMARK    4  A    between atoms: C_13  and  C_29
REMARK    5  A    between atoms: C_15  and  N_16
REMARK    6  A    between atoms: C_17  and  C_19
REMARK    7  A    between atoms: N_21  and  C_22
REMARK                            x       y       z     vdW  Elec       q    Type
REMARK                         _______ _______ _______ _____ _____    ______ ____
ROOT
ATOM      1  C   UNL     1       3.243  -5.766  -0.054  0.00  0.00    +0.104 C 
ENDROOT
BRANCH   1   2
ATOM      2  C   UNL     1       3.155  -6.683  -1.247  0.00  0.00    -0.025 A 
ATOM      3  C   UNL     1       1.920  -7.109  -1.699  0.00  0.00    +0.009 A 
ATOM      4  C   UNL     1       1.833  -7.950  -2.793  0.00  0.00    +0.050 A 
ATOM      5  C   UNL     1       2.986  -8.367  -3.440  0.00  0.00    +0.166 A 
ATOM      6  C   UNL     1       4.230  -7.937  -2.985  0.00  0.00    +0.167 A 
ATOM      7  C   UNL     1       4.308  -7.090  -1.891  0.00  0.00    +0.054 A 
ATOM      8  O   UNL     1       5.197  -8.480  -3.780  0.00  0.00    -0.453 OA
ATOM      9  C   UNL     1       4.558  -9.569  -4.472  0.00  0.00    +0.466 C 
ATOM     10  O   UNL     1       3.173  -9.179  -4.521  0.00  0.00    -0.453 OA
ENDBRANCH   1   2
BRANCH   1  14
ATOM     11  N   UNL     1       0.885  -2.298  -0.226  0.00  0.00    -0.325 N 
ATOM     12  C   UNL     1       0.922  -3.019   1.056  0.00  0.00    +0.120 C 
ATOM     13  C   UNL     1       2.163  -3.916   1.075  0.00  0.00    +0.104 C 
ATOM     14  N   UNL     1       2.163  -4.772  -0.119  0.00  0.00    -0.291 NA
ATOM     15  C   UNL     1       2.257  -3.973  -1.348  0.00  0.00    +0.104 C 
ATOM     16  C   UNL     1       1.012  -3.078  -1.466  0.00  0.00    +0.120 C 
BRANCH  11  21
ATOM     17  C   UNL     1      -0.695   1.019  -0.359  0.00  0.00    +0.002 A 
ATOM     18  C   UNL     1       0.417   1.840  -0.342  0.00  0.00    +0.003 A 
ATOM     19  C   UNL     1       1.685   1.292  -0.285  0.00  0.00    +0.040 A 
ATOM     20  C   UNL     1       1.845  -0.081  -0.247  0.00  0.00    +0.144 A 
ATOM     21  C   UNL     1       0.728  -0.909  -0.265  0.00  0.00    +0.065 A 
ATOM     22  C   UNL     1      -0.543  -0.354  -0.321  0.00  0.00    +0.026 A 
ATOM     23  F   UNL     1       3.084  -0.616  -0.192  0.00  0.00    -0.204 F 
ENDBRANCH  11  21
ENDBRANCH   1  14
BRANCH   1  24
ATOM     24  C   UNL     1       3.105  -6.586   1.230  0.00  0.00    +0.128 C 
BRANCH  24  25
ATOM     25  N   UNL     1       4.223  -7.528   1.331  0.00  0.00    -0.306 N 
ATOM     26  C   UNL     1       4.257  -8.428   2.333  0.00  0.00    +0.299 C 
ATOM     27  O   UNL     1       3.363  -8.459   3.152  0.00  0.00    -0.265 OA
ATOM     28  H   UNL     1       4.938  -7.504   0.676  0.00  0.00    +0.149 HD
BRANCH  26  29
ATOM     29  C   UNL     1       5.396  -9.389   2.435  0.00  0.00    +0.303 C 
ATOM     30  O   UNL     1       6.291  -9.358   1.615  0.00  0.00    -0.265 OA
ATOM     31  N   UNL     1       5.431 -10.289   3.437  0.00  0.00    -0.278 N 
ATOM     32  H   UNL     1       4.753 -10.270   4.130  0.00  0.00    +0.155 HD
BRANCH  31  33
ATOM     33  C   UNL     1       6.444 -11.251   3.478  0.00  0.00    +0.037 A 
ATOM     34  C   UNL     1       6.170 -12.531   3.945  0.00  0.00    +0.023 A 
ATOM     35  C   UNL     1       7.173 -13.479   3.985  0.00  0.00    +0.005 A 
ATOM     36  C   UNL     1       8.449 -13.158   3.561  0.00  0.00    +0.038 A 
ATOM     37  C   UNL     1       8.726 -11.883   3.095  0.00  0.00    +0.125 A 
ATOM     38  C   UNL     1       7.725 -10.931   3.047  0.00  0.00    +0.061 A 
ATOM     39  F   UNL     1       9.975 -11.572   2.682  0.00  0.00    -0.205 F 
ENDBRANCH  31  33
ENDBRANCH  26  29
ENDBRANCH  24  25
ENDBRANCH   1  24
TORSDOF 7
