REMARK  Name = ZINC40476522
REMARK  12 active torsions:
REMARK  status: ('A' for Active; 'I' for Inactive)
REMARK    1  A    between atoms: C_1  and  C_2
REMARK    2  A    between atoms: C_2  and  C_3
REMARK    3  A    between atoms: C_2  and  C_4
REMARK    4  A    between atoms: C_4  and  S_5
REMARK    5  A    between atoms: S_5  and  C_6
REMARK    6  A    between atoms: C_17  and  C_19
REMARK    7  A    between atoms: C_22  and  O_27
REMARK    8  A    between atoms: C_24  and  O_25
REMARK    9  A    between atoms: O_25  and  C_26
REMARK   10  A    between atoms: O_27  and  C_28
REMARK   11  A    between atoms: C_32  and  C_34
REMARK   12  A    between atoms: C_32  and  C_35
REMARK                            x       y       z     vdW  Elec       q    Type
REMARK                         _______ _______ _______ _____ _____    ______ ____
ROOT
ATOM      1  C   UNL     1      -3.116  -2.791  -0.118  0.00  0.00    +0.171 A 
ATOM      2  N   UNL     1      -3.460  -4.105  -0.213  0.00  0.00    -0.302 N 
ATOM      3  H   UNL     1      -2.769  -4.782  -0.294  0.00  0.00    +0.171 HD
ATOM      4  C   UNL     1      -4.760  -4.468  -0.196  0.00  0.00    +0.258 A 
ATOM      5  O   UNL     1      -5.079  -5.643  -0.283  0.00  0.00    -0.267 OA
ATOM      6  C   UNL     1      -5.736  -3.472  -0.076  0.00  0.00    +0.069 A 
ATOM      7  C   UNL     1      -5.333  -2.151   0.022  0.00  0.00    +0.135 A 
ATOM      8  N   UNL     1      -4.030  -1.849   0.001  0.00  0.00    -0.208 NA
ATOM      9  N   UNL     1      -6.280  -1.155   0.150  0.00  0.00    -0.302 N 
ATOM     10  C   UNL     1      -7.550  -1.449   0.565  0.00  0.00    +0.017 C 
ATOM     11  C   UNL     1      -8.029  -2.709   0.495  0.00  0.00    +0.024 C 
ATOM     12  C   UNL     1      -7.191  -3.834  -0.056  0.00  0.00    +0.096 C 
ATOM     13  C   UNL     1      -9.329  -3.015   0.937  0.00  0.00    +0.162 C 
ATOM     14  O   UNL     1      -9.732  -4.158   0.852  0.00  0.00    -0.292 OA
ATOM     15  C   UNL     1     -10.229  -1.956   1.512  0.00  0.00    +0.086 C 
ATOM     16  C   UNL     1      -9.367  -0.865   2.156  0.00  0.00    -0.023 C 
ATOM     17  C   UNL     1      -8.402  -0.323   1.100  0.00  0.00    +0.058 C 
ATOM     18  C   UNL     1      -8.573  -1.459   3.322  0.00  0.00    +0.011 C 
ATOM     19  C   UNL     1     -10.263   0.266   2.663  0.00  0.00    +0.011 C 
ATOM     20  H   UNL     1      -6.043  -0.237  -0.058  0.00  0.00    +0.153 HD
ENDROOT
BRANCH  12  21
ATOM     21  C   UNL     1      -7.641  -4.141  -1.461  0.00  0.00    +0.007 A 
ATOM     22  C   UNL     1      -7.539  -3.176  -2.446  0.00  0.00    +0.012 A 
ATOM     23  C   UNL     1      -7.951  -3.455  -3.735  0.00  0.00    +0.046 A 
ATOM     24  C   UNL     1      -8.469  -4.705  -4.044  0.00  0.00    +0.124 A 
ATOM     25  C   UNL     1      -8.572  -5.674  -3.058  0.00  0.00    +0.091 A 
ATOM     26  C   UNL     1      -8.152  -5.394  -1.767  0.00  0.00    +0.128 A 
BRANCH  26  27
ATOM     27  O   UNL     1      -8.247  -6.344  -0.800  0.00  0.00    -0.495 OA
ATOM     28  C   UNL     1      -8.783  -7.612  -1.186  0.00  0.00    +0.277 C 
ENDBRANCH  26  27
BRANCH  24  29
ATOM     29  O   UNL     1      -8.874  -4.978  -5.312  0.00  0.00    -0.495 OA
ATOM     30  C   UNL     1      -8.739  -3.932  -6.276  0.00  0.00    +0.277 C 
ENDBRANCH  24  29
ENDBRANCH  12  21
BRANCH   1  31
ATOM     31  S   UNL     1      -1.412  -2.341  -0.146  0.00  0.00    -0.088 S 
BRANCH  31  32
ATOM     32  C   UNL     1      -1.433  -0.534   0.013  0.00  0.00    +0.080 C 
BRANCH  32  34
ATOM     33  C   UNL     1      -0.019   1.526   0.010  0.00  0.00    +0.008 C 
ATOM     34  C   UNL     1       0.002  -0.004   0.002  0.00  0.00    -0.007 C 
ATOM     35  C   UNL     1       0.742  -0.511   1.242  0.00  0.00    +0.008 C 
ENDBRANCH  32  34
ENDBRANCH  31  32
ENDBRANCH   1  31
TORSDOF 6
