REMARK  Name = ZINC67231210
REMARK  6 active torsions:
REMARK  status: ('A' for Active; 'I' for Inactive)
REMARK    1  A    between atoms: C_4  and  O_7
REMARK    2  A    between atoms: O_7  and  S_8
REMARK    3  A    between atoms: S_8  and  C_11
REMARK    4  A    between atoms: C_11  and  C_12
REMARK    5  A    between atoms: C_12  and  N_13
REMARK    6  A    between atoms: C_17  and  C_19
REMARK                            x       y       z     vdW  Elec       q    Type
REMARK                         _______ _______ _______ _____ _____    ______ ____
ROOT
ATOM      1  N   UNL     1       2.846  -3.771   3.850  0.00  0.00    +0.385 N 
ATOM      2  C   UNL     1       1.454  -3.307   3.992  0.00  0.00    -0.078 C 
ATOM      3  C   UNL     1       1.029  -3.579   5.451  0.00  0.00    -0.020 C 
ATOM      4  C   UNL     1       2.007  -4.696   5.898  0.00  0.00    -0.012 C 
ATOM      5  C   UNL     1       3.305  -4.292   5.155  0.00  0.00    -0.034 C 
ATOM      6  H   UNL     1       2.889  -4.504   3.158  0.00  0.00    -0.081 HD
ENDROOT
BRANCH   5   7
ATOM      7  C   UNL     1       4.193  -5.493   4.957  0.00  0.00    -0.016 A 
ATOM      8  C   UNL     1       4.023  -6.303   3.850  0.00  0.00    +0.006 A 
ATOM      9  C   UNL     1       4.836  -7.405   3.666  0.00  0.00    +0.004 A 
ATOM     10  C   UNL     1       5.821  -7.703   4.590  0.00  0.00    +0.049 A 
ATOM     11  C   UNL     1       5.996  -6.895   5.703  0.00  0.00    +0.162 A 
ATOM     12  C   UNL     1       5.184  -5.781   5.884  0.00  0.00    +0.164 A 
ATOM     13  O   UNL     1       5.348  -4.968   6.963  0.00  0.00    -0.485 OA
ATOM     14  C   UNL     1       6.101  -5.497   8.059  0.00  0.00    +0.270 C 
ATOM     15  C   UNL     1       7.369  -6.154   7.498  0.00  0.00    +0.270 C 
ATOM     16  O   UNL     1       6.967  -7.203   6.605  0.00  0.00    -0.485 OA
ENDBRANCH   5   7
BRANCH   1  17
ATOM     17  C   UNL     1       3.700  -2.649   3.437  0.00  0.00    -0.052 C 
BRANCH  17  18
ATOM     18  C   UNL     1       3.301  -2.195   2.031  0.00  0.00    +0.192 C 
BRANCH  18  19
ATOM     19  S   UNL     1       4.356  -0.810   1.521  0.00  0.00    +0.119 S 
ATOM     20  O   UNL     1       5.694  -1.255   1.339  0.00  0.00    -0.137 OA
ATOM     21  O   UNL     1       4.076   0.336   2.313  0.00  0.00    -0.137 OA
BRANCH  19  22
ATOM     22  O   UNL     1       3.874  -0.445   0.125  0.00  0.00    -0.346 OA
BRANCH  22  26
ATOM     23  C   UNL     1       0.289   1.596   0.065  0.00  0.00    +0.000 A 
ATOM     24  C   UNL     1       1.480   2.294   0.144  0.00  0.00    +0.004 A 
ATOM     25  C   UNL     1       2.682   1.613   0.164  0.00  0.00    +0.048 A 
ATOM     26  C   UNL     1       2.693   0.227   0.106  0.00  0.00    +0.156 A 
ATOM     27  C   UNL     1       1.498  -0.471   0.027  0.00  0.00    +0.048 A 
ATOM     28  C   UNL     1       0.298   0.214   0.007  0.00  0.00    +0.004 A 
ENDBRANCH  22  26
ENDBRANCH  19  22
ENDBRANCH  18  19
ENDBRANCH  17  18
ENDBRANCH   1  17
TORSDOF 6
