REMARK  Name = ZINC35966830
REMARK  11 active torsions:
REMARK  status: ('A' for Active; 'I' for Inactive)
REMARK    1  A    between atoms: C_1  and  C_2
REMARK    2  A    between atoms: C_2  and  C_3
REMARK    3  A    between atoms: C_2  and  C_4
REMARK    4  A    between atoms: C_4  and  C_5
REMARK    5  A    between atoms: C_5  and  C_7
REMARK    6  A    between atoms: C_5  and  N_17
REMARK    7  A    between atoms: N_9  and  C_10
REMARK    8  A    between atoms: C_10  and  C_11
REMARK    9  A    between atoms: C_23  and  C_30
REMARK   10  A    between atoms: N_28  and  C_29
REMARK   11  A    between atoms: C_35  and  C_36
REMARK                            x       y       z     vdW  Elec       q    Type
REMARK                         _______ _______ _______ _____ _____    ______ ____
ROOT
ATOM      1  N   UNL     1      -1.726  -2.790   1.471  0.00  0.00    -0.281 N 
ATOM      2  C   UNL     1      -0.481  -3.572   1.439  0.00  0.00    +0.160 C 
ATOM      3  C   UNL     1      -0.047  -3.671   2.884  0.00  0.00    +0.042 C 
ATOM      4  C   UNL     1      -0.972  -3.005   3.605  0.00  0.00    +0.058 C 
ATOM      5  C   UNL     1      -1.967  -2.478   2.757  0.00  0.00    +0.247 C 
ATOM      6  O   UNL     1      -2.923  -1.827   3.139  0.00  0.00    -0.270 OA
ATOM      7  C   UNL     1      -0.784  -2.942   5.107  0.00  0.00    +0.142 C 
ATOM      8  N   UNL     1       0.402  -3.619   5.660  0.00  0.00    -0.288 N 
ATOM      9  C   UNL     1       1.238  -4.245   4.808  0.00  0.00    +0.307 C 
ATOM     10  O   UNL     1       2.220  -4.807   5.255  0.00  0.00    -0.252 OA
ATOM     11  N   UNL     1       1.023  -4.269   3.486  0.00  0.00    -0.260 N 
ATOM     12  C   UNL     1       1.988  -4.975   2.640  0.00  0.00    +0.139 C 
ATOM     13  H   UNL     1       0.577  -3.614   6.614  0.00  0.00    +0.151 HD
ENDROOT
BRANCH   7  14
ATOM     14  C   UNL     1      -0.718  -1.491   5.508  0.00  0.00    -0.011 A 
ATOM     15  C   UNL     1       0.392  -0.734   5.183  0.00  0.00    +0.006 A 
ATOM     16  C   UNL     1       0.452   0.597   5.550  0.00  0.00    +0.000 A 
ATOM     17  C   UNL     1      -0.598   1.172   6.241  0.00  0.00    +0.001 A 
ATOM     18  C   UNL     1      -1.709   0.415   6.565  0.00  0.00    +0.013 A 
ATOM     19  C   UNL     1      -1.771  -0.915   6.194  0.00  0.00    +0.060 A 
BRANCH  19  20
ATOM     20  C   UNL     1      -2.983  -1.739   6.543  0.00  0.00    +0.418 C 
ATOM     21  F   UNL     1      -3.916  -0.937   7.209  0.00  0.00    -0.166 F 
ATOM     22  F   UNL     1      -3.556  -2.245   5.371  0.00  0.00    -0.166 F 
ATOM     23  F   UNL     1      -2.604  -2.800   7.372  0.00  0.00    -0.166 F 
ENDBRANCH  19  20
ENDBRANCH   7  14
BRANCH   1  24
ATOM     24  C   UNL     1      -2.546  -2.414   0.317  0.00  0.00    +0.163 C 
BRANCH  24  25
ATOM     25  C   UNL     1      -3.892  -3.083   0.418  0.00  0.00    +0.234 C 
ATOM     26  O   UNL     1      -4.143  -3.802   1.362  0.00  0.00    -0.274 OA
ATOM     27  N   UNL     1      -4.819  -2.881  -0.539  0.00  0.00    -0.310 N 
ATOM     28  H   UNL     1      -4.619  -2.306  -1.294  0.00  0.00    +0.149 HD
BRANCH  27  29
ATOM     29  C   UNL     1      -6.128  -3.531  -0.441  0.00  0.00    +0.141 C 
BRANCH  29  30
ATOM     30  C   UNL     1      -6.972  -3.145  -1.628  0.00  0.00    -0.012 A 
ATOM     31  C   UNL     1      -7.782  -2.020  -1.578  0.00  0.00    +0.008 A 
ATOM     32  C   UNL     1      -8.541  -1.703  -2.694  0.00  0.00    +0.020 A 
ATOM     33  C   UNL     1      -8.465  -2.513  -3.812  0.00  0.00    +0.111 A 
ATOM     34  N   UNL     1      -7.684  -3.575  -3.824  0.00  0.00    -0.263 NA
ATOM     35  C   UNL     1      -6.943  -3.903  -2.783  0.00  0.00    +0.115 A 
ENDBRANCH  29  30
ENDBRANCH  27  29
ENDBRANCH  24  25
BRANCH  24  36
ATOM     36  C   UNL     1      -2.731  -0.895   0.295  0.00  0.00    +0.035 C 
BRANCH  36  38
ATOM     37  C   UNL     1      -0.760  -0.582  -1.209  0.00  0.00    +0.007 C 
ATOM     38  C   UNL     1      -1.367  -0.218   0.148  0.00  0.00    -0.015 C 
ATOM     39  C   UNL     1      -1.539   1.300   0.238  0.00  0.00    +0.007 C 
ENDBRANCH  36  38
ENDBRANCH  24  36
ENDBRANCH   1  24
TORSDOF 8
