REMARK  Name = ZINC03424633
REMARK  7 active torsions:
REMARK  status: ('A' for Active; 'I' for Inactive)
REMARK    1  A    between atoms: C_1  and  C_2
REMARK    2  A    between atoms: C_7  and  N_8
REMARK    3  A    between atoms: C_9  and  C_23
REMARK    4  A    between atoms: C_12  and  S_13
REMARK    5  A    between atoms: S_13  and  C_14
REMARK    6  A    between atoms: C_14  and  C_15
REMARK    7  A    between atoms: C_18  and  C_21
REMARK                            x       y       z     vdW  Elec       q    Type
REMARK                         _______ _______ _______ _____ _____    ______ ____
ROOT
ATOM      1  N   UNL     1       0.002  -0.004   0.002  0.00  0.00    -0.274 N 
ATOM      2  C   UNL     1      -0.017   1.365   0.009  0.00  0.00    +0.135 A 
ATOM      3  N   UNL     1       1.222   1.770  -0.000  0.00  0.00    -0.133 NA
ATOM      4  N   UNL     1       2.017   0.760  -0.013  0.00  0.00    -0.122 NA
ATOM      5  C   UNL     1       1.324  -0.355  -0.013  0.00  0.00    +0.196 A 
ATOM      6  C   UNL     1      -1.242   2.242   0.020  0.00  0.00    +0.088 C 
ENDROOT
BRANCH   1  13
ATOM      7  C   UNL     1      -1.027  -0.855   2.516  0.00  0.00    +0.046 C 
ATOM      8  C   UNL     1      -1.636  -1.305   1.213  0.00  0.00    -0.027 A 
ATOM      9  C   UNL     1      -2.728  -2.152   1.216  0.00  0.00    +0.005 A 
ATOM     10  C   UNL     1      -3.284  -2.570   0.022  0.00  0.00    +0.000 A 
ATOM     11  C   UNL     1      -2.753  -2.138  -1.180  0.00  0.00    +0.002 A 
ATOM     12  C   UNL     1      -1.664  -1.288  -1.190  0.00  0.00    +0.026 A 
ATOM     13  C   UNL     1      -1.104  -0.867   0.009  0.00  0.00    +0.053 A 
ENDBRANCH   1  13
BRANCH   5  14
ATOM     14  S   UNL     1       1.974  -1.993  -0.028  0.00  0.00    -0.081 S 
BRANCH  14  15
ATOM     15  C   UNL     1       3.747  -1.628  -0.043  0.00  0.00    +0.112 C 
BRANCH  15  16
ATOM     16  C   UNL     1       4.525  -2.918  -0.057  0.00  0.00    -0.037 A 
ATOM     17  C   UNL     1       4.897  -3.511   1.136  0.00  0.00    +0.006 A 
ATOM     18  C   UNL     1       5.606  -4.695   1.130  0.00  0.00    +0.019 A 
ATOM     19  C   UNL     1       5.957  -5.288  -0.085  0.00  0.00    +0.052 A 
ATOM     20  C   UNL     1       5.582  -4.681  -1.285  0.00  0.00    +0.019 A 
ATOM     21  C   UNL     1       4.870  -3.501  -1.264  0.00  0.00    +0.006 A 
BRANCH  19  22
ATOM     22  C   UNL     1       6.696  -6.514  -0.099  0.00  0.00    +0.099 C 
ATOM     23  N   UNL     1       7.283  -7.487  -0.110  0.00  0.00    -0.191 NA
ENDBRANCH  19  22
ENDBRANCH  15  16
ENDBRANCH  14  15
ENDBRANCH   5  14
TORSDOF 5
