REMARK  Name = ZINC25181600
REMARK  5 active torsions:
REMARK  status: ('A' for Active; 'I' for Inactive)
REMARK    1  A    between atoms: C_5  and  C_7
REMARK    2  A    between atoms: C_7  and  C_9
REMARK    3  A    between atoms: C_7  and  N_24
REMARK    4  A    between atoms: C_9  and  N_10
REMARK    5  A    between atoms: C_11  and  C_13
REMARK                            x       y       z     vdW  Elec       q    Type
REMARK                         _______ _______ _______ _____ _____    ______ ____
ROOT
ATOM      1  N   UNL     1       3.283   7.540  -1.088  0.00  0.00    -0.313 N 
ATOM      2  C   UNL     1       1.996   7.142  -1.058  0.00  0.00    +0.244 C 
ATOM      3  O   UNL     1       1.615   6.261  -1.804  0.00  0.00    -0.270 OA
ATOM      4  H   UNL     1       3.628   8.337  -0.413  0.00  0.00    +0.149 HD
ENDROOT
BRANCH   2   5
ATOM      5  C   UNL     1       1.048   7.776  -0.121  0.00  0.00    +0.040 A 
ATOM      6  C   UNL     1       1.486   8.789   0.737  0.00  0.00    +0.015 A 
ATOM      7  C   UNL     1       0.601   9.381   1.613  0.00  0.00    +0.028 A 
ATOM      8  C   UNL     1      -0.725   8.972   1.643  0.00  0.00    +0.076 A 
ATOM      9  C   UNL     1      -1.168   7.959   0.790  0.00  0.00    +0.143 A 
ATOM     10  C   UNL     1      -0.287   7.363  -0.089  0.00  0.00    +0.060 A 
ATOM     11  O   UNL     1      -2.470   7.570   0.834  0.00  0.00    -0.481 OA
ATOM     12  C   UNL     1      -3.116   7.633   2.108  0.00  0.00    +0.325 C 
ATOM     13  C   UNL     1      -2.812   8.956   2.764  0.00  0.00    +0.255 C 
ATOM     14  O   UNL     1      -3.625   9.470   3.503  0.00  0.00    -0.272 OA
ATOM     15  N   UNL     1      -1.631   9.566   2.526  0.00  0.00    -0.280 N 
ATOM     16  H   UNL     1      -1.379  10.519   3.015  0.00  0.00    +0.155 HD
ENDBRANCH   2   5
BRANCH   1  17
ATOM     17  C   UNL     1       4.223   6.911  -2.018  0.00  0.00    +0.094 C 
BRANCH  17  18
ATOM     18  C   UNL     1       5.573   7.628  -1.942  0.00  0.00    -0.019 C 
BRANCH  18  23
ATOM     19  C   UNL     1       5.156  11.380  -1.979  0.00  0.00    +0.000 A 
ATOM     20  C   UNL     1       5.132  11.643  -3.336  0.00  0.00    +0.001 A 
ATOM     21  C   UNL     1       5.251  10.606  -4.243  0.00  0.00    +0.020 A 
ATOM     22  C   UNL     1       5.394   9.306  -3.792  0.00  0.00    +0.043 A 
ATOM     23  C   UNL     1       5.418   9.044  -2.434  0.00  0.00    -0.041 A 
ATOM     24  C   UNL     1       5.293  10.081  -1.528  0.00  0.00    +0.003 A 
ATOM     25 CL   UNL     1       5.543   8.004  -4.930  0.00  0.00    -0.083 Cl
ENDBRANCH  18  23
BRANCH  18  26
ATOM     26  N   UNL     1       6.043   7.641  -0.550  0.00  0.00    +0.385 N 
ATOM     27  C   UNL     1       6.088   6.266   0.009  0.00  0.00    -0.078 C 
ATOM     28  C   UNL     1       7.060   6.404   1.208  0.00  0.00    -0.020 C 
ATOM     29  C   UNL     1       8.120   7.397   0.681  0.00  0.00    -0.020 C 
ATOM     30  C   UNL     1       7.425   8.158  -0.463  0.00  0.00    -0.078 C 
ATOM     31  H   UNL     1       5.337   8.283  -0.003  0.00  0.00    -0.081 HD
ENDBRANCH  18  26
ENDBRANCH  17  18
ENDBRANCH   1  17
TORSDOF 5
