REMARK  Name = ZINC06954195
REMARK  4 active torsions:
REMARK  status: ('A' for Active; 'I' for Inactive)
REMARK    1  A    between atoms: C_1  and  O_2
REMARK    2  A    between atoms: O_2  and  C_3
REMARK    3  A    between atoms: C_16  and  C_19
REMARK    4  A    between atoms: C_23  and  N_25
REMARK                            x       y       z     vdW  Elec       q    Type
REMARK                         _______ _______ _______ _____ _____    ______ ____
ROOT
ATOM      1  C   UNL     1       1.180   2.079   0.002  0.00  0.00    +0.120 A 
ATOM      2  C   UNL     1      -0.017   1.376   0.010  0.00  0.00    +0.047 A 
ATOM      3  C   UNL     1       0.002  -0.004   0.002  0.00  0.00    +0.027 A 
ATOM      4  C   UNL     1       1.213  -0.684  -0.014  0.00  0.00    +0.032 A 
ATOM      5  C   UNL     1       2.412   0.011  -0.020  0.00  0.00    -0.016 A 
ATOM      6  C   UNL     1       2.385   1.399  -0.012  0.00  0.00    +0.051 A 
ATOM      7  C   UNL     1       3.738  -0.681  -0.032  0.00  0.00    +0.049 C 
ATOM      8  C   UNL     1       4.389  -0.600  -1.393  0.00  0.00    -0.023 C 
ATOM      9  C   UNL     1       5.036  -1.709  -1.653  0.00  0.00    -0.030 C 
ATOM     10  C   UNL     1       4.909  -2.682  -0.497  0.00  0.00    +0.033 C 
ATOM     11  C   UNL     1       3.633  -2.192   0.248  0.00  0.00    +0.029 C 
ATOM     12  C   UNL     1       2.423  -2.777  -0.485  0.00  0.00    +0.105 C 
ATOM     13  N   UNL     1       1.212  -2.086  -0.029  0.00  0.00    -0.336 N 
ATOM     14  H   UNL     1       0.431  -2.586   0.255  0.00  0.00    +0.147 HD
ENDROOT
BRANCH  12  15
ATOM     15  C   UNL     1       2.588  -2.579  -1.970  0.00  0.00    -0.025 A 
ATOM     16  C   UNL     1       2.297  -1.354  -2.541  0.00  0.00    +0.007 A 
ATOM     17  C   UNL     1       2.449  -1.171  -3.902  0.00  0.00    +0.022 A 
ATOM     18  C   UNL     1       2.892  -2.215  -4.694  0.00  0.00    +0.071 A 
ATOM     19  C   UNL     1       3.184  -3.441  -4.123  0.00  0.00    +0.145 A 
ATOM     20  C   UNL     1       3.037  -3.620  -2.760  0.00  0.00    +0.039 A 
ATOM     21 CL   UNL     1       3.084  -1.987  -6.404  0.00  0.00    -0.081 Cl
BRANCH  19  22
ATOM     22  N   UNL     1       3.659  -4.558  -4.970  0.00  0.00    +0.058 N 
ATOM     23  O   UNL     1       3.916  -5.637  -4.467  0.00  0.00    -0.126 OA
ATOM     24  O   UNL     1       3.793  -4.398  -6.170  0.00  0.00    -0.126 OA
ENDBRANCH  19  22
ENDBRANCH  12  15
BRANCH   1  26
ATOM     25  C   UNL     1      -0.111   4.076   0.022  0.00  0.00    +0.277 C 
ATOM     26  O   UNL     1       1.168   3.438   0.008  0.00  0.00    -0.495 OA
ENDBRANCH   1  26
TORSDOF 3
