REMARK  Name = ZINC17086663
REMARK  8 active torsions:
REMARK  status: ('A' for Active; 'I' for Inactive)
REMARK    1  A    between atoms: C_1  and  C_2
REMARK    2  A    between atoms: C_5  and  C_8
REMARK    3  A    between atoms: C_8  and  N_9
REMARK    4  A    between atoms: C_16  and  C_19
REMARK    5  A    between atoms: C_16  and  O_29
REMARK    6  A    between atoms: C_19  and  C_20
REMARK    7  A    between atoms: C_20  and  C_22
REMARK    8  A    between atoms: C_27  and  O_28
REMARK                            x       y       z     vdW  Elec       q    Type
REMARK                         _______ _______ _______ _____ _____    ______ ____
ROOT
ATOM      1  N   UNL     1       0.935  -3.498   1.908  0.00  0.00    -0.264 N 
ATOM      2  C   UNL     1       2.196  -3.732   1.358  0.00  0.00    +0.043 A 
ATOM      3  C   UNL     1       3.246  -4.537   1.796  0.00  0.00    +0.025 A 
ATOM      4  C   UNL     1       4.415  -4.607   1.068  0.00  0.00    +0.017 A 
ATOM      5  C   UNL     1       4.556  -3.880  -0.101  0.00  0.00    +0.018 A 
ATOM      6  C   UNL     1       3.517  -3.079  -0.543  0.00  0.00    +0.024 A 
ATOM      7  C   UNL     1       2.349  -3.007   0.182  0.00  0.00    +0.016 A 
ATOM      8  C   UNL     1       1.058  -2.248  -0.020  0.00  0.00    +0.175 C 
ATOM      9  C   UNL     1       0.207  -2.644   1.168  0.00  0.00    +0.257 C 
ATOM     10  O   UNL     1      -0.919  -2.263   1.406  0.00  0.00    -0.272 OA
ATOM     11 BR   UNL     1       6.162  -3.982  -1.094  0.00  0.00    -0.050 Br
ENDROOT
BRANCH   8  12
ATOM     12  O   UNL     1       0.428  -2.642  -1.241  0.00  0.00    -0.374 OA
ATOM     13  H   UNL     1      -0.419  -2.206  -1.404  0.00  0.00    +0.211 HD
ENDBRANCH   8  12
BRANCH   1  14
ATOM     14  C   UNL     1       0.459  -4.111   3.150  0.00  0.00    +0.148 C 
BRANCH  14  19
ATOM     15  C   UNL     1      -2.185  -9.105   1.944  0.00  0.00    +0.044 C 
ATOM     16  C   UNL     1      -1.496  -7.803   2.259  0.00  0.00    -0.050 A 
ATOM     17  C   UNL     1      -0.138  -7.784   2.516  0.00  0.00    +0.003 A 
ATOM     18  C   UNL     1       0.495  -6.590   2.804  0.00  0.00    +0.005 A 
ATOM     19  C   UNL     1      -0.231  -5.413   2.836  0.00  0.00    -0.030 A 
ATOM     20  C   UNL     1      -1.590  -5.433   2.584  0.00  0.00    +0.005 A 
ATOM     21  C   UNL     1      -2.221  -6.627   2.291  0.00  0.00    +0.003 A 
ENDBRANCH  14  19
ENDBRANCH   1  14
BRANCH   8  22
ATOM     22  C   UNL     1       1.317  -0.740  -0.015  0.00  0.00    +0.129 C 
BRANCH  22  23
ATOM     23  C   UNL     1       0.002  -0.004   0.002  0.00  0.00    +0.170 C 
ATOM     24  O   UNL     1      -1.040  -0.625   0.009  0.00  0.00    -0.292 OA
BRANCH  23  25
ATOM     25  C   UNL     1      -0.018   1.464   0.010  0.00  0.00    +0.059 A 
ATOM     26  C   UNL     1       1.182   2.185   0.003  0.00  0.00    +0.015 A 
ATOM     27  C   UNL     1       1.155   3.561   0.010  0.00  0.00    +0.001 A 
ATOM     28  C   UNL     1      -0.054   4.238   0.025  0.00  0.00    +0.004 A 
ATOM     29  C   UNL     1      -1.246   3.541   0.033  0.00  0.00    +0.046 A 
ATOM     30  C   UNL     1      -1.241   2.154   0.020  0.00  0.00    +0.127 A 
BRANCH  30  31
ATOM     31  O   UNL     1      -2.411   1.468   0.021  0.00  0.00    -0.506 OA
ATOM     32  H   UNL     1      -2.746   1.264   0.905  0.00  0.00    +0.292 HD
ENDBRANCH  30  31
ENDBRANCH  23  25
ENDBRANCH  22  23
ENDBRANCH   8  22
TORSDOF 7
