REMARK  Name = ZINC21243127
REMARK  9 active torsions:
REMARK  status: ('A' for Active; 'I' for Inactive)
REMARK    1  A    between atoms: C_1  and  C_2
REMARK    2  A    between atoms: C_2  and  C_3
REMARK    3  A    between atoms: C_3  and  O_4
REMARK    4  A    between atoms: O_4  and  C_5
REMARK    5  A    between atoms: C_8  and  C_11
REMARK    6  A    between atoms: C_16  and  C_21
REMARK    7  A    between atoms: C_24  and  N_27
REMARK    8  A    between atoms: N_27  and  C_28
REMARK    9  A    between atoms: N_27  and  C_29
REMARK                            x       y       z     vdW  Elec       q    Type
REMARK                         _______ _______ _______ _____ _____    ______ ____
ROOT
ATOM      1  C   UNL     1       2.108  -6.393  -0.135  0.00  0.00    +0.136 C 
ATOM      2  C   UNL     1       1.978  -4.889  -0.174  0.00  0.00    +0.036 C 
ATOM      3  C   UNL     1       1.942  -4.072   0.892  0.00  0.00    +0.017 C 
ATOM      4  C   UNL     1       1.831  -2.568   0.706  0.00  0.00    +0.059 C 
ATOM      5  C   UNL     1       1.011  -2.257  -0.545  0.00  0.00    +0.032 C 
ATOM      6  C   UNL     1       1.728  -2.890  -1.743  0.00  0.00    +0.088 C 
ATOM      7  C   UNL     1       1.891  -4.357  -1.483  0.00  0.00    +0.163 C 
ATOM      8  O   UNL     1       1.949  -5.117  -2.429  0.00  0.00    -0.292 OA
ATOM      9  N   UNL     1       1.999  -4.480   2.185  0.00  0.00    -0.316 N 
ATOM     10  C   UNL     1       2.912  -5.402   2.685  0.00  0.00    +0.052 A 
ATOM     11  C   UNL     1       3.870  -5.060   3.623  0.00  0.00    +0.025 A 
ATOM     12  C   UNL     1       4.720  -6.037   4.113  0.00  0.00    +0.002 A 
ATOM     13  C   UNL     1       4.609  -7.343   3.671  0.00  0.00    +0.002 A 
ATOM     14  C   UNL     1       3.662  -7.684   2.720  0.00  0.00    +0.025 A 
ATOM     15  C   UNL     1       2.824  -6.703   2.213  0.00  0.00    +0.049 A 
ATOM     16  N   UNL     1       1.931  -6.975   1.178  0.00  0.00    -0.331 N 
ATOM     17  H   UNL     1       1.289  -4.076   2.921  0.00  0.00    +0.152 HD
ATOM     18  H   UNL     1       1.080  -7.644   1.373  0.00  0.00    +0.147 HD
ENDROOT
BRANCH   1  22
ATOM     19  C   UNL     1       5.987  -7.457  -1.578  0.00  0.00    +0.121 A 
ATOM     20  C   UNL     1       4.854  -7.862  -2.267  0.00  0.00    +0.046 A 
ATOM     21  C   UNL     1       3.601  -7.517  -1.799  0.00  0.00    +0.009 A 
ATOM     22  C   UNL     1       3.476  -6.768  -0.644  0.00  0.00    -0.023 A 
ATOM     23  C   UNL     1       4.604  -6.358   0.043  0.00  0.00    +0.009 A 
ATOM     24  C   UNL     1       5.859  -6.705  -0.419  0.00  0.00    +0.046 A 
BRANCH  19  25
ATOM     25  O   UNL     1       7.221  -7.795  -2.036  0.00  0.00    -0.492 OA
BRANCH  25  26
ATOM     26  C   UNL     1       8.343  -7.343  -1.275  0.00  0.00    +0.229 C 
BRANCH  26  28
ATOM     27  C   UNL     1      10.837  -7.333  -1.126  0.00  0.00    +0.007 C 
ATOM     28  C   UNL     1       9.636  -7.817  -1.941  0.00  0.00    +0.038 C 
ENDBRANCH  26  28
ENDBRANCH  25  26
ENDBRANCH  19  25
ENDBRANCH   1  22
BRANCH   5  29
ATOM     29  C   UNL     1       0.916  -0.765  -0.736  0.00  0.00    -0.043 A 
ATOM     30  C   UNL     1      -0.322  -0.150  -0.762  0.00  0.00    +0.006 A 
ATOM     31  C   UNL     1      -0.412   1.217  -0.937  0.00  0.00    +0.023 A 
ATOM     32  C   UNL     1       0.742   1.974  -1.086  0.00  0.00    +0.029 A 
ATOM     33  C   UNL     1       1.985   1.353  -1.059  0.00  0.00    +0.023 A 
ATOM     34  C   UNL     1       2.068  -0.014  -0.884  0.00  0.00    +0.006 A 
BRANCH  32  35
ATOM     35  N   UNL     1       0.655   3.357  -1.263  0.00  0.00    -0.336 N 
ATOM     36  C   UNL     1      -0.656   4.010  -1.291  0.00  0.00    +0.129 C 
ATOM     37  C   UNL     1       1.874   4.154  -1.420  0.00  0.00    +0.129 C 
ENDBRANCH  32  35
ENDBRANCH   5  29
TORSDOF 6
