REMARK  Name = ZINC24964478
REMARK  10 active torsions:
REMARK  status: ('A' for Active; 'I' for Inactive)
REMARK    1  A    between atoms: C_1  and  C_2
REMARK    2  A    between atoms: C_4  and  C_24
REMARK    3  A    between atoms: C_5  and  C_21
REMARK    4  A    between atoms: C_6  and  C_20
REMARK    5  A    between atoms: C_7  and  C_8
REMARK    6  A    between atoms: C_8  and  O_9
REMARK    7  A    between atoms: O_9  and  C_10
REMARK    8  A    between atoms: C_10  and  C_12
REMARK    9  A    between atoms: C_15  and  C_18
REMARK   10  A    between atoms: C_21  and  C_23
REMARK                            x       y       z     vdW  Elec       q    Type
REMARK                         _______ _______ _______ _____ _____    ______ ____
ROOT
ATOM      1  C   UNL     1       0.423  -0.273   6.495  0.00  0.00    +0.044 C 
ATOM      2  C   UNL     1       0.272   0.390   5.151  0.00  0.00    -0.044 A 
ATOM      3  C   UNL     1       1.158   0.089   4.131  0.00  0.00    +0.007 A 
ATOM      4  C   UNL     1       1.026   0.691   2.897  0.00  0.00    -0.039 A 
ATOM      5  C   UNL     1      -0.006   1.609   2.679  0.00  0.00    +0.023 A 
ATOM      6  C   UNL     1      -0.894   1.912   3.716  0.00  0.00    -0.033 A 
ATOM      7  C   UNL     1      -0.752   1.298   4.942  0.00  0.00    -0.004 A 
ATOM      8  C   UNL     1      -2.006   2.904   3.492  0.00  0.00    +0.045 C 
ATOM      9  C   UNL     1       1.992   0.361   1.788  0.00  0.00    +0.044 C 
ENDROOT
BRANCH   5  10
ATOM     10  C   UNL     1      -0.154   2.257   1.365  0.00  0.00    +0.161 C 
ATOM     11  O   UNL     1       0.456   3.275   1.120  0.00  0.00    -0.292 OA
ATOM     12  C   UNL     1      -1.063   1.654   0.326  0.00  0.00    +0.091 C 
ENDBRANCH   5  10
BRANCH   7  13
ATOM     13  C   UNL     1      -1.711   1.619   6.059  0.00  0.00    +0.268 C 
BRANCH  13  14
ATOM     14  O   UNL     1      -1.200   2.740   6.828  0.00  0.00    -0.456 OA
BRANCH  14  15
ATOM     15  C   UNL     1      -1.944   3.156   7.871  0.00  0.00    +0.339 C 
ATOM     16  O   UNL     1      -2.991   2.597   8.131  0.00  0.00    -0.245 OA
BRANCH  15  17
ATOM     17  C   UNL     1      -1.487   4.292   8.699  0.00  0.00    +0.059 A 
ATOM     18  C   UNL     1      -0.281   4.930   8.403  0.00  0.00    +0.016 A 
ATOM     19  C   UNL     1       0.142   5.992   9.171  0.00  0.00    +0.019 A 
ATOM     20  C   UNL     1      -0.629   6.423  10.252  0.00  0.00    +0.052 A 
ATOM     21  C   UNL     1      -1.833   5.781  10.552  0.00  0.00    +0.019 A 
ATOM     22  C   UNL     1      -2.259   4.723   9.780  0.00  0.00    +0.016 A 
BRANCH  20  23
ATOM     23  C   UNL     1      -0.187   7.524  11.054  0.00  0.00    +0.099 C 
ATOM     24  N   UNL     1       0.165   8.398  11.690  0.00  0.00    -0.191 NA
ENDBRANCH  20  23
ENDBRANCH  15  17
ENDBRANCH  14  15
ENDBRANCH  13  14
ENDBRANCH   7  13
TORSDOF 6
