REMARK  Name = ZINC11663293
REMARK  8 active torsions:
REMARK  status: ('A' for Active; 'I' for Inactive)
REMARK    1  A    between atoms: C_1  and  C_2
REMARK    2  A    between atoms: C_10  and  C_12
REMARK    3  A    between atoms: C_12  and  N_13
REMARK    4  A    between atoms: N_13  and  C_14
REMARK    5  A    between atoms: C_15  and  C_17
REMARK    6  A    between atoms: C_17  and  N_53
REMARK    7  A    between atoms: C_26  and  N_53
REMARK    8  A    between atoms: C_27  and  N_53
REMARK                            x       y       z     vdW  Elec       q    Type
REMARK                         _______ _______ _______ _____ _____    ______ ____
ROOT
ATOM      1  N   UNL     1      -4.088   0.436  -1.391  0.00  0.00    -0.298 N 
ATOM      2  C   UNL     1      -4.316  -0.867  -2.021  0.00  0.00    +0.132 C 
ATOM      3  C   UNL     1      -4.343   1.569  -2.074  0.00  0.00    +0.206 C 
ATOM      4  O   UNL     1      -4.061   2.645  -1.591  0.00  0.00    -0.277 OA
ENDROOT
BRANCH   3   5
ATOM      5  C   UNL     1      -4.980   1.499  -3.438  0.00  0.00    +0.020 C 
ATOM      6  C   UNL     1      -3.917   1.237  -4.527  0.00  0.00    +0.033 C 
ATOM      7  C   UNL     1      -4.387   2.028  -5.733  0.00  0.00    -0.045 A 
ATOM      8  C   UNL     1      -4.023   1.931  -7.066  0.00  0.00    +0.004 A 
ATOM      9  C   UNL     1      -4.593   2.767  -8.005  0.00  0.00    +0.000 A 
ATOM     10  C   UNL     1      -5.531   3.704  -7.615  0.00  0.00    +0.000 A 
ATOM     11  C   UNL     1      -5.897   3.803  -6.287  0.00  0.00    +0.004 A 
ATOM     12  C   UNL     1      -5.325   2.965  -5.343  0.00  0.00    -0.045 A 
ATOM     13  C   UNL     1      -5.550   2.874  -3.849  0.00  0.00    +0.033 C 
BRANCH   5  16
ATOM     14  C   UNL     1      -7.023   0.697  -2.417  0.00  0.00    -0.095 C 
ATOM     15  C   UNL     1      -6.663   0.408  -4.794  0.00  0.00    -0.095 C 
ATOM     16  N   UNL     1      -6.014   0.444  -3.466  0.00  0.00    +0.386 N 
ATOM     17  H   UNL     1      -5.569  -0.464  -3.289  0.00  0.00    -0.081 HD
ENDBRANCH   5  16
ENDBRANCH   3   5
BRANCH   1  18
ATOM     18  C   UNL     1      -3.583   0.507  -0.018  0.00  0.00    +0.181 C 
BRANCH  18  28
ATOM     19  C   UNL     1       1.239   3.456   0.039  0.00  0.00    +0.046 C 
ATOM     20  C   UNL     1       1.216   1.950  -0.024  0.00  0.00    -0.025 A 
ATOM     21  C   UNL     1       2.397   1.241  -0.070  0.00  0.00    +0.005 A 
ATOM     22  C   UNL     1       2.383  -0.145  -0.129  0.00  0.00    +0.002 A 
ATOM     23  C   UNL     1       1.201  -0.830  -0.141  0.00  0.00    +0.030 A 
ATOM     24  C   UNL     1      -0.009  -0.133  -0.095  0.00  0.00    +0.089 A 
ATOM     25  C   UNL     1       0.005   1.272  -0.035  0.00  0.00    +0.069 A 
ATOM     26  N   UNL     1      -1.318   1.664   0.005  0.00  0.00    -0.340 N 
ATOM     27  H   UNL     1      -1.656   2.604   0.057  0.00  0.00    +0.167 HD
ATOM     28  C   UNL     1      -2.076   0.536  -0.037  0.00  0.00    +0.126 A 
ATOM     29  N   UNL     1      -1.311  -0.515  -0.092  0.00  0.00    -0.231 NA
ENDBRANCH  18  28
ENDBRANCH   1  18
TORSDOF 4
