REMARK  Name = ZINC36607324
REMARK  17 active torsions:
REMARK  status: ('A' for Active; 'I' for Inactive)
REMARK    1  A    between atoms: C_1  and  C_2
REMARK    2  A    between atoms: C_2  and  C_3
REMARK    3  A    between atoms: C_3  and  C_5
REMARK    4  A    between atoms: C_3  and  C_11
REMARK    5  A    between atoms: N_13  and  C_14
REMARK    6  A    between atoms: N_13  and  C_20
REMARK    7  A    between atoms: C_20  and  C_22
REMARK    8  A    between atoms: C_20  and  C_31
REMARK    9  A    between atoms: C_25  and  N_28
REMARK   10  A    between atoms: N_33  and  C_34
REMARK   11  A    between atoms: C_34  and  C_35
REMARK   12  A    between atoms: C_34  and  C_36
REMARK   13  A    between atoms: C_34  and  C_37
REMARK   14  A    between atoms: C_37  and  C_38
REMARK   15  A    between atoms: C_38  and  C_39
REMARK   16  A    between atoms: C_38  and  C_40
REMARK   17  A    between atoms: C_38  and  C_41
REMARK                            x       y       z     vdW  Elec       q    Type
REMARK                         _______ _______ _______ _____ _____    ______ ____
ROOT
ATOM      1  C   UNL     1      -1.105  -6.108  -1.501  0.00  0.00    +0.197 C 
ENDROOT
BRANCH   1   2
ATOM      2  C   UNL     1      -2.274  -5.332  -0.952  0.00  0.00    -0.018 A 
ATOM      3  C   UNL     1      -2.146  -3.981  -0.691  0.00  0.00    +0.008 A 
ATOM      4  C   UNL     1      -3.219  -3.269  -0.187  0.00  0.00    +0.033 A 
ATOM      5  C   UNL     1      -4.420  -3.909   0.055  0.00  0.00    +0.126 A 
ATOM      6  C   UNL     1      -4.549  -5.260  -0.207  0.00  0.00    +0.033 A 
ATOM      7  C   UNL     1      -3.477  -5.970  -0.715  0.00  0.00    +0.008 A 
BRANCH   5   8
ATOM      8  N   UNL     1      -5.568  -3.147   0.595  0.00  0.00    +0.056 N 
ATOM      9  O   UNL     1      -5.456  -1.965   0.825  0.00  0.00    -0.126 OA
ATOM     10  O   UNL     1      -6.619  -3.706   0.806  0.00  0.00    -0.126 OA
ENDBRANCH   5   8
ENDBRANCH   1   2
BRANCH   1  11
ATOM     11  C   UNL     1      -0.140  -6.419  -0.386  0.00  0.00    +0.239 C 
ATOM     12  O   UNL     1       0.766  -5.652  -0.136  0.00  0.00    -0.273 OA
ATOM     13  N   UNL     1      -0.284  -7.549   0.334  0.00  0.00    -0.308 N 
ATOM     14  H   UNL     1      -1.008  -8.162   0.134  0.00  0.00    +0.149 HD
BRANCH  13  15
ATOM     15  C   UNL     1       0.654  -7.852   1.418  0.00  0.00    +0.030 C 
ATOM     16  C   UNL     1       2.043  -8.114   0.832  0.00  0.00    +0.031 C 
ATOM     17  C   UNL     1       0.722  -6.663   2.379  0.00  0.00    +0.031 C 
BRANCH  15  18
ATOM     18  C   UNL     1       0.176  -9.093   2.174  0.00  0.00    +0.031 C 
BRANCH  18  19
ATOM     19  C   UNL     1      -1.128  -8.773   2.908  0.00  0.00    -0.036 C 
ATOM     20  C   UNL     1      -2.050  -7.973   1.984  0.00  0.00    +0.010 C 
ATOM     21  C   UNL     1      -1.818 -10.076   3.313  0.00  0.00    +0.010 C 
ATOM     22  C   UNL     1      -0.820  -7.948   4.159  0.00  0.00    +0.010 C 
ENDBRANCH  18  19
ENDBRANCH  15  18
ENDBRANCH  13  15
ENDBRANCH   1  11
BRANCH   1  25
ATOM     23  C   UNL     1      -1.095  -4.918  -3.628  0.00  0.00    +0.228 C 
ATOM     24  O   UNL     1      -2.279  -5.159  -3.736  0.00  0.00    -0.275 OA
ATOM     25  N   UNL     1      -0.426  -5.309  -2.525  0.00  0.00    -0.255 N 
BRANCH  25  26
ATOM     26  C   UNL     1       0.916  -4.952  -2.358  0.00  0.00    +0.037 A 
ATOM     27  C   UNL     1       1.904  -5.928  -2.379  0.00  0.00    +0.023 A 
ATOM     28  C   UNL     1       3.228  -5.573  -2.213  0.00  0.00    +0.002 A 
ATOM     29  C   UNL     1       3.571  -4.246  -2.028  0.00  0.00    +0.000 A 
ATOM     30  C   UNL     1       2.590  -3.271  -2.006  0.00  0.00    +0.002 A 
ATOM     31  C   UNL     1       1.265  -3.620  -2.177  0.00  0.00    +0.023 A 
ENDBRANCH  25  26
BRANCH  23  32
ATOM     32  C   UNL     1      -0.373  -4.181  -4.726  0.00  0.00    +0.105 C 
BRANCH  32  33
ATOM     33  C   UNL     1      -1.378  -3.584  -5.676  0.00  0.00    -0.036 A 
ATOM     34  C   UNL     1      -2.268  -4.403  -6.346  0.00  0.00    +0.004 A 
ATOM     35  C   UNL     1      -3.191  -3.854  -7.218  0.00  0.00    +0.000 A 
ATOM     36  C   UNL     1      -3.223  -2.487  -7.419  0.00  0.00    +0.000 A 
ATOM     37  C   UNL     1      -2.334  -1.668  -6.748  0.00  0.00    +0.000 A 
ATOM     38  C   UNL     1      -1.415  -2.216  -5.874  0.00  0.00    +0.004 A 
ENDBRANCH  32  33
BRANCH  32  40
ATOM     39  C   UNL     1       1.500  -4.370  -6.370  0.00  0.00    +0.005 C 
ATOM     40  C   UNL     1       0.530  -5.156  -5.486  0.00  0.00    +0.014 C 
ENDBRANCH  32  40
ENDBRANCH  23  32
ENDBRANCH   1  25
TORSDOF 11
