REMARK  Name = ZINC10042254
REMARK  12 active torsions:
REMARK  status: ('A' for Active; 'I' for Inactive)
REMARK    1  A    between atoms: C_1  and  C_2
REMARK    2  A    between atoms: C_2  and  C_3
REMARK    3  A    between atoms: C_2  and  C_4
REMARK    4  A    between atoms: C_4  and  C_6
REMARK    5  A    between atoms: C_4  and  N_26
REMARK    6  A    between atoms: N_8  and  N_9
REMARK    7  A    between atoms: C_10  and  C_11
REMARK    8  A    between atoms: C_14  and  C_16
REMARK    9  A    between atoms: C_21  and  C_22
REMARK   10  A    between atoms: C_22  and  O_24
REMARK   11  A    between atoms: O_24  and  C_25
REMARK   12  A    between atoms: C_27  and  C_29
REMARK                            x       y       z     vdW  Elec       q    Type
REMARK                         _______ _______ _______ _____ _____    ______ ____
ROOT
ATOM      1  C   UNL     1       0.434   1.157  -1.628  0.00  0.00    +0.253 C 
ATOM      2  O   UNL     1       0.986   0.076  -1.632  0.00  0.00    -0.272 OA
ATOM      3  N   UNL     1      -0.904   1.229  -1.482  0.00  0.00    -0.205 N 
ATOM      4  H   UNL     1      -1.353   2.087  -1.543  0.00  0.00    +0.177 HD
ENDROOT
BRANCH   3   5
ATOM      5  N   UNL     1      -1.647   0.065  -1.242  0.00  0.00    -0.185 NA
ATOM      6  C   UNL     1      -2.947   0.116  -1.218  0.00  0.00    +0.176 C 
BRANCH   6   7
ATOM      7  C   UNL     1      -3.639   1.343  -1.619  0.00  0.00    +0.148 A 
ATOM      8  C   UNL     1      -5.004   1.502  -1.731  0.00  0.00    +0.051 A 
ATOM      9  C   UNL     1      -5.226   2.823  -2.135  0.00  0.00    +0.050 A 
ATOM     10  C   UNL     1      -4.001   3.414  -2.264  0.00  0.00    +0.137 A 
ATOM     11  O   UNL     1      -3.053   2.510  -1.949  0.00  0.00    -0.454 OA
BRANCH  10  12
ATOM     12  C   UNL     1      -3.758   4.806  -2.677  0.00  0.00    +0.031 A 
ATOM     13  C   UNL     1      -4.247   5.272  -3.900  0.00  0.00    +0.012 A 
ATOM     14  C   UNL     1      -4.016   6.576  -4.281  0.00  0.00    +0.001 A 
ATOM     15  C   UNL     1      -3.301   7.434  -3.460  0.00  0.00    +0.001 A 
ATOM     16  C   UNL     1      -2.809   6.996  -2.249  0.00  0.00    +0.016 A 
ATOM     17  C   UNL     1      -3.035   5.680  -1.839  0.00  0.00    +0.070 A 
BRANCH  17  18
ATOM     18  C   UNL     1      -2.518   5.208  -0.543  0.00  0.00    +0.340 C 
ATOM     19  O   UNL     1      -2.770   4.082  -0.162  0.00  0.00    -0.245 OA
BRANCH  18  20
ATOM     20  O   UNL     1      -1.765   6.024   0.220  0.00  0.00    -0.464 OA
ATOM     21  C   UNL     1      -1.238   5.472   1.455  0.00  0.00    +0.280 C 
ENDBRANCH  18  20
ENDBRANCH  17  18
ENDBRANCH  10  12
ENDBRANCH   6   7
ENDBRANCH   3   5
BRANCH   1  22
ATOM     22  C   UNL     1       1.243   2.417  -1.792  0.00  0.00    +0.163 C 
BRANCH  22  23
ATOM     23  N   UNL     1       2.561   2.084  -2.339  0.00  0.00    -0.300 N 
ATOM     24  C   UNL     1       3.256   3.008  -3.031  0.00  0.00    +0.245 C 
ATOM     25  O   UNL     1       2.791   4.117  -3.202  0.00  0.00    -0.270 OA
ATOM     26  H   UNL     1       2.932   1.198  -2.203  0.00  0.00    +0.150 HD
BRANCH  24  27
ATOM     27  C   UNL     1       4.586   2.671  -3.582  0.00  0.00    +0.038 A 
ATOM     28  C   UNL     1       5.126   1.399  -3.383  0.00  0.00    +0.014 A 
ATOM     29  C   UNL     1       6.364   1.089  -3.904  0.00  0.00    +0.022 A 
ATOM     30  C   UNL     1       7.078   2.040  -4.614  0.00  0.00    +0.059 A 
ATOM     31  C   UNL     1       6.550   3.306  -4.811  0.00  0.00    +0.060 A 
ATOM     32  C   UNL     1       5.309   3.626  -4.299  0.00  0.00    +0.034 A 
ATOM     33 CL   UNL     1       7.451   4.491  -5.704  0.00  0.00    -0.082 Cl
ATOM     34 CL   UNL     1       8.640   1.644  -5.260  0.00  0.00    -0.082 Cl
ENDBRANCH  24  27
ENDBRANCH  22  23
BRANCH  22  36
ATOM     35  C   UNL     1       2.225   2.188   0.493  0.00  0.00    +0.009 C 
ATOM     36  C   UNL     1       1.412   3.096  -0.432  0.00  0.00    +0.012 C 
ATOM     37  C   UNL     1       2.144   4.427  -0.613  0.00  0.00    +0.009 C 
ENDBRANCH  22  36
ENDBRANCH   1  22
TORSDOF 9
