REMARK  Name = ZINC16647745
REMARK  9 active torsions:
REMARK  status: ('A' for Active; 'I' for Inactive)
REMARK    1  A    between atoms: C_1  and  C_2
REMARK    2  A    between atoms: C_2  and  C_3
REMARK    3  A    between atoms: C_3  and  C_5
REMARK    4  A    between atoms: C_3  and  C_6
REMARK    5  A    between atoms: C_6  and  N_7
REMARK    6  A    between atoms: C_8  and  C_10
REMARK    7  A    between atoms: C_10  and  N_11
REMARK    8  A    between atoms: N_13  and  C_32
REMARK    9  A    between atoms: N_24  and  C_25
REMARK                            x       y       z     vdW  Elec       q    Type
REMARK                         _______ _______ _______ _____ _____    ______ ____
ROOT
ATOM      1  N   UNL     1       0.038   3.291  -1.614  0.00  0.00    -0.275 N 
ATOM      2  C   UNL     1      -0.659   2.006  -1.750  0.00  0.00    +0.217 C 
ATOM      3  N   UNL     1      -0.102   1.121  -0.700  0.00  0.00    -0.300 N 
ATOM      4  C   UNL     1       1.254   1.668  -0.486  0.00  0.00    +0.115 C 
ATOM      5  C   UNL     1       1.163   3.120  -0.889  0.00  0.00    +0.241 C 
ATOM      6  O   UNL     1       1.965   3.986  -0.608  0.00  0.00    -0.273 OA
ATOM      7  C   UNL     1       2.259   0.933  -1.370  0.00  0.00    +0.054 C 
ATOM      8  C   UNL     1       3.651   1.543  -1.173  0.00  0.00    +0.112 C 
ATOM      9  N   UNL     1       3.971   1.536   0.261  0.00  0.00    -0.285 N 
ATOM     10  C   UNL     1       3.029   2.160   1.199  0.00  0.00    +0.112 C 
ATOM     11  C   UNL     1       1.641   1.546   0.985  0.00  0.00    +0.054 C 
ATOM     12  C   UNL     1       5.109   0.968   0.707  0.00  0.00    +0.307 C 
ATOM     13  O   UNL     1       5.328   0.902   1.901  0.00  0.00    -0.252 OA
ATOM     14  N   UNL     1       6.003   0.471  -0.170  0.00  0.00    -0.267 N 
ATOM     15  H   UNL     1       5.839   0.543  -1.123  0.00  0.00    +0.156 HD
ENDROOT
BRANCH  14  16
ATOM     16  C   UNL     1       7.170  -0.149   0.295  0.00  0.00    +0.070 A 
ATOM     17  C   UNL     1       7.626   0.101   1.582  0.00  0.00    +0.026 A 
ATOM     18  C   UNL     1       8.774  -0.516   2.039  0.00  0.00    +0.002 A 
ATOM     19  C   UNL     1       9.476  -1.374   1.214  0.00  0.00    +0.003 A 
ATOM     20  C   UNL     1       9.030  -1.623  -0.071  0.00  0.00    +0.040 A 
ATOM     21  C   UNL     1       7.878  -1.013  -0.534  0.00  0.00    +0.145 A 
ATOM     22  F   UNL     1       7.442  -1.255  -1.790  0.00  0.00    -0.204 F 
ENDBRANCH  14  16
BRANCH   3  23
ATOM     23  C   UNL     1      -0.044  -0.203  -1.141  0.00  0.00    +0.032 A 
ATOM     24  C   UNL     1      -0.594  -0.553  -2.367  0.00  0.00    +0.023 A 
ATOM     25  C   UNL     1      -0.530  -1.863  -2.802  0.00  0.00    +0.002 A 
ATOM     26  C   UNL     1       0.070  -2.827  -2.013  0.00  0.00    +0.000 A 
ATOM     27  C   UNL     1       0.614  -2.482  -0.789  0.00  0.00    +0.002 A 
ATOM     28  C   UNL     1       0.558  -1.174  -0.350  0.00  0.00    +0.023 A 
ENDBRANCH   3  23
BRANCH   1  29
ATOM     29  C   UNL     1      -0.418   4.563  -2.178  0.00  0.00    +0.205 C 
BRANCH  29  31
ATOM     30  N   UNL     1      -0.134   5.837  -4.280  0.00  0.00    -0.314 N 
ATOM     31  C   UNL     1       0.153   4.732  -3.563  0.00  0.00    +0.230 C 
ATOM     32  O   UNL     1       0.870   3.874  -4.032  0.00  0.00    -0.274 OA
ATOM     33  H   UNL     1      -0.707   6.523  -3.905  0.00  0.00    +0.149 HD
BRANCH  30  34
ATOM     34  C   UNL     1       0.421   6.000  -5.626  0.00  0.00    +0.107 C 
BRANCH  34  35
ATOM     35  C   UNL     1      -0.055   7.329  -6.216  0.00  0.00    +0.003 C 
ATOM     36  C   UNL     1      -1.573   7.288  -6.406  0.00  0.00    +0.009 C 
BRANCH  35  38
ATOM     37  C   UNL     1       0.243   8.943  -8.100  0.00  0.00    +0.004 C 
ATOM     38  C   UNL     1       0.622   7.559  -7.568  0.00  0.00    +0.001 C 
ENDBRANCH  35  38
ENDBRANCH  34  35
ENDBRANCH  30  34
ENDBRANCH  29  31
ENDBRANCH   1  29
TORSDOF 7
