REMARK  Name = ZINC43474621
REMARK  4 active torsions:
REMARK  status: ('A' for Active; 'I' for Inactive)
REMARK    1  A    between atoms: C_3  and  N_11
REMARK    2  A    between atoms: C_6  and  N_7
REMARK    3  A    between atoms: N_11  and  S_12
REMARK    4  A    between atoms: S_12  and  C_15
REMARK                            x       y       z     vdW  Elec       q    Type
REMARK                         _______ _______ _______ _____ _____    ______ ____
ROOT
ATOM      1  C   UNL     1      -0.017   1.378   0.010  0.00  0.00    +0.035 A 
ATOM      2  C   UNL     1       1.169   2.088   0.002  0.00  0.00    +0.032 A 
ATOM      3  C   UNL     1       2.381   1.411  -0.013  0.00  0.00    +0.110 A 
ATOM      4  C   UNL     1       2.398   0.020  -0.021  0.00  0.00    +0.150 A 
ATOM      5  C   UNL     1       1.207  -0.683  -0.013  0.00  0.00    +0.073 A 
ATOM      6  C   UNL     1       0.002  -0.004   0.002  0.00  0.00    +0.129 A 
ATOM      7  F   UNL     1       3.575  -0.642  -0.036  0.00  0.00    -0.203 F 
ENDROOT
BRANCH   6   8
ATOM      8  N   UNL     1      -1.270  -0.760   0.011  0.00  0.00    +0.057 N 
ATOM      9  O   UNL     1      -2.325  -0.168   0.024  0.00  0.00    -0.126 OA
ATOM     10  O   UNL     1      -1.256  -1.969   0.004  0.00  0.00    -0.126 OA
ENDBRANCH   6   8
BRANCH   3  11
ATOM     11  N   UNL     1       3.583   2.127  -0.021  0.00  0.00    -0.094 NA
BRANCH  11  12
ATOM     12  S   UNL     1       5.028   1.318  -0.039  0.00  0.00    +0.098 S 
ATOM     13  O   UNL     1       5.125   0.632   1.202  0.00  0.00    -0.148 OA
ATOM     14  O   UNL     1       5.101   0.645  -1.289  0.00  0.00    -0.148 OA
BRANCH  12  15
ATOM     15  C   UNL     1       6.304   2.532  -0.046  0.00  0.00    +0.149 A 
ATOM     16  C   UNL     1       6.937   3.111   1.004  0.00  0.00    +0.038 A 
ATOM     17  C   UNL     1       7.920   4.051   0.759  0.00  0.00    +0.025 A 
ATOM     18  C   UNL     1       8.223   4.366  -0.525  0.00  0.00    +0.057 A 
ATOM     19  S   UNL     1       7.106   3.313  -1.437  0.00  0.00    -0.061 S 
ATOM     20 BR   UNL     1       9.501   5.597  -1.180  0.00  0.00    -0.043 Br
ENDBRANCH  12  15
ENDBRANCH  11  12
ENDBRANCH   3  11
TORSDOF 4
