REMARK  Name = ZINC05036937
REMARK  4 active torsions:
REMARK  status: ('A' for Active; 'I' for Inactive)
REMARK    1  A    between atoms: C_4  and  C_20
REMARK    2  A    between atoms: C_5  and  C_7
REMARK    3  A    between atoms: C_7  and  N_8
REMARK    4  A    between atoms: C_10  and  C_13
REMARK                            x       y       z     vdW  Elec       q    Type
REMARK                         _______ _______ _______ _____ _____    ______ ____
ROOT
ATOM      1  N   UNL     1      -1.706   2.465  -1.353  0.00  0.00    -0.158 N 
ATOM      2  N   UNL     1      -2.408   1.730  -2.145  0.00  0.00    -0.130 NA
ATOM      3  C   UNL     1      -2.536   2.376  -3.287  0.00  0.00    +0.205 A 
ATOM      4  N   UNL     1      -1.879   3.536  -3.147  0.00  0.00    -0.108 NA
ATOM      5  N   UNL     1      -1.389   3.558  -1.954  0.00  0.00    -0.045 NA
ENDROOT
BRANCH   3   6
ATOM      6  C   UNL     1      -3.266   1.910  -4.492  0.00  0.00    +0.023 A 
ATOM      7  C   UNL     1      -3.900   0.669  -4.489  0.00  0.00    +0.014 A 
ATOM      8  C   UNL     1      -4.582   0.242  -5.610  0.00  0.00    +0.039 A 
ATOM      9  C   UNL     1      -4.627   1.040  -6.741  0.00  0.00    +0.123 A 
ATOM     10  C   UNL     1      -3.994   2.272  -6.751  0.00  0.00    +0.039 A 
ATOM     11  C   UNL     1      -3.314   2.710  -5.632  0.00  0.00    +0.014 A 
ATOM     12  F   UNL     1      -5.292   0.616  -7.838  0.00  0.00    -0.205 F 
ENDBRANCH   3   6
BRANCH   1  13
ATOM     13  C   UNL     1      -1.332   2.114   0.020  0.00  0.00    +0.204 C 
BRANCH  13  18
ATOM     14  C   UNL     1       1.208  -0.679  -0.013  0.00  0.00    +0.000 A 
ATOM     15  C   UNL     1       2.396   0.029  -0.022  0.00  0.00    +0.001 A 
ATOM     16  C   UNL     1       2.377   1.411  -0.015  0.00  0.00    +0.013 A 
ATOM     17  C   UNL     1       1.171   2.086   0.002  0.00  0.00    +0.060 A 
ATOM     18  C   UNL     1      -0.017   1.378   0.010  0.00  0.00    -0.013 A 
ATOM     19  C   UNL     1       0.002  -0.004   0.002  0.00  0.00    +0.006 A 
BRANCH  17  20
ATOM     20  C   UNL     1       1.150   3.592   0.010  0.00  0.00    +0.418 C 
ATOM     21  F   UNL     1       2.463   4.077   0.001  0.00  0.00    -0.166 F 
ATOM     22  F   UNL     1       0.474   4.056  -1.123  0.00  0.00    -0.166 F 
ATOM     23  F   UNL     1       0.495   4.044   1.161  0.00  0.00    -0.166 F 
ENDBRANCH  17  20
ENDBRANCH  13  18
ENDBRANCH   1  13
TORSDOF 4
