REMARK  Name = ZINC28132831
REMARK  12 active torsions:
REMARK  status: ('A' for Active; 'I' for Inactive)
REMARK    1  A    between atoms: C_1  and  C_2
REMARK    2  A    between atoms: C_2  and  C_3
REMARK    3  A    between atoms: C_2  and  C_4
REMARK    4  A    between atoms: C_4  and  C_5
REMARK    5  A    between atoms: N_9  and  C_24
REMARK    6  A    between atoms: N_14  and  C_15
REMARK    7  A    between atoms: C_15  and  C_16
REMARK    8  A    between atoms: C_17  and  C_18
REMARK    9  A    between atoms: C_24  and  C_26
REMARK   10  A    between atoms: C_24  and  C_37
REMARK   11  A    between atoms: C_26  and  C_27
REMARK   12  A    between atoms: N_39  and  C_40
REMARK                            x       y       z     vdW  Elec       q    Type
REMARK                         _______ _______ _______ _____ _____    ______ ____
ROOT
ATOM      1  C   UNL     1       2.998   0.264   1.908  0.00  0.00    +0.163 C 
ATOM      2  C   UNL     1       2.527   1.443   1.126  0.00  0.00    +0.237 C 
ATOM      3  O   UNL     1       3.395   2.234   0.822  0.00  0.00    -0.274 OA
ATOM      4  N   UNL     1       1.367   1.748   0.731  0.00  0.00    -0.288 N 
ATOM      5  C   UNL     1      -0.022   1.423   0.997  0.00  0.00    +0.118 C 
ATOM      6  C   UNL     1      -0.203  -0.101   0.943  0.00  0.00    +0.115 C 
ATOM      7  C   UNL     1       0.739  -0.740   1.912  0.00  0.00    +0.218 C 
ATOM      8  O   UNL     1       0.151  -1.534   2.614  0.00  0.00    -0.276 OA
ATOM      9  N   UNL     1       1.963  -0.699   2.218  0.00  0.00    -0.286 N 
ENDROOT
BRANCH   1  10
ATOM     10  C   UNL     1       4.092  -0.442   1.104  0.00  0.00    +0.035 C 
BRANCH  10  12
ATOM     11  C   UNL     1       5.860   0.846   2.312  0.00  0.00    +0.007 C 
ATOM     12  C   UNL     1       5.288   0.498   0.936  0.00  0.00    -0.015 C 
ATOM     13  C   UNL     1       6.364  -0.192   0.096  0.00  0.00    +0.007 C 
ENDBRANCH  10  12
ENDBRANCH   1  10
BRANCH   9  14
ATOM     14  C   UNL     1       2.418  -1.828   3.033  0.00  0.00    +0.136 C 
BRANCH  14  15
ATOM     15  C   UNL     1       2.739  -2.997   2.136  0.00  0.00    -0.007 C 
ATOM     16  C   UNL     1       3.929  -3.578   2.206  0.00  0.00    +0.005 C 
BRANCH  16  17
ATOM     17  C   UNL     1       4.285  -4.649   1.252  0.00  0.00    -0.022 A 
ATOM     18  C   UNL     1       3.379  -5.068   0.271  0.00  0.00    +0.027 A 
ATOM     19  C   UNL     1       3.755  -6.068  -0.602  0.00  0.00    +0.111 A 
ATOM     20  N   UNL     1       4.944  -6.633  -0.514  0.00  0.00    -0.263 NA
ATOM     21  C   UNL     1       5.825  -6.271   0.398  0.00  0.00    +0.111 A 
ATOM     22  C   UNL     1       5.535  -5.276   1.308  0.00  0.00    +0.027 A 
ENDBRANCH  16  17
ENDBRANCH  14  15
ENDBRANCH   9  14
BRANCH   4  23
ATOM     23  C   UNL     1       1.450   2.748  -0.337  0.00  0.00    +0.166 C 
BRANCH  23  24
ATOM     24  C   UNL     1       2.409   2.272  -1.397  0.00  0.00    +0.234 C 
ATOM     25  O   UNL     1       2.968   1.203  -1.274  0.00  0.00    -0.274 OA
ATOM     26  N   UNL     1       2.645   3.034  -2.483  0.00  0.00    -0.317 N 
ATOM     27  C   UNL     1       3.578   2.571  -3.514  0.00  0.00    +0.128 C 
ATOM     28  H   UNL     1       2.138   4.004  -2.596  0.00  0.00    +0.148 HD
ENDBRANCH  23  24
BRANCH  23  29
ATOM     29  C   UNL     1       1.947   4.073   0.243  0.00  0.00    +0.067 C 
BRANCH  29  30
ATOM     30  C   UNL     1       0.995   4.542   1.313  0.00  0.00    -0.045 A 
ATOM     31  C   UNL     1       1.202   4.150   2.635  0.00  0.00    +0.004 A 
ATOM     32  C   UNL     1       0.361   4.557   3.625  0.00  0.00    +0.009 A 
ATOM     33  C   UNL     1      -0.732   5.383   3.314  0.00  0.00    -0.018 A 
ATOM     34  C   UNL     1      -1.621   5.823   4.310  0.00  0.00    +0.008 A 
ATOM     35  C   UNL     1      -2.669   6.623   3.971  0.00  0.00    +0.001 A 
ATOM     36  C   UNL     1      -2.876   7.014   2.649  0.00  0.00    +0.001 A 
ATOM     37  C   UNL     1      -2.035   6.608   1.659  0.00  0.00    +0.008 A 
ATOM     38  C   UNL     1      -0.942   5.781   1.970  0.00  0.00    -0.018 A 
ATOM     39  C   UNL     1      -0.049   5.346   0.976  0.00  0.00    +0.012 A 
ENDBRANCH  29  30
ENDBRANCH  23  29
ENDBRANCH   4  23
TORSDOF 9
