REMARK  Name = ZINC09505363
REMARK  9 active torsions:
REMARK  status: ('A' for Active; 'I' for Inactive)
REMARK    1  A    between atoms: C_1  and  C_2
REMARK    2  A    between atoms: C_5  and  C_8
REMARK    3  A    between atoms: C_8  and  S_9
REMARK    4  A    between atoms: S_9  and  C_10
REMARK    5  A    between atoms: C_10  and  C_11
REMARK    6  A    between atoms: C_18  and  C_23
REMARK    7  A    between atoms: N_28  and  C_31
REMARK    8  A    between atoms: C_34  and  O_37
REMARK    9  A    between atoms: O_37  and  C_38
REMARK                            x       y       z     vdW  Elec       q    Type
REMARK                         _______ _______ _______ _____ _____    ______ ____
ROOT
ATOM      1  C   UNL     1       2.751  -7.173  -0.002  0.00  0.00    +0.167 C 
ATOM      2  C   UNL     1       2.441  -8.641  -0.152  0.00  0.00    +0.238 C 
ATOM      3  O   UNL     1       2.272  -9.109  -1.258  0.00  0.00    -0.273 OA
ATOM      4  N   UNL     1       2.349  -9.437   0.929  0.00  0.00    -0.282 N 
ATOM      5  C   UNL     1       2.677  -8.956   2.203  0.00  0.00    +0.055 A 
ATOM      6  C   UNL     1       2.391  -9.703   3.329  0.00  0.00    +0.038 A 
ATOM      7  C   UNL     1       2.716  -9.205   4.594  0.00  0.00    +0.039 A 
ATOM      8  C   UNL     1       3.327  -7.954   4.718  0.00  0.00    +0.015 A 
ATOM      9  C   UNL     1       3.613  -7.212   3.592  0.00  0.00    +0.025 A 
ATOM     10  C   UNL     1       3.296  -7.708   2.336  0.00  0.00    +0.049 A 
ATOM     11  N   UNL     1       3.600  -6.979   1.183  0.00  0.00    -0.331 N 
ATOM     12  H   UNL     1       2.053 -10.354   0.825  0.00  0.00    +0.155 HD
ATOM     13  H   UNL     1       4.349  -6.364   1.163  0.00  0.00    +0.147 HD
ENDROOT
BRANCH   7  14
ATOM     14  C   UNL     1       2.413 -10.000   5.800  0.00  0.00    +0.247 C 
ATOM     15  O   UNL     1       2.108  -9.441   6.836  0.00  0.00    -0.270 OA
ATOM     16  N   UNL     1       2.475 -11.345   5.753  0.00  0.00    -0.295 N 
ATOM     17  C   UNL     1       2.962 -12.030   4.547  0.00  0.00    +0.127 C 
ATOM     18  C   UNL     1       4.120 -12.955   4.943  0.00  0.00    +0.124 C 
ATOM     19  N   UNL     1       3.701 -13.763   6.097  0.00  0.00    -0.327 N 
ATOM     20  C   UNL     1       3.214 -13.079   7.302  0.00  0.00    +0.124 C 
ATOM     21  C   UNL     1       2.061 -12.154   6.908  0.00  0.00    +0.127 C 
BRANCH  19  22
ATOM     22  C   UNL     1       3.765 -15.161   6.048  0.00  0.00    +0.030 A 
ATOM     23  C   UNL     1       3.249 -15.916   7.093  0.00  0.00    +0.027 A 
ATOM     24  C   UNL     1       3.313 -17.295   7.043  0.00  0.00    +0.047 A 
ATOM     25  C   UNL     1       3.891 -17.925   5.951  0.00  0.00    +0.120 A 
ATOM     26  C   UNL     1       4.407 -17.171   4.908  0.00  0.00    +0.047 A 
ATOM     27  C   UNL     1       4.340 -15.792   4.953  0.00  0.00    +0.027 A 
BRANCH  25  28
ATOM     28  O   UNL     1       3.953 -19.283   5.904  0.00  0.00    -0.495 OA
ATOM     29  C   UNL     1       4.562 -19.864   4.749  0.00  0.00    +0.277 C 
ENDBRANCH  25  28
ENDBRANCH  19  22
ENDBRANCH   7  14
BRANCH   1  30
ATOM     30  C   UNL     1       1.448  -6.389   0.168  0.00  0.00    +0.101 C 
BRANCH  30  31
ATOM     31  S   UNL     1       1.812  -4.612   0.205  0.00  0.00    -0.154 S 
BRANCH  31  32
ATOM     32  C   UNL     1       0.186  -3.835   0.409  0.00  0.00    +0.104 C 
BRANCH  32  37
ATOM     33  C   UNL     1       0.799   1.908   0.588  0.00  0.00    +0.044 C 
ATOM     34  C   UNL     1       0.639   0.410   0.541  0.00  0.00    -0.050 A 
ATOM     35  C   UNL     1       0.442  -0.227  -0.670  0.00  0.00    +0.003 A 
ATOM     36  C   UNL     1       0.296  -1.601  -0.713  0.00  0.00    +0.005 A 
ATOM     37  C   UNL     1       0.347  -2.338   0.455  0.00  0.00    -0.038 A 
ATOM     38  C   UNL     1       0.545  -1.701   1.666  0.00  0.00    +0.005 A 
ATOM     39  C   UNL     1       0.696  -0.328   1.709  0.00  0.00    +0.003 A 
ENDBRANCH  32  37
ENDBRANCH  31  32
ENDBRANCH  30  31
ENDBRANCH   1  30
TORSDOF 7
