REMARK  Name = ZINC15531823
REMARK  9 active torsions:
REMARK  status: ('A' for Active; 'I' for Inactive)
REMARK    1  A    between atoms: C_1  and  C_2
REMARK    2  A    between atoms: C_6  and  N_9
REMARK    3  A    between atoms: C_7  and  C_8
REMARK    4  A    between atoms: N_9  and  C_10
REMARK    5  A    between atoms: C_10  and  N_12
REMARK    6  A    between atoms: N_12  and  N_13
REMARK    7  A    between atoms: C_14  and  C_16
REMARK    8  A    between atoms: C_20  and  O_22
REMARK    9  A    between atoms: O_22  and  C_23
REMARK                            x       y       z     vdW  Elec       q    Type
REMARK                         _______ _______ _______ _____ _____    ______ ____
ROOT
ATOM      1  N   UNL     1       1.859  -4.201   3.999  0.00  0.00    -0.246 N 
ATOM      2  H   UNL     1       1.668  -5.085   4.350  0.00  0.00    +0.172 HD
ENDROOT
BRANCH   1   3
ATOM      3  N   UNL     1       2.811  -3.388   4.628  0.00  0.00    -0.231 N 
ATOM      4  C   UNL     1       3.463  -3.835   5.720  0.00  0.00    +0.260 C 
ATOM      5  O   UNL     1       3.225  -4.942   6.159  0.00  0.00    -0.269 OA
ATOM      6  H   UNL     1       3.002  -2.504   4.277  0.00  0.00    +0.173 HD
BRANCH   4   7
ATOM      7  C   UNL     1       4.468  -2.977   6.383  0.00  0.00    +0.042 A 
ATOM      8  C   UNL     1       4.740  -1.702   5.883  0.00  0.00    +0.013 A 
ATOM      9  C   UNL     1       5.679  -0.904   6.504  0.00  0.00    +0.004 A 
ATOM     10  C   UNL     1       6.353  -1.363   7.621  0.00  0.00    +0.046 A 
ATOM     11  C   UNL     1       6.089  -2.630   8.125  0.00  0.00    +0.128 A 
ATOM     12  C   UNL     1       5.144  -3.436   7.513  0.00  0.00    +0.059 A 
BRANCH  11  13
ATOM     13  O   UNL     1       6.754  -3.076   9.223  0.00  0.00    -0.434 OA
BRANCH  13  14
ATOM     14  C   UNL     1       7.710  -2.189   9.807  0.00  0.00    +0.541 C 
ATOM     15  F   UNL     1       8.700  -1.884   8.867  0.00  0.00    -0.166 F 
ATOM     16  F   UNL     1       7.070  -1.011  10.208  0.00  0.00    -0.166 F 
ENDBRANCH  13  14
ENDBRANCH  11  13
ENDBRANCH   4   7
ENDBRANCH   1   3
BRANCH   1  17
ATOM     17  C   UNL     1       1.207  -3.754   2.907  0.00  0.00    +0.147 C 
ATOM     18  S   UNL     1       0.043  -4.748   2.140  0.00  0.00    -0.017 S 
BRANCH  17  19
ATOM     19  N   UNL     1       1.471  -2.526   2.420  0.00  0.00    -0.322 N 
ATOM     20  H   UNL     1       2.131  -1.963   2.855  0.00  0.00    +0.148 HD
BRANCH  19  26
ATOM     21  C   UNL     1      -0.019   1.526   0.010  0.00  0.00    +0.008 C 
ATOM     22  C   UNL     1       0.002  -0.004   0.002  0.00  0.00    -0.009 C 
ATOM     23  C   UNL     1       0.718  -0.497  -1.257  0.00  0.00    +0.003 C 
ATOM     24  C   UNL     1       0.739  -2.027  -1.265  0.00  0.00    +0.002 C 
ATOM     25  C   UNL     1       1.479  -2.534  -0.026  0.00  0.00    +0.022 C 
ATOM     26  C   UNL     1       0.763  -2.041   1.233  0.00  0.00    +0.075 C 
ATOM     27  C   UNL     1       0.742  -0.511   1.242  0.00  0.00    +0.009 C 
ATOM     28  C   UNL     1       0.026  -0.018   2.500  0.00  0.00    +0.009 C 
ENDBRANCH  19  26
ENDBRANCH  17  19
ENDBRANCH   1  17
TORSDOF 7
