REMARK  Name = ZINC32642402
REMARK  14 active torsions:
REMARK  status: ('A' for Active; 'I' for Inactive)
REMARK    1  A    between atoms: C_1  and  C_2
REMARK    2  A    between atoms: C_2  and  N_3
REMARK    3  A    between atoms: N_3  and  C_4
REMARK    4  A    between atoms: N_3  and  C_6
REMARK    5  A    between atoms: C_4  and  C_5
REMARK    6  A    between atoms: C_6  and  C_7
REMARK    7  A    between atoms: C_7  and  C_8
REMARK    8  A    between atoms: C_8  and  C_9
REMARK    9  A    between atoms: C_9  and  C_11
REMARK   10  A    between atoms: C_9  and  N_12
REMARK   11  A    between atoms: C_13  and  C_15
REMARK   12  A    between atoms: N_25  and  S_26
REMARK   13  A    between atoms: S_26  and  C_29
REMARK   14  A    between atoms: C_32  and  C_35
REMARK                            x       y       z     vdW  Elec       q    Type
REMARK                         _______ _______ _______ _____ _____    ______ ____
ROOT
ATOM      1  C   UNL     1      -1.732   1.013   1.971  0.00  0.00    +0.170 C 
ATOM      2  C   UNL     1      -3.111   1.661   2.084  0.00  0.00    +0.065 C 
ATOM      3  C   UNL     1      -2.999   3.078   2.580  0.00  0.00    -0.041 A 
ATOM      4  C   UNL     1      -4.136   3.660   3.129  0.00  0.00    +0.004 A 
ATOM      5  C   UNL     1      -4.104   4.958   3.595  0.00  0.00    +0.000 A 
ATOM      6  C   UNL     1      -2.934   5.689   3.515  0.00  0.00    +0.000 A 
ATOM      7  C   UNL     1      -1.803   5.113   2.973  0.00  0.00    +0.005 A 
ATOM      8  C   UNL     1      -1.833   3.805   2.508  0.00  0.00    -0.028 A 
ATOM      9  C   UNL     1      -0.553   3.229   1.943  0.00  0.00    +0.145 C 
ATOM     10  N   UNL     1      -0.845   1.958   1.272  0.00  0.00    -0.160 NA
ENDROOT
BRANCH   1  12
ATOM     11  N   UNL     1      -1.209  -1.379   1.626  0.00  0.00    -0.311 N 
ATOM     12  C   UNL     1      -1.832  -0.269   1.185  0.00  0.00    +0.232 C 
ATOM     13  O   UNL     1      -2.473  -0.301   0.156  0.00  0.00    -0.274 OA
ATOM     14  H   UNL     1      -0.627  -1.350   2.559  0.00  0.00    +0.149 HD
BRANCH  11  15
ATOM     15  C   UNL     1      -1.306  -2.626   0.862  0.00  0.00    +0.070 C 
ATOM     16  C   UNL     1      -0.237  -2.638  -0.233  0.00  0.00    +0.028 C 
BRANCH  15  17
ATOM     17  C   UNL     1      -1.090  -3.816   1.799  0.00  0.00    +0.020 C 
BRANCH  17  18
ATOM     18  C   UNL     1      -2.229  -3.876   2.818  0.00  0.00    -0.017 C 
BRANCH  18  19
ATOM     19  C   UNL     1      -2.013  -5.067   3.755  0.00  0.00    -0.079 C 
BRANCH  19  20
ATOM     20  N   UNL     1      -3.106  -5.124   4.734  0.00  0.00    +0.379 N 
ATOM     21  H   UNL     1      -3.192  -4.133   5.204  0.00  0.00    -0.082 HD
BRANCH  20  23
ATOM     22  C   UNL     1      -4.320  -6.816   3.444  0.00  0.00    -0.017 C 
ATOM     23  C   UNL     1      -4.386  -5.425   4.077  0.00  0.00    -0.082 C 
ENDBRANCH  20  23
BRANCH  20  24
ATOM     24  C   UNL     1      -2.816  -6.102   5.791  0.00  0.00    -0.082 C 
ATOM     25  C   UNL     1      -3.758  -5.870   6.974  0.00  0.00    -0.017 C 
ENDBRANCH  20  24
ENDBRANCH  19  20
ENDBRANCH  18  19
ENDBRANCH  17  18
ENDBRANCH  15  17
ENDBRANCH  11  15
ENDBRANCH   1  12
BRANCH  10  26
ATOM     26  S   UNL     1      -0.197   1.597  -0.209  0.00  0.00    +0.062 S 
ATOM     27  O   UNL     1      -0.310   0.189  -0.369  0.00  0.00    -0.153 OA
ATOM     28  O   UNL     1       1.051   2.273  -0.282  0.00  0.00    -0.153 OA
BRANCH  26  29
ATOM     29  C   UNL     1      -1.239   2.329  -1.426  0.00  0.00    +0.106 A 
ATOM     30  C   UNL     1      -2.298   1.612  -1.950  0.00  0.00    +0.029 A 
ATOM     31  C   UNL     1      -3.119   2.188  -2.902  0.00  0.00    +0.014 A 
ATOM     32  C   UNL     1      -2.874   3.477  -3.337  0.00  0.00    +0.055 A 
ATOM     33  C   UNL     1      -1.811   4.191  -2.817  0.00  0.00    +0.014 A 
ATOM     34  C   UNL     1      -0.993   3.617  -1.862  0.00  0.00    +0.029 A 
BRANCH  32  35
ATOM     35  C   UNL     1      -3.764   4.102  -4.380  0.00  0.00    +0.417 C 
ATOM     36  F   UNL     1      -3.258   3.825  -5.654  0.00  0.00    -0.166 F 
ATOM     37  F   UNL     1      -5.056   3.575  -4.266  0.00  0.00    -0.166 F 
ATOM     38  F   UNL     1      -3.807   5.487  -4.186  0.00  0.00    -0.166 F 
ENDBRANCH  32  35
ENDBRANCH  26  29
ENDBRANCH  10  26
TORSDOF 11
