REMARK  Name = ZINC00891876
REMARK  6 active torsions:
REMARK  status: ('A' for Active; 'I' for Inactive)
REMARK    1  A    between atoms: C_4  and  S_7
REMARK    2  A    between atoms: S_7  and  N_10
REMARK    3  A    between atoms: N_10  and  C_11
REMARK    4  A    between atoms: C_23  and  N_48
REMARK    5  A    between atoms: C_25  and  C_26
REMARK    6  A    between atoms: C_25  and  N_48
REMARK                            x       y       z     vdW  Elec       q    Type
REMARK                         _______ _______ _______ _____ _____    ______ ____
ROOT
ATOM      1  C   UNL     1       0.193   5.366   0.028  0.00  0.00    +0.097 C 
ATOM      2  C   UNL     1      -0.115   3.889   0.024  0.00  0.00    -0.022 A 
ATOM      3  C   UNL     1      -1.258   3.150   0.031  0.00  0.00    +0.006 A 
ATOM      4  C   UNL     1      -1.197   1.754   0.017  0.00  0.00    +0.001 A 
ATOM      5  C   UNL     1      -0.013   1.076   0.008  0.00  0.00    +0.008 A 
ATOM      6  C   UNL     1       1.186   1.807   0.000  0.00  0.00    -0.017 A 
ATOM      7  C   UNL     1       1.100   3.211   0.009  0.00  0.00    -0.012 A 
ATOM      8  C   UNL     1       2.222   4.033   0.002  0.00  0.00    -0.052 A 
ATOM      9  C   UNL     1       3.447   3.441  -0.013  0.00  0.00    +0.003 A 
ATOM     10  C   UNL     1       3.558   2.048  -0.022  0.00  0.00    +0.001 A 
ATOM     11  C   UNL     1       2.467   1.229  -0.016  0.00  0.00    +0.008 A 
ATOM     12  C   UNL     1       1.735   5.461   0.014  0.00  0.00    -0.016 C 
ENDROOT
BRANCH  12  13
ATOM     13  N   UNL     1       2.207   6.153   1.228  0.00  0.00    +0.390 N 
ATOM     14  H   UNL     1       2.247   5.484   2.006  0.00  0.00    -0.084 HD
ATOM     15  H   UNL     1       1.555   6.911   1.462  0.00  0.00    -0.084 HD
BRANCH  13  16
ATOM     16  C   UNL     1       3.551   6.719   1.005  0.00  0.00    -0.006 C 
BRANCH  16  17
ATOM     17  C   UNL     1       4.007   7.419   2.259  0.00  0.00    +0.088 A 
ATOM     18  C   UNL     1       4.691   6.854   3.271  0.00  0.00    +0.042 A 
ATOM     19  C   UNL     1       4.911   7.866   4.233  0.00  0.00    +0.041 A 
ATOM     20  C   UNL     1       4.341   8.987   3.756  0.00  0.00    +0.195 A 
ATOM     21  O   UNL     1       3.795   8.710   2.560  0.00  0.00    -0.470 OA
ENDBRANCH  16  17
ENDBRANCH  13  16
ENDBRANCH  12  13
BRANCH   1  22
ATOM     22  N   UNL     1      -0.366   6.007  -1.165  0.00  0.00    -0.184 NA
ATOM     23  H   UNL     1       0.108   5.956  -2.010  0.00  0.00    +0.149 HD
BRANCH  22  24
ATOM     24  S   UNL     1      -1.807   6.817  -1.071  0.00  0.00    +0.059 S 
ATOM     25  O   UNL     1      -2.063   7.342  -2.367  0.00  0.00    -0.153 OA
ATOM     26  O   UNL     1      -2.717   5.952  -0.406  0.00  0.00    -0.153 OA
BRANCH  24  30
ATOM     27  C   UNL     1      -1.168  10.371   1.660  0.00  0.00    +0.000 A 
ATOM     28  C   UNL     1      -0.951  10.496   0.300  0.00  0.00    +0.002 A 
ATOM     29  C   UNL     1      -1.146   9.411  -0.534  0.00  0.00    +0.028 A 
ATOM     30  C   UNL     1      -1.558   8.201  -0.008  0.00  0.00    +0.105 A 
ATOM     31  C   UNL     1      -1.780   8.077   1.351  0.00  0.00    +0.028 A 
ATOM     32  C   UNL     1      -1.581   9.161   2.185  0.00  0.00    +0.002 A 
ENDBRANCH  24  30
ENDBRANCH  22  24
ENDBRANCH   1  22
TORSDOF 6
