REMARK  Name = ZINC13206664
REMARK  14 active torsions:
REMARK  status: ('A' for Active; 'I' for Inactive)
REMARK    1  A    between atoms: C_1  and  C_2
REMARK    2  A    between atoms: C_3  and  C_32
REMARK    3  A    between atoms: C_4  and  C_31
REMARK    4  A    between atoms: C_7  and  C_8
REMARK    5  A    between atoms: C_8  and  C_10
REMARK    6  A    between atoms: C_10  and  C_12
REMARK    7  A    between atoms: C_10  and  S_13
REMARK    8  A    between atoms: S_13  and  C_14
REMARK    9  A    between atoms: C_17  and  C_24
REMARK   10  A    between atoms: N_18  and  C_19
REMARK   11  A    between atoms: C_19  and  C_20
REMARK   12  A    between atoms: C_20  and  C_21
REMARK   13  A    between atoms: C_32  and  O_34
REMARK   14  A    between atoms: O_34  and  C_35
REMARK                            x       y       z     vdW  Elec       q    Type
REMARK                         _______ _______ _______ _____ _____    ______ ____
ROOT
ATOM      1  S   UNL     1       0.682  -0.601   5.196  0.00  0.00    -0.075 S 
ENDROOT
BRANCH   1   2
ATOM      2  C   UNL     1       0.838  -2.010   6.243  0.00  0.00    +0.193 A 
ATOM      3  N   UNL     1       0.320  -3.199   6.033  0.00  0.00    -0.122 NA
ATOM      4  N   UNL     1       0.630  -3.992   6.995  0.00  0.00    -0.128 NA
ATOM      5  C   UNL     1       1.365  -3.359   7.878  0.00  0.00    +0.165 A 
ATOM      6  N   UNL     1       1.526  -2.071   7.422  0.00  0.00    -0.302 N 
BRANCH   5   7
ATOM      7  C   UNL     1       1.921  -3.924   9.126  0.00  0.00    +0.019 A 
ATOM      8  C   UNL     1       2.332  -3.077  10.157  0.00  0.00    +0.014 A 
ATOM      9  C   UNL     1       2.849  -3.610  11.319  0.00  0.00    +0.039 A 
ATOM     10  C   UNL     1       2.961  -4.983  11.465  0.00  0.00    +0.123 A 
ATOM     11  C   UNL     1       2.555  -5.829  10.445  0.00  0.00    +0.039 A 
ATOM     12  C   UNL     1       2.031  -5.307   9.280  0.00  0.00    +0.014 A 
ATOM     13  F   UNL     1       3.469  -5.500  12.605  0.00  0.00    -0.205 F 
ENDBRANCH   5   7
BRANCH   6  14
ATOM     14  C   UNL     1       2.276  -0.990   8.066  0.00  0.00    +0.137 C 
BRANCH  14  15
ATOM     15  C   UNL     1       1.327  -0.155   8.929  0.00  0.00    +0.147 C 
BRANCH  15  16
ATOM     16  C   UNL     1       2.099   0.957   9.592  0.00  0.00    +0.358 C 
ATOM     17  O   UNL     1       3.296   1.071   9.393  0.00  0.00    -0.246 OA
ATOM     18  O   UNL     1       1.525   1.743  10.327  0.00  0.00    -0.246 OA
ENDBRANCH  15  16
ENDBRANCH  14  15
ENDBRANCH   6  14
ENDBRANCH   1   2
BRANCH   1  19
ATOM     19  C   UNL     1      -0.342  -1.189   3.819  0.00  0.00    +0.124 C 
ATOM     20  C   UNL     1      -1.738  -1.544   4.337  0.00  0.00    +0.028 C 
BRANCH  19  21
ATOM     21  C   UNL     1      -0.454  -0.106   2.778  0.00  0.00    +0.192 C 
ATOM     22  O   UNL     1      -0.316   1.058   3.095  0.00  0.00    -0.289 OA
BRANCH  21  29
ATOM     23  C   UNL     1      -0.729   1.942   0.455  0.00  0.00    +0.047 C 
ATOM     24  C   UNL     1      -0.846   0.442   0.381  0.00  0.00    -0.008 A 
ATOM     25  C   UNL     1      -1.101  -0.327  -0.775  0.00  0.00    +0.083 A 
ATOM     26  C   UNL     1      -1.126  -1.655  -0.386  0.00  0.00    +0.028 A 
ATOM     27  N   UNL     1      -0.901  -1.720   0.935  0.00  0.00    -0.355 N 
ATOM     28  H   UNL     1      -0.866  -2.536   1.459  0.00  0.00    +0.166 HD
ATOM     29  C   UNL     1      -0.720  -0.445   1.429  0.00  0.00    +0.087 A 
ATOM     30  C   UNL     1      -1.367  -2.832  -1.295  0.00  0.00    +0.064 C 
BRANCH  25  31
ATOM     31  C   UNL     1      -1.303   0.188  -2.140  0.00  0.00    +0.341 C 
ATOM     32  O   UNL     1      -0.351   0.329  -2.883  0.00  0.00    -0.245 OA
BRANCH  31  33
ATOM     33  O   UNL     1      -2.542   0.503  -2.565  0.00  0.00    -0.464 OA
ATOM     34  C   UNL     1      -2.664   0.997  -3.900  0.00  0.00    +0.280 C 
ENDBRANCH  31  33
ENDBRANCH  25  31
ENDBRANCH  21  29
ENDBRANCH  19  21
ENDBRANCH   1  19
TORSDOF 10
