REMARK  Name = ZINC05165317
REMARK  10 active torsions:
REMARK  status: ('A' for Active; 'I' for Inactive)
REMARK    1  A    between atoms: C_1  and  C_2
REMARK    2  A    between atoms: C_2  and  C_3
REMARK    3  A    between atoms: C_2  and  C_4
REMARK    4  A    between atoms: C_2  and  C_5
REMARK    5  A    between atoms: C_7  and  N_10
REMARK    6  A    between atoms: C_11  and  C_13
REMARK    7  A    between atoms: C_13  and  S_14
REMARK    8  A    between atoms: S_14  and  C_15
REMARK    9  A    between atoms: C_17  and  C_21
REMARK   10  A    between atoms: N_19  and  N_20
REMARK                            x       y       z     vdW  Elec       q    Type
REMARK                         _______ _______ _______ _____ _____    ______ ____
ROOT
ATOM      1  S   UNL     1      -3.874   2.010   0.031  0.00  0.00    -0.077 S 
ENDROOT
BRANCH   1   2
ATOM      2  C   UNL     1      -5.218   0.872   0.032  0.00  0.00    +0.187 A 
ATOM      3  N   UNL     1      -5.113  -0.436   0.024  0.00  0.00    -0.221 NA
ATOM      4  C   UNL     1      -6.355  -0.982   0.027  0.00  0.00    +0.092 A 
ATOM      5  C   UNL     1      -7.256   0.032   0.036  0.00  0.00    +0.138 A 
ATOM      6  N   UNL     1      -6.539   1.204   0.045  0.00  0.00    -0.251 N 
BRANCH   4   7
ATOM      7  C   UNL     1      -6.671  -2.431   0.021  0.00  0.00    +0.002 A 
ATOM      8  C   UNL     1      -7.998  -2.857   0.030  0.00  0.00    +0.010 A 
ATOM      9  C   UNL     1      -8.286  -4.207   0.017  0.00  0.00    +0.001 A 
ATOM     10  C   UNL     1      -7.261  -5.136   0.009  0.00  0.00    +0.000 A 
ATOM     11  C   UNL     1      -5.942  -4.718   0.005  0.00  0.00    +0.001 A 
ATOM     12  C   UNL     1      -5.642  -3.371   0.011  0.00  0.00    +0.010 A 
ENDBRANCH   4   7
BRANCH   6  13
ATOM     13  N   UNL     1      -7.055   2.468   0.061  0.00  0.00    -0.296 N 
ATOM     14  H   UNL     1      -7.199   2.812  -0.877  0.00  0.00    +0.163 HD
ATOM     15  H   UNL     1      -7.911   2.503   0.594  0.00  0.00    +0.163 HD
ENDBRANCH   6  13
ENDBRANCH   1   2
BRANCH   1  16
ATOM     16  C   UNL     1      -2.482   0.853   0.018  0.00  0.00    +0.173 C 
BRANCH  16  18
ATOM     17  N   UNL     1      -0.011   0.966   0.007  0.00  0.00    -0.254 N 
ATOM     18  C   UNL     1      -1.187   1.624   0.017  0.00  0.00    +0.230 C 
ATOM     19  O   UNL     1      -1.204   2.836   0.023  0.00  0.00    -0.274 OA
ATOM     20  H   UNL     1       0.002  -0.004   0.002  0.00  0.00    +0.158 HD
BRANCH  17  23
ATOM     21  C   UNL     1       3.277   2.293  -0.017  0.00  0.00    +0.091 A 
ATOM     22  C   UNL     1       2.443   1.157  -0.015  0.00  0.00    +0.092 A 
ATOM     23  C   UNL     1       1.181   1.676  -0.000  0.00  0.00    +0.224 A 
ATOM     24  O   UNL     1       1.323   3.011  -0.000  0.00  0.00    -0.339 OA
ATOM     25  N   UNL     1       2.489   3.331  -0.004  0.00  0.00    -0.081 NA
BRANCH  21  27
ATOM     26  C   UNL     1       5.283   1.944  -1.432  0.00  0.00    +0.017 C 
ATOM     27  C   UNL     1       4.784   2.306  -0.032  0.00  0.00    +0.008 C 
ATOM     28  C   UNL     1       5.286   3.701   0.345  0.00  0.00    +0.017 C 
ATOM     29  C   UNL     1       5.312   1.284   0.978  0.00  0.00    +0.017 C 
ENDBRANCH  21  27
ENDBRANCH  17  23
ENDBRANCH  16  18
ENDBRANCH   1  16
TORSDOF 7
