REMARK  Name = ZINC18938248
REMARK  7 active torsions:
REMARK  status: ('A' for Active; 'I' for Inactive)
REMARK    1  A    between atoms: C_1  and  C_2
REMARK    2  A    between atoms: C_2  and  C_3
REMARK    3  A    between atoms: C_7  and  C_14
REMARK    4  A    between atoms: C_14  and  N_49
REMARK    5  A    between atoms: C_15  and  N_49
REMARK    6  A    between atoms: C_20  and  C_25
REMARK    7  A    between atoms: C_22  and  C_24
REMARK                            x       y       z     vdW  Elec       q    Type
REMARK                         _______ _______ _______ _____ _____    ______ ____
ROOT
ATOM      1  C   UNL     1      -1.226   1.748   0.017  0.00  0.00    -0.044 A 
ATOM      2  C   UNL     1      -0.013   1.076   0.008  0.00  0.00    +0.004 A 
ATOM      3  C   UNL     1       1.165   1.770   0.000  0.00  0.00    +0.012 A 
ATOM      4  C   UNL     1       1.145   3.168   0.008  0.00  0.00    +0.019 A 
ATOM      5  C   UNL     1       2.390   3.942   0.001  0.00  0.00    -0.047 A 
ATOM      6  C   UNL     1       2.303   5.296   0.009  0.00  0.00    +0.094 A 
ATOM      7  C   UNL     1       1.035   5.918   0.025  0.00  0.00    +0.337 A 
ATOM      8  O   UNL     1       0.971   7.134   0.032  0.00  0.00    -0.245 OA
ATOM      9  O   UNL     1      -0.100   5.203   0.031  0.00  0.00    -0.422 OA
ATOM     10  C   UNL     1      -0.083   3.853   0.024  0.00  0.00    +0.140 A 
ATOM     11  C   UNL     1      -1.267   3.127   0.030  0.00  0.00    +0.050 A 
ENDROOT
BRANCH   1  13
ATOM     12  C   UNL     1      -2.942   0.690   1.462  0.00  0.00    +0.009 C 
ATOM     13  C   UNL     1      -2.513   0.964   0.019  0.00  0.00    +0.032 C 
ENDBRANCH   1  13
BRANCH   5  14
ATOM     14  C   UNL     1       3.730   3.252  -0.015  0.00  0.00    -0.045 C 
BRANCH  14  15
ATOM     15  N   UNL     1       4.036   2.823  -1.393  0.00  0.00    +0.384 N 
ATOM     16  H   UNL     1       4.060   3.646  -2.006  0.00  0.00    -0.085 HD
ATOM     17  H   UNL     1       3.307   2.177  -1.716  0.00  0.00    -0.085 HD
BRANCH  15  18
ATOM     18  C   UNL     1       5.345   2.144  -1.438  0.00  0.00    -0.068 C 
ATOM     19  C   UNL     1       5.166   0.666  -1.085  0.00  0.00    -0.015 C 
ATOM     20  C   UNL     1       6.522  -0.040  -1.141  0.00  0.00    -0.001 C 
ATOM     21  C   UNL     1       7.101   0.080  -2.552  0.00  0.00    +0.003 C 
ATOM     22  C   UNL     1       7.280   1.558  -2.906  0.00  0.00    -0.013 C 
ATOM     23  C   UNL     1       5.924   2.264  -2.849  0.00  0.00    -0.025 C 
ATOM     24  C   UNL     1       6.103   3.742  -3.203  0.00  0.00    +0.006 C 
ATOM     25  C   UNL     1       7.859   1.678  -4.317  0.00  0.00    +0.008 C 
ENDBRANCH  15  18
ENDBRANCH  14  15
ENDBRANCH   5  14
TORSDOF 4
