REMARK  Name = ZINC36644033
REMARK  2 active torsions:
REMARK  status: ('A' for Active; 'I' for Inactive)
REMARK    1  A    between atoms: C_1  and  C_2
REMARK    2  A    between atoms: C_7  and  C_13
REMARK                            x       y       z     vdW  Elec       q    Type
REMARK                         _______ _______ _______ _____ _____    ______ ____
ROOT
ATOM      1  C   UNL     1      -0.019   1.526   0.010  0.00  0.00    +0.030 C 
ATOM      2  C   UNL     1       0.002  -0.004   0.002  0.00  0.00    +0.095 C 
ATOM      3  C   UNL     1      -1.406  -0.551   0.054  0.00  0.00    +0.018 C 
ATOM      4  C   UNL     1      -1.501  -1.272   1.179  0.00  0.00    +0.051 C 
ATOM      5  C   UNL     1      -2.641  -2.029   1.737  0.00  0.00    +0.045 C 
ATOM      6  C   UNL     1      -2.484  -2.678   2.897  0.00  0.00    +0.017 C 
ATOM      7  N   UNL     1      -1.274  -2.641   3.561  0.00  0.00    -0.340 N 
ATOM      8  C   UNL     1      -0.209  -1.950   3.067  0.00  0.00    +0.164 C 
ATOM      9  N   UNL     1      -0.297  -1.262   1.884  0.00  0.00    -0.214 N 
ATOM     10  N   UNL     1       0.646  -0.516   1.225  0.00  0.00    -0.227 NA
ATOM     11  S   UNL     1       1.220  -1.942   3.911  0.00  0.00    -0.014 SA
ATOM     12  C   UNL     1      -3.635  -3.455   3.482  0.00  0.00    +0.063 C 
ATOM     13  H   UNL     1       1.457  -1.073   1.000  0.00  0.00    +0.145 HD
ATOM     14  H   UNL     1      -1.181  -3.118   4.401  0.00  0.00    +0.167 HD
ENDROOT
TORSDOF 0
