REMARK  Name = ZINC63405947
REMARK  10 active torsions:
REMARK  status: ('A' for Active; 'I' for Inactive)
REMARK    1  A    between atoms: C_1  and  C_2
REMARK    2  A    between atoms: C_2  and  N_3
REMARK    3  A    between atoms: N_3  and  C_4
REMARK    4  A    between atoms: N_3  and  S_6
REMARK    5  A    between atoms: C_4  and  C_5
REMARK    6  A    between atoms: S_6  and  C_9
REMARK    7  A    between atoms: C_12  and  O_28
REMARK    8  A    between atoms: C_13  and  N_15
REMARK    9  A    between atoms: C_16  and  C_18
REMARK   10  A    between atoms: C_18  and  C_19
REMARK                            x       y       z     vdW  Elec       q    Type
REMARK                         _______ _______ _______ _____ _____    ______ ____
ROOT
ATOM      1  C   UNL     1       3.190   0.611   1.495  0.00  0.00    +0.107 A 
ATOM      2  C   UNL     1       3.535   1.490   0.485  0.00  0.00    +0.032 A 
ATOM      3  C   UNL     1       4.244   2.640   0.776  0.00  0.00    +0.049 A 
ATOM      4  C   UNL     1       4.611   2.915   2.084  0.00  0.00    +0.138 A 
ATOM      5  C   UNL     1       4.264   2.030   3.102  0.00  0.00    +0.077 A 
ATOM      6  C   UNL     1       3.548   0.880   2.802  0.00  0.00    +0.055 A 
ENDROOT
BRANCH   5   7
ATOM      7  N   UNL     1       4.633   2.303   4.426  0.00  0.00    -0.282 N 
ATOM      8  C   UNL     1       4.759   1.295   5.312  0.00  0.00    +0.221 C 
ATOM      9  O   UNL     1       4.652   0.145   4.941  0.00  0.00    -0.275 OA
ATOM     10  H   UNL     1       4.797   3.217   4.705  0.00  0.00    +0.155 HD
BRANCH   8  11
ATOM     11  C   UNL     1       5.032   1.596   6.763  0.00  0.00    +0.129 C 
BRANCH  11  12
ATOM     12  C   UNL     1       5.128   0.306   7.535  0.00  0.00    -0.033 C 
ATOM     13  C   UNL     1       6.255  -0.376   7.843  0.00  0.00    -0.001 A 
ATOM     14  C   UNL     1       7.674  -0.130   7.561  0.00  0.00    +0.010 A 
ATOM     15  C   UNL     1       8.595  -1.013   8.010  0.00  0.00    +0.001 A 
ATOM     16  C   UNL     1       8.228  -2.155   8.735  0.00  0.00    +0.002 A 
ATOM     17  C   UNL     1       6.945  -2.449   9.033  0.00  0.00    +0.026 A 
ATOM     18  C   UNL     1       5.894  -1.589   8.611  0.00  0.00    +0.043 A 
ATOM     19  N   UNL     1       4.595  -1.655   8.771  0.00  0.00    -0.380 N 
ATOM     20  C   UNL     1       3.984  -0.486   8.127  0.00  0.00    +0.145 C 
ATOM     21  H   UNL     1       4.117  -2.357   9.240  0.00  0.00    +0.160 HD
ENDBRANCH  11  12
ENDBRANCH   8  11
ENDBRANCH   5   7
BRANCH   1  22
ATOM     22  S   UNL     1       2.287  -0.854   1.115  0.00  0.00    +0.061 S 
ATOM     23  O   UNL     1       2.557  -1.780   2.159  0.00  0.00    -0.153 OA
ATOM     24  O   UNL     1       2.548  -1.149  -0.251  0.00  0.00    -0.153 OA
BRANCH  22  25
ATOM     25  N   UNL     1       0.678  -0.478   1.219  0.00  0.00    -0.177 NA
BRANCH  25  27
ATOM     26  C   UNL     1      -0.054   1.539   0.046  0.00  0.00    +0.022 C 
ATOM     27  C   UNL     1      -0.038   0.009   0.037  0.00  0.00    +0.106 C 
ENDBRANCH  25  27
BRANCH  25  28
ATOM     28  C   UNL     1      -0.029  -0.632   2.492  0.00  0.00    +0.106 C 
ATOM     29  C   UNL     1      -0.721  -1.997   2.529  0.00  0.00    +0.022 C 
ENDBRANCH  25  28
ENDBRANCH  22  25
ENDBRANCH   1  22
BRANCH   4  30
ATOM     30  O   UNL     1       5.309   4.046   2.372  0.00  0.00    -0.505 OA
ATOM     31  H   UNL     1       4.753   4.810   2.577  0.00  0.00    +0.292 HD
ENDBRANCH   4  30
TORSDOF 8
