REMARK  Name = ZINC33051491
REMARK  9 active torsions:
REMARK  status: ('A' for Active; 'I' for Inactive)
REMARK    1  A    between atoms: C_1  and  C_2
REMARK    2  A    between atoms: C_6  and  N_9
REMARK    3  A    between atoms: C_7  and  C_8
REMARK    4  A    between atoms: C_15  and  C_41
REMARK    5  A    between atoms: N_17  and  C_35
REMARK    6  A    between atoms: C_24  and  C_26
REMARK    7  A    between atoms: C_29  and  C_32
REMARK    8  A    between atoms: C_32  and  C_33
REMARK    9  A    between atoms: C_32  and  C_34
REMARK                            x       y       z     vdW  Elec       q    Type
REMARK                         _______ _______ _______ _____ _____    ______ ____
ROOT
ATOM      1  N   UNL     1       6.002   1.657   1.123  0.00  0.00    -0.269 N 
ATOM      2  C   UNL     1       5.473   0.639   1.832  0.00  0.00    +0.308 C 
ATOM      3  O   UNL     1       6.074   0.187   2.787  0.00  0.00    -0.252 OA
ATOM      4  N   UNL     1       4.279   0.123   1.481  0.00  0.00    -0.268 N 
ATOM      5  C   UNL     1       3.510   0.641   0.325  0.00  0.00    +0.151 C 
ATOM      6  C   UNL     1       2.040   0.693   0.618  0.00  0.00    +0.035 A 
ATOM      7  C   UNL     1       1.222   1.802   0.817  0.00  0.00    +0.067 A 
ATOM      8  N   UNL     1      -0.008   1.382   0.997  0.00  0.00    -0.169 NA
ATOM      9  N   UNL     1      -0.015  -0.021   0.921  0.00  0.00    -0.215 N 
ATOM     10  C   UNL     1       1.254  -0.420   0.714  0.00  0.00    +0.146 A 
ATOM     11  N   UNL     1       1.818  -1.698   0.645  0.00  0.00    -0.303 N 
ATOM     12  C   UNL     1       1.416  -2.804  -0.024  0.00  0.00    +0.093 A 
ATOM     13  C   UNL     1       2.349  -3.766   0.167  0.00  0.00    +0.020 A 
ATOM     14  C   UNL     1       3.349  -3.228   1.005  0.00  0.00    +0.025 A 
ATOM     15  C   UNL     1       2.989  -1.970   1.307  0.00  0.00    +0.050 A 
ATOM     16  C   UNL     1       3.658  -0.995   2.230  0.00  0.00    +0.155 C 
ATOM     17  C   UNL     1       1.673   3.240   0.821  0.00  0.00    +0.068 C 
ATOM     18  H   UNL     1       5.431   2.108   0.299  0.00  0.00    +0.156 HD
ENDROOT
BRANCH   1  24
ATOM     19  C   UNL     1      10.280   3.578  -0.351  0.00  0.00    +0.044 C 
ATOM     20  C   UNL     1       9.372   3.076   0.742  0.00  0.00    -0.046 A 
ATOM     21  C   UNL     1       9.800   3.092   2.057  0.00  0.00    +0.004 A 
ATOM     22  C   UNL     1       8.970   2.632   3.062  0.00  0.00    +0.002 A 
ATOM     23  C   UNL     1       7.710   2.156   2.756  0.00  0.00    +0.023 A 
ATOM     24  C   UNL     1       7.277   2.139   1.437  0.00  0.00    +0.038 A 
ATOM     25  C   UNL     1       8.116   2.596   0.428  0.00  0.00    -0.026 A 
ATOM     26  C   UNL     1       7.653   2.574  -1.006  0.00  0.00    +0.046 C 
ENDBRANCH   1  24
BRANCH  16  27
ATOM     27  C   UNL     1       2.634  -0.439   3.186  0.00  0.00    -0.021 A 
ATOM     28  C   UNL     1       2.767   0.850   3.668  0.00  0.00    +0.006 A 
ATOM     29  C   UNL     1       1.825   1.361   4.542  0.00  0.00    +0.004 A 
ATOM     30  C   UNL     1       0.756   0.580   4.939  0.00  0.00    -0.045 A 
ATOM     31  C   UNL     1       0.626  -0.710   4.461  0.00  0.00    +0.004 A 
ATOM     32  C   UNL     1       1.565  -1.220   3.584  0.00  0.00    +0.006 A 
BRANCH  30  33
ATOM     33  C   UNL     1      -0.268   1.136   5.895  0.00  0.00    +0.013 C 
ATOM     34  C   UNL     1       0.416   1.523   7.208  0.00  0.00    +0.012 C 
ATOM     35  C   UNL     1      -0.924   2.373   5.278  0.00  0.00    +0.012 C 
ENDBRANCH  30  33
ENDBRANCH  16  27
BRANCH   9  36
ATOM     36  C   UNL     1      -1.137  -0.852   1.039  0.00  0.00    +0.068 A 
ATOM     37  C   UNL     1      -1.024  -2.090   1.658  0.00  0.00    +0.028 A 
ATOM     38  C   UNL     1      -2.133  -2.905   1.778  0.00  0.00    +0.002 A 
ATOM     39  C   UNL     1      -3.352  -2.494   1.272  0.00  0.00    +0.000 A 
ATOM     40  C   UNL     1      -3.467  -1.264   0.650  0.00  0.00    +0.002 A 
ATOM     41  C   UNL     1      -2.363  -0.443   0.532  0.00  0.00    +0.028 A 
ENDBRANCH   9  36
TORSDOF 4
