REMARK  Name = ZINC13500984
REMARK  13 active torsions:
REMARK  status: ('A' for Active; 'I' for Inactive)
REMARK    1  A    between atoms: C_1  and  C_2
REMARK    2  A    between atoms: C_2  and  C_3
REMARK    3  A    between atoms: C_3  and  C_4
REMARK    4  A    between atoms: C_4  and  C_6
REMARK    5  A    between atoms: C_4  and  N_69
REMARK    6  A    between atoms: N_10  and  C_11
REMARK    7  A    between atoms: C_11  and  C_12
REMARK    8  A    between atoms: C_17  and  C_18
REMARK    9  A    between atoms: C_17  and  N_69
REMARK   10  A    between atoms: C_18  and  C_19
REMARK   11  A    between atoms: C_25  and  C_26
REMARK   12  A    between atoms: C_25  and  N_69
REMARK   13  A    between atoms: C_32  and  C_38
REMARK                            x       y       z     vdW  Elec       q    Type
REMARK                         _______ _______ _______ _____ _____    ______ ____
ROOT
ATOM      1  N   UNL     1      -0.638   1.030   0.944  0.00  0.00    +0.389 N 
ATOM      2  H   UNL     1      -0.262   1.810   0.393  0.00  0.00    -0.080 HD
ENDROOT
BRANCH   1   3
ATOM      3  C   UNL     1      -0.331   1.257   2.371  0.00  0.00    +0.003 C 
BRANCH   3   4
ATOM      4  C   UNL     1      -0.839   0.114   3.211  0.00  0.00    +0.139 A 
ATOM      5  N   UNL     1      -0.945  -1.140   2.843  0.00  0.00    -0.115 NA
ATOM      6  N   UNL     1      -1.418  -1.808   3.838  0.00  0.00    -0.023 NA
ATOM      7  N   UNL     1      -1.616  -1.013   4.831  0.00  0.00    -0.044 NA
ATOM      8  N   UNL     1      -1.266   0.180   4.485  0.00  0.00    -0.223 N 
BRANCH   8   9
ATOM      9  C   UNL     1      -1.326   1.381   5.322  0.00  0.00    +0.221 C 
BRANCH   9  10
ATOM     10  C   UNL     1      -2.706   1.982   5.240  0.00  0.00    +0.126 A 
ATOM     11  C   UNL     1      -3.747   1.671   6.034  0.00  0.00    +0.046 A 
ATOM     12  C   UNL     1      -4.835   2.468   5.612  0.00  0.00    +0.041 A 
ATOM     13  C   UNL     1      -4.397   3.212   4.581  0.00  0.00    +0.195 A 
ATOM     14  O   UNL     1      -3.106   2.913   4.360  0.00  0.00    -0.466 OA
ENDBRANCH   9  10
ENDBRANCH   8   9
ENDBRANCH   3   4
BRANCH   3  15
ATOM     15  C   UNL     1       1.185   1.379   2.539  0.00  0.00    -0.008 C 
BRANCH  15  17
ATOM     16  C   UNL     1       3.211   2.674   1.860  0.00  0.00    +0.004 C 
ATOM     17  C   UNL     1       1.684   2.617   1.790  0.00  0.00    -0.005 C 
ENDBRANCH  15  17
ENDBRANCH   3  15
ENDBRANCH   1   3
BRANCH   1  18
ATOM     18  C   UNL     1      -2.102   0.964   0.747  0.00  0.00    -0.073 C 
BRANCH  18  19
ATOM     19  C   UNL     1      -2.717   2.305   1.152  0.00  0.00    +0.016 C 
BRANCH  19  20
ATOM     20  C   UNL     1      -4.184   2.308   0.811  0.00  0.00    -0.049 A 
ATOM     21  C   UNL     1      -4.605   2.759  -0.426  0.00  0.00    +0.003 A 
ATOM     22  C   UNL     1      -5.952   2.757  -0.741  0.00  0.00    +0.000 A 
ATOM     23  C   UNL     1      -6.877   2.314   0.185  0.00  0.00    +0.000 A 
ATOM     24  C   UNL     1      -6.457   1.870   1.424  0.00  0.00    +0.000 A 
ATOM     25  C   UNL     1      -5.110   1.866   1.737  0.00  0.00    +0.003 A 
ENDBRANCH  19  20
ENDBRANCH  18  19
ENDBRANCH   1  18
BRANCH   1  26
ATOM     26  C   UNL     1      -0.010  -0.228   0.486  0.00  0.00    -0.037 C 
BRANCH  26  27
ATOM     27  C   UNL     1       0.048  -0.219  -1.020  0.00  0.00    +0.001 A 
ATOM     28  C   UNL     1       1.165   0.223  -1.650  0.00  0.00    +0.017 A 
ATOM     29  C   UNL     1       1.191   0.215  -3.113  0.00  0.00    -0.001 A 
ATOM     30  C   UNL     1       2.316   0.654  -3.819  0.00  0.00    +0.010 A 
ATOM     31  C   UNL     1       2.308   0.638  -5.185  0.00  0.00    +0.001 A 
ATOM     32  C   UNL     1       1.192   0.191  -5.879  0.00  0.00    +0.005 A 
ATOM     33  C   UNL     1       0.072  -0.245  -5.205  0.00  0.00    -0.026 A 
ATOM     34  C   UNL     1       0.058  -0.239  -3.814  0.00  0.00    +0.052 A 
ATOM     35  N   UNL     1      -1.048  -0.670  -3.114  0.00  0.00    -0.322 N 
ATOM     36  H   UNL     1      -1.829  -0.983  -3.598  0.00  0.00    +0.169 HD
ATOM     37  C   UNL     1      -1.062  -0.664  -1.769  0.00  0.00    +0.251 A 
ATOM     38  O   UNL     1      -2.057  -1.053  -1.183  0.00  0.00    -0.268 OA
ATOM     39  C   UNL     1      -1.133  -0.728  -5.971  0.00  0.00    +0.046 C 
ENDBRANCH  26  27
ENDBRANCH   1  26
TORSDOF 11
