REMARK  Name = ZINC39686323
REMARK  11 active torsions:
REMARK  status: ('A' for Active; 'I' for Inactive)
REMARK    1  A    between atoms: C_1  and  C_2
REMARK    2  A    between atoms: C_2  and  C_3
REMARK    3  A    between atoms: C_2  and  C_4
REMARK    4  A    between atoms: C_4  and  C_5
REMARK    5  A    between atoms: C_10  and  N_13
REMARK    6  A    between atoms: C_14  and  C_16
REMARK    7  A    between atoms: C_27  and  C_29
REMARK    8  A    between atoms: C_29  and  C_30
REMARK    9  A    between atoms: C_30  and  C_31
REMARK   10  A    between atoms: C_34  and  O_37
REMARK   11  A    between atoms: O_37  and  C_38
REMARK                            x       y       z     vdW  Elec       q    Type
REMARK                         _______ _______ _______ _____ _____    ______ ____
ROOT
ATOM      1  C   UNL     1      -7.881  -4.418  -4.332  0.00  0.00    +0.100 C 
ATOM      2  C   UNL     1      -8.195  -5.485  -3.259  0.00  0.00    +0.121 C 
ATOM      3  N   UNL     1      -9.621  -5.267  -2.921  0.00  0.00    -0.300 N 
ATOM      4  C   UNL     1     -10.266  -4.962  -4.220  0.00  0.00    +0.115 C 
ATOM      5  C   UNL     1      -9.243  -4.080  -4.963  0.00  0.00    -0.004 C 
ATOM      6  C   UNL     1      -9.569  -2.604  -4.755  0.00  0.00    -0.010 C 
ATOM      7  C   UNL     1     -10.900  -2.280  -5.440  0.00  0.00    -0.082 C 
ATOM      8  N   UNL     1     -10.802  -2.583  -6.873  0.00  0.00    +0.379 N 
ATOM      9  C   UNL     1     -10.579  -4.021  -7.067  0.00  0.00    -0.082 C 
ATOM     10  C   UNL     1      -9.235  -4.419  -6.451  0.00  0.00    -0.010 C 
ATOM     11  C   UNL     1     -10.201  -5.332  -1.706  0.00  0.00    +0.216 C 
ATOM     12  O   UNL     1     -11.391  -5.127  -1.590  0.00  0.00    -0.276 OA
ATOM     13  H   UNL     1     -11.658  -2.311  -7.332  0.00  0.00    -0.086 HD
ATOM     14  H   UNL     1     -10.031  -2.068  -7.272  0.00  0.00    -0.086 HD
ENDROOT
BRANCH   1  16
ATOM     15  N   UNL     1      -6.432  -2.415  -4.396  0.00  0.00    -0.312 N 
ATOM     16  C   UNL     1      -7.280  -3.193  -3.694  0.00  0.00    +0.218 C 
ATOM     17  O   UNL     1      -7.558  -2.907  -2.549  0.00  0.00    -0.275 OA
ATOM     18  H   UNL     1      -6.210  -2.643  -5.312  0.00  0.00    +0.149 HD
BRANCH  15  24
ATOM     19  C   UNL     1      -4.561   2.642  -4.306  0.00  0.00    +0.216 C 
ATOM     20  O   UNL     1      -5.378   3.538  -4.298  0.00  0.00    -0.276 OA
ATOM     21  N   UNL     1      -4.881   1.435  -3.798  0.00  0.00    -0.301 N 
ATOM     22  C   UNL     1      -3.900   0.341  -3.794  0.00  0.00    +0.109 C 
ATOM     23  C   UNL     1      -4.526  -0.885  -4.468  0.00  0.00    +0.041 C 
ATOM     24  C   UNL     1      -5.848  -1.223  -3.776  0.00  0.00    +0.076 C 
ATOM     25  C   UNL     1      -6.816  -0.047  -3.918  0.00  0.00    +0.041 C 
ATOM     26  C   UNL     1      -6.215   1.190  -3.233  0.00  0.00    +0.109 C 
BRANCH  19  27
ATOM     27  C   UNL     1      -3.189   2.877  -4.882  0.00  0.00    +0.099 C 
BRANCH  27  29
ATOM     28  C   UNL     1      -3.200   5.282  -4.202  0.00  0.00    +0.008 C 
ATOM     29  C   UNL     1      -3.088   4.319  -5.385  0.00  0.00    -0.008 C 
ATOM     30  C   UNL     1      -1.741   4.522  -6.082  0.00  0.00    +0.008 C 
ENDBRANCH  27  29
ENDBRANCH  19  27
ENDBRANCH  15  24
ENDBRANCH   1  16
BRANCH  11  31
ATOM     31  C   UNL     1      -9.371  -5.659  -0.491  0.00  0.00    +0.100 C 
BRANCH  31  32
ATOM     32  C   UNL     1     -10.266  -5.669   0.750  0.00  0.00    +0.044 C 
BRANCH  32  33
ATOM     33  C   UNL     1      -9.436  -5.996   1.965  0.00  0.00    -0.047 A 
ATOM     34  C   UNL     1      -9.268  -7.313   2.352  0.00  0.00    +0.007 A 
ATOM     35  C   UNL     1      -8.508  -7.615   3.465  0.00  0.00    +0.046 A 
ATOM     36  C   UNL     1      -7.913  -6.596   4.194  0.00  0.00    +0.120 A 
ATOM     37  C   UNL     1      -8.082  -5.276   3.804  0.00  0.00    +0.046 A 
ATOM     38  C   UNL     1      -8.839  -4.979   2.687  0.00  0.00    +0.007 A 
BRANCH  36  39
ATOM     39  O   UNL     1      -7.165  -6.891   5.290  0.00  0.00    -0.495 OA
ATOM     40  C   UNL     1      -6.582  -5.792   5.993  0.00  0.00    +0.277 C 
ENDBRANCH  36  39
ENDBRANCH  32  33
ENDBRANCH  31  32
ENDBRANCH  11  31
TORSDOF 8
