REMARK  Name = ZINC09272745
REMARK  19 active torsions:
REMARK  status: ('A' for Active; 'I' for Inactive)
REMARK    1  A    between atoms: C_1  and  C_2
REMARK    2  A    between atoms: C_2  and  C_3
REMARK    3  A    between atoms: C_6  and  C_9
REMARK    4  A    between atoms: C_11  and  C_23
REMARK    5  A    between atoms: C_12  and  O_22
REMARK    6  A    between atoms: N_15  and  C_16
REMARK    7  A    between atoms: C_16  and  C_17
REMARK    8  A    between atoms: C_17  and  N_76
REMARK    9  A    between atoms: C_18  and  C_19
REMARK   10  A    between atoms: C_18  and  N_76
REMARK   11  A    between atoms: C_20  and  C_21
REMARK   12  A    between atoms: C_20  and  N_76
REMARK   13  A    between atoms: C_23  and  C_25
REMARK   14  A    between atoms: C_28  and  O_32
REMARK   15  A    between atoms: C_30  and  C_31
REMARK   16  A    between atoms: O_32  and  C_33
REMARK   17  A    between atoms: C_33  and  C_34
REMARK   18  A    between atoms: C_34  and  C_35
REMARK   19  A    between atoms: C_34  and  C_36
REMARK                            x       y       z     vdW  Elec       q    Type
REMARK                         _______ _______ _______ _____ _____    ______ ____
ROOT
ATOM      1  C   UNL     1      -0.128  -4.111  -0.719  0.00  0.00    +0.144 C 
ATOM      2  C   UNL     1      -0.545  -4.599   0.649  0.00  0.00    +0.071 C 
ATOM      3  C   UNL     1       0.451  -5.399   1.098  0.00  0.00    +0.188 C 
ATOM      4  C   UNL     1       1.519  -5.463   0.079  0.00  0.00    +0.282 C 
ATOM      5  O   UNL     1       2.547  -6.101   0.186  0.00  0.00    -0.267 OA
ATOM      6  N   UNL     1       1.184  -4.711  -0.986  0.00  0.00    -0.285 N 
ENDROOT
BRANCH   1  10
ATOM      7  C   UNL     1       0.176   0.150  -0.728  0.00  0.00    -0.048 A 
ATOM      8  C   UNL     1       1.088  -0.606  -0.016  0.00  0.00    +0.004 A 
ATOM      9  C   UNL     1       0.987  -1.985  -0.009  0.00  0.00    +0.006 A 
ATOM     10  C   UNL     1      -0.021  -2.607  -0.722  0.00  0.00    -0.022 A 
ATOM     11  C   UNL     1      -0.930  -1.851  -1.438  0.00  0.00    +0.006 A 
ATOM     12  C   UNL     1      -0.831  -0.472  -1.441  0.00  0.00    +0.004 A 
BRANCH   7  14
ATOM     13  C   UNL     1      -0.538   2.227   0.425  0.00  0.00    +0.009 C 
ATOM     14  C   UNL     1       0.284   1.653  -0.731  0.00  0.00    +0.032 C 
ENDBRANCH   7  14
ENDBRANCH   1  10
BRANCH   3  15
ATOM     15  O   UNL     1       0.465  -6.038   2.290  0.00  0.00    -0.502 OA
ATOM     16  H   UNL     1       1.312  -6.562   2.377  0.00  0.00    +0.292 HD
ENDBRANCH   3  15
BRANCH   2  17
ATOM     17  C   UNL     1      -1.788  -4.270   1.354  0.00  0.00    +0.195 C 
ATOM     18  O   UNL     1      -1.952  -4.640   2.502  0.00  0.00    -0.287 OA
BRANCH  17  19
ATOM     19  C   UNL     1      -2.840  -3.492   0.671  0.00  0.00    +0.025 A 
ATOM     20  C   UNL     1      -3.034  -2.144   0.992  0.00  0.00    +0.015 A 
ATOM     21  C   UNL     1      -4.016  -1.422   0.353  0.00  0.00    +0.046 A 
ATOM     22  C   UNL     1      -4.814  -2.030  -0.610  0.00  0.00    +0.121 A 
ATOM     23  C   UNL     1      -4.624  -3.369  -0.932  0.00  0.00    +0.049 A 
ATOM     24  C   UNL     1      -3.640  -4.097  -0.301  0.00  0.00    -0.036 A 
ATOM     25  C   UNL     1      -3.431  -5.547  -0.655  0.00  0.00    +0.044 C 
BRANCH  22  26
ATOM     26  O   UNL     1      -5.781  -1.313  -1.237  0.00  0.00    -0.492 OA
BRANCH  26  27
ATOM     27  C   UNL     1      -5.922   0.057  -0.859  0.00  0.00    +0.232 C 
BRANCH  27  28
ATOM     28  C   UNL     1      -7.054   0.696  -1.667  0.00  0.00    +0.020 C 
ATOM     29  C   UNL     1      -7.288   2.125  -1.175  0.00  0.00    +0.010 C 
ATOM     30  C   UNL     1      -6.671   0.722  -3.148  0.00  0.00    +0.010 C 
ENDBRANCH  27  28
ENDBRANCH  26  27
ENDBRANCH  22  26
ENDBRANCH  17  19
ENDBRANCH   2  17
BRANCH   6  31
ATOM     31  C   UNL     1       1.987  -4.524  -2.196  0.00  0.00    +0.090 C 
BRANCH  31  32
ATOM     32  C   UNL     1       2.911  -3.318  -2.015  0.00  0.00    -0.060 C 
BRANCH  32  33
ATOM     33  N   UNL     1       3.699  -3.131  -3.252  0.00  0.00    +0.380 N 
ATOM     34  H   UNL     1       3.059  -3.106  -4.054  0.00  0.00    -0.082 HD
BRANCH  33  35
ATOM     35  C   UNL     1       4.440  -1.853  -3.189  0.00  0.00    -0.082 C 
ATOM     36  C   UNL     1       3.439  -0.698  -3.261  0.00  0.00    -0.017 C 
ENDBRANCH  33  35
BRANCH  33  37
ATOM     37  C   UNL     1       4.643  -4.255  -3.425  0.00  0.00    -0.082 C 
ATOM     38  C   UNL     1       5.327  -4.120  -4.787  0.00  0.00    -0.017 C 
ENDBRANCH  33  37
ENDBRANCH  32  33
ENDBRANCH  31  32
ENDBRANCH   6  31
TORSDOF 13
