REMARK  Name = ZINC14397501
REMARK  7 active torsions:
REMARK  status: ('A' for Active; 'I' for Inactive)
REMARK    1  A    between atoms: C_1  and  C_2
REMARK    2  A    between atoms: C_4  and  O_10
REMARK    3  A    between atoms: C_6  and  C_9
REMARK    4  A    between atoms: O_10  and  C_11
REMARK    5  A    between atoms: C_11  and  C_13
REMARK    6  A    between atoms: C_11  and  C_14
REMARK    7  A    between atoms: N_16  and  C_17
REMARK                            x       y       z     vdW  Elec       q    Type
REMARK                         _______ _______ _______ _____ _____    ______ ____
ROOT
ATOM      1  C   UNL     1       5.351  -1.961   2.713  0.00  0.00    +0.258 C 
ATOM      2  O   UNL     1       4.598  -2.888   2.927  0.00  0.00    -0.271 OA
ATOM      3  N   UNL     1       4.956  -0.941   1.926  0.00  0.00    -0.282 N 
ATOM      4  H   UNL     1       5.582  -0.237   1.694  0.00  0.00    +0.155 HD
ENDROOT
BRANCH   3   5
ATOM      5  C   UNL     1       3.642  -0.896   1.444  0.00  0.00    +0.037 A 
ATOM      6  C   UNL     1       3.379  -0.353   0.193  0.00  0.00    +0.027 A 
ATOM      7  C   UNL     1       2.083  -0.308  -0.284  0.00  0.00    +0.051 A 
ATOM      8  C   UNL     1       1.042  -0.806   0.483  0.00  0.00    +0.166 A 
ATOM      9  C   UNL     1       1.302  -1.351   1.738  0.00  0.00    +0.168 A 
ATOM     10  C   UNL     1       2.602  -1.395   2.216  0.00  0.00    +0.072 A 
ATOM     11  O   UNL     1       0.123  -1.765   2.287  0.00  0.00    -0.453 OA
ATOM     12  C   UNL     1      -0.806  -1.842   1.190  0.00  0.00    +0.466 C 
ATOM     13  O   UNL     1      -0.301  -0.879   0.246  0.00  0.00    -0.453 OA
ENDBRANCH   3   5
BRANCH   1  14
ATOM     14  C   UNL     1       6.726  -1.950   3.328  0.00  0.00    +0.256 C 
ATOM     15  C   UNL     1       6.835  -0.786   4.315  0.00  0.00    +0.062 C 
BRANCH  14  16
ATOM     16  O   UNL     1       6.950  -3.181   4.018  0.00  0.00    -0.480 OA
BRANCH  16  20
ATOM     17  C   UNL     1      10.155  -6.545   5.513  0.00  0.00    +0.045 C 
ATOM     18  C   UNL     1       9.842  -5.201   4.908  0.00  0.00    -0.028 A 
ATOM     19  C   UNL     1       8.529  -4.808   4.741  0.00  0.00    +0.050 A 
ATOM     20  C   UNL     1       8.242  -3.570   4.184  0.00  0.00    +0.122 A 
ATOM     21  C   UNL     1       9.275  -2.732   3.791  0.00  0.00    +0.050 A 
ATOM     22  C   UNL     1      10.588  -3.127   3.965  0.00  0.00    -0.028 A 
ATOM     23  C   UNL     1      10.872  -4.361   4.521  0.00  0.00    +0.047 A 
ATOM     24 CL   UNL     1      12.522  -4.858   4.733  0.00  0.00    -0.083 Cl
ATOM     25  C   UNL     1      11.710  -2.214   3.544  0.00  0.00    +0.045 C 
ENDBRANCH  16  20
ENDBRANCH  14  16
ENDBRANCH   1  14
TORSDOF 4
