REMARK  Name = ZINC35714189
REMARK  14 active torsions:
REMARK  status: ('A' for Active; 'I' for Inactive)
REMARK    1  A    between atoms: C_1  and  C_2
REMARK    2  A    between atoms: C_5  and  S_26
REMARK    3  A    between atoms: C_7  and  C_8
REMARK    4  A    between atoms: C_8  and  O_10
REMARK    5  A    between atoms: O_10  and  C_11
REMARK    6  A    between atoms: C_11  and  C_13
REMARK    7  A    between atoms: C_11  and  C_14
REMARK    8  A    between atoms: N_16  and  C_17
REMARK    9  A    between atoms: C_23  and  C_25
REMARK   10  A    between atoms: S_26  and  N_29
REMARK   11  A    between atoms: N_29  and  C_30
REMARK   12  A    between atoms: C_30  and  C_31
REMARK   13  A    between atoms: C_30  and  C_32
REMARK   14  A    between atoms: C_30  and  C_33
REMARK                            x       y       z     vdW  Elec       q    Type
REMARK                         _______ _______ _______ _____ _____    ______ ____
ROOT
ATOM      1  C   UNL     1       0.378   1.486  -2.154  0.00  0.00    +0.044 C 
ATOM      2  C   UNL     1       0.770   0.214  -1.448  0.00  0.00    -0.036 A 
ATOM      3  C   UNL     1       0.231  -0.992  -1.845  0.00  0.00    +0.006 A 
ATOM      4  C   UNL     1       0.591  -2.161  -1.198  0.00  0.00    +0.029 A 
ATOM      5  C   UNL     1       1.492  -2.129  -0.148  0.00  0.00    +0.106 A 
ATOM      6  C   UNL     1       2.038  -0.930   0.260  0.00  0.00    +0.043 A 
ATOM      7  C   UNL     1       1.684   0.253  -0.393  0.00  0.00    +0.064 A 
ENDROOT
BRANCH   5   8
ATOM      8  S   UNL     1       1.942  -3.623   0.670  0.00  0.00    +0.059 S 
ATOM      9  O   UNL     1       2.153  -3.291   2.036  0.00  0.00    -0.153 OA
ATOM     10  O   UNL     1       1.002  -4.608   0.263  0.00  0.00    -0.153 OA
BRANCH   8  11
ATOM     11  N   UNL     1       3.410  -4.090   0.064  0.00  0.00    -0.185 NA
ATOM     12  H   UNL     1       4.191  -4.104   0.640  0.00  0.00    +0.149 HD
BRANCH  11  13
ATOM     13  C   UNL     1       3.531  -4.482  -1.342  0.00  0.00    +0.032 C 
ATOM     14  C   UNL     1       2.929  -3.390  -2.229  0.00  0.00    +0.029 C 
ATOM     15  C   UNL     1       5.009  -4.668  -1.694  0.00  0.00    +0.029 C 
ATOM     16  C   UNL     1       2.783  -5.796  -1.571  0.00  0.00    +0.029 C 
ENDBRANCH  11  13
ENDBRANCH   8  11
ENDBRANCH   5   8
BRANCH   7  17
ATOM     17  C   UNL     1       2.269   1.540   0.034  0.00  0.00    +0.340 C 
ATOM     18  O   UNL     1       2.042   2.551  -0.600  0.00  0.00    -0.245 OA
BRANCH  17  19
ATOM     19  O   UNL     1       3.055   1.593   1.127  0.00  0.00    -0.449 OA
BRANCH  19  20
ATOM     20  C   UNL     1       3.588   2.871   1.482  0.00  0.00    +0.259 C 
ATOM     21  C   UNL     1       2.619   3.581   2.430  0.00  0.00    +0.062 C 
BRANCH  20  22
ATOM     22  C   UNL     1       4.917   2.688   2.168  0.00  0.00    +0.254 C 
ATOM     23  O   UNL     1       5.365   1.574   2.335  0.00  0.00    -0.272 OA
ATOM     24  N   UNL     1       5.609   3.763   2.594  0.00  0.00    -0.309 N 
ATOM     25  H   UNL     1       5.251   4.655   2.460  0.00  0.00    +0.149 HD
BRANCH  24  26
ATOM     26  C   UNL     1       6.902   3.586   3.260  0.00  0.00    +0.076 C 
ATOM     27  C   UNL     1       6.676   3.323   4.750  0.00  0.00    +0.022 C 
ATOM     28  C   UNL     1       5.941   4.512   5.372  0.00  0.00    +0.002 C 
ATOM     29  C   UNL     1       6.782   5.779   5.199  0.00  0.00    +0.000 C 
ATOM     30  C   UNL     1       7.008   6.042   3.709  0.00  0.00    +0.005 C 
ATOM     31  C   UNL     1       7.743   4.852   3.087  0.00  0.00    +0.006 C 
ATOM     32  C   UNL     1       7.969   5.115   1.597  0.00  0.00    +0.009 C 
ENDBRANCH  24  26
ENDBRANCH  20  22
ENDBRANCH  19  20
ENDBRANCH  17  19
ENDBRANCH   7  17
TORSDOF 8
