REMARK  Name = ZINC02694685
REMARK  6 active torsions:
REMARK  status: ('A' for Active; 'I' for Inactive)
REMARK    1  A    between atoms: C_1  and  C_2
REMARK    2  A    between atoms: C_8  and  C_21
REMARK    3  A    between atoms: C_21  and  O_23
REMARK    4  A    between atoms: O_23  and  C_24
REMARK    5  A    between atoms: C_24  and  C_25
REMARK    6  A    between atoms: C_24  and  C_26
REMARK                            x       y       z     vdW  Elec       q    Type
REMARK                         _______ _______ _______ _____ _____    ______ ____
ROOT
ATOM      1  C   UNL     1      -1.328   2.139   0.020  0.00  0.00    +0.044 C 
ATOM      2  C   UNL     1      -0.017   1.396   0.010  0.00  0.00    -0.047 A 
ATOM      3  C   UNL     1       0.002  -0.004   0.002  0.00  0.00    +0.021 A 
ATOM      4  C   UNL     1       1.181  -0.670  -0.013  0.00  0.00    +0.092 A 
ATOM      5  N   UNL     1       2.363   0.005  -0.021  0.00  0.00    -0.312 N 
ATOM      6  C   UNL     1       2.372   1.370  -0.013  0.00  0.00    +0.062 A 
ATOM      7  C   UNL     1       1.165   2.081   0.002  0.00  0.00    +0.030 A 
ATOM      8  C   UNL     1       3.716   1.804  -0.024  0.00  0.00    +0.096 A 
ATOM      9  C   UNL     1       4.520   0.644  -0.038  0.00  0.00    +0.066 A 
ATOM     10  C   UNL     1       3.665  -0.454  -0.036  0.00  0.00    +0.106 A 
ATOM     11  C   UNL     1       4.211  -1.810  -0.049  0.00  0.00    +0.211 C 
ATOM     12  O   UNL     1       3.459  -2.768  -0.047  0.00  0.00    -0.285 OA
ATOM     13  C   UNL     1       5.675  -2.022  -0.066  0.00  0.00    +0.035 A 
ATOM     14  C   UNL     1       6.201  -3.310  -0.079  0.00  0.00    +0.012 A 
ATOM     15  C   UNL     1       7.573  -3.494  -0.094  0.00  0.00    +0.001 A 
ATOM     16  C   UNL     1       8.427  -2.406  -0.097  0.00  0.00    +0.001 A 
ATOM     17  C   UNL     1       7.920  -1.118  -0.084  0.00  0.00    +0.012 A 
ATOM     18  C   UNL     1       6.543  -0.917  -0.068  0.00  0.00    +0.033 A 
ATOM     19  C   UNL     1       5.985   0.452  -0.054  0.00  0.00    +0.197 C 
ATOM     20  O   UNL     1       6.727   1.414  -0.056  0.00  0.00    -0.287 OA
ENDROOT
BRANCH   8  21
ATOM     21  C   UNL     1       4.186   3.194  -0.021  0.00  0.00    +0.342 C 
ATOM     22  O   UNL     1       4.371   3.776  -1.073  0.00  0.00    -0.245 OA
BRANCH  21  23
ATOM     23  O   UNL     1       4.413   3.826   1.149  0.00  0.00    -0.458 OA
BRANCH  23  24
ATOM     24  C   UNL     1       4.877   5.200   1.076  0.00  0.00    +0.171 C 
ATOM     25  C   UNL     1       3.674   6.145   1.066  0.00  0.00    +0.052 C 
ATOM     26  C   UNL     1       5.756   5.506   2.290  0.00  0.00    +0.052 C 
ENDBRANCH  23  24
ENDBRANCH  21  23
ENDBRANCH   8  21
TORSDOF 3
