REMARK  Name = ZINC65946570
REMARK  2 active torsions:
REMARK  status: ('A' for Active; 'I' for Inactive)
REMARK    1  A    between atoms: C_8  and  C_11
REMARK    2  A    between atoms: C_21  and  N_23
REMARK                            x       y       z     vdW  Elec       q    Type
REMARK                         _______ _______ _______ _____ _____    ______ ____
ROOT
ATOM      1  C   UNL     1       3.834  -3.374  -0.239  0.00  0.00    +0.039 C 
ATOM      2  C   UNL     1       4.267  -3.514   1.222  0.00  0.00    +0.028 C 
ATOM      3  C   UNL     1       5.001  -4.845   1.409  0.00  0.00    +0.107 C 
ATOM      4  N   UNL     1       6.106  -4.915   0.443  0.00  0.00    -0.314 N 
ATOM      5  C   UNL     1       5.814  -4.705  -0.981  0.00  0.00    +0.107 C 
ATOM      6  C   UNL     1       5.071  -3.375  -1.141  0.00  0.00    +0.028 C 
ATOM      7  C   UNL     1       7.403  -5.175   0.869  0.00  0.00    +0.142 A 
ATOM      8  C   UNL     1       7.638  -5.590   2.178  0.00  0.00    +0.154 A 
ATOM      9  N   UNL     1       8.870  -5.837   2.582  0.00  0.00    -0.256 NA
ATOM     10  C   UNL     1       9.884  -5.692   1.748  0.00  0.00    +0.159 A 
ATOM     11  C   UNL     1       9.657  -5.279   0.441  0.00  0.00    +0.174 A 
ATOM     12  N   UNL     1       8.420  -5.034   0.029  0.00  0.00    -0.210 NA
ENDROOT
BRANCH   1  20
ATOM     13  C   UNL     1       0.317   1.549  -0.893  0.00  0.00    +0.001 A 
ATOM     14  C   UNL     1       1.539   2.186  -1.061  0.00  0.00    +0.002 A 
ATOM     15  C   UNL     1       2.717   1.474  -1.000  0.00  0.00    +0.026 A 
ATOM     16  C   UNL     1       2.684   0.103  -0.767  0.00  0.00    +0.047 A 
ATOM     17  C   UNL     1       1.444  -0.538  -0.597  0.00  0.00    -0.000 A 
ATOM     18  C   UNL     1       0.262   0.203  -0.663  0.00  0.00    +0.010 A 
ATOM     19  C   UNL     1       1.747  -1.954  -0.374  0.00  0.00    +0.031 A 
ATOM     20  C   UNL     1       3.082  -2.081  -0.419  0.00  0.00    +0.020 A 
ATOM     21  N   UNL     1       3.659  -0.863  -0.653  0.00  0.00    -0.358 N 
ATOM     22  H   UNL     1       4.613  -0.703  -0.727  0.00  0.00    +0.166 HD
ENDBRANCH   1  20
BRANCH  11  23
ATOM     23  N   UNL     1      10.731  -5.125  -0.441  0.00  0.00    -0.220 N 
ATOM     24  C   UNL     1      10.652  -4.725  -1.736  0.00  0.00    +0.116 A 
ATOM     25  C   UNL     1      11.909  -4.706  -2.236  0.00  0.00    +0.041 A 
ATOM     26  C   UNL     1      12.784  -5.106  -1.219  0.00  0.00    +0.135 A 
ATOM     27  N   UNL     1      12.081  -5.351  -0.144  0.00  0.00    -0.173 NA
ENDBRANCH  11  23
TORSDOF 2
