REMARK  Name = ZINC37004539
REMARK  4 active torsions:
REMARK  status: ('A' for Active; 'I' for Inactive)
REMARK    1  A    between atoms: C_3  and  C_6
REMARK    2  A    between atoms: C_6  and  C_8
REMARK    3  A    between atoms: C_6  and  N_13
REMARK    4  A    between atoms: C_14  and  C_16
REMARK                            x       y       z     vdW  Elec       q    Type
REMARK                         _______ _______ _______ _____ _____    ______ ____
ROOT
ATOM      1  N   UNL     1       4.587   1.010   0.851  0.00  0.00    -0.309 N 
ATOM      2  C   UNL     1       4.641   1.268   2.173  0.00  0.00    +0.199 C 
ATOM      3  O   UNL     1       4.007   2.191   2.638  0.00  0.00    -0.278 OA
ATOM      4  H   UNL     1       5.094   0.272   0.480  0.00  0.00    +0.149 HD
ENDROOT
BRANCH   2   5
ATOM      5  C   UNL     1       5.491   0.409   3.074  0.00  0.00    +0.016 C 
ATOM      6  C   UNL     1       6.950   0.484   2.620  0.00  0.00    -0.007 C 
ATOM      7  C   UNL     1       7.810  -0.391   3.538  0.00  0.00    -0.003 C 
ATOM      8  C   UNL     1       7.627   0.073   4.986  0.00  0.00    -0.019 C 
ATOM      9  C   UNL     1       6.143   0.014   5.352  0.00  0.00    -0.082 C 
ATOM     10  N   UNL     1       5.380   0.891   4.456  0.00  0.00    +0.387 N 
ATOM     11  H   UNL     1       5.744   1.830   4.514  0.00  0.00    -0.085 HD
ATOM     12  H   UNL     1       4.410   0.891   4.734  0.00  0.00    -0.085 HD
ENDBRANCH   2   5
BRANCH   1  13
ATOM     13  C   UNL     1       3.761   1.845  -0.024  0.00  0.00    +0.113 C 
BRANCH  13  16
ATOM     14  C   UNL     1      -0.016   1.351   0.009  0.00  0.00    +0.008 A 
ATOM     15  C   UNL     1       1.183   2.038   0.002  0.00  0.00    +0.013 A 
ATOM     16  C   UNL     1       2.343   1.336  -0.013  0.00  0.00    +0.010 A 
ATOM     17  S   UNL     1       1.754  -0.349  -0.017  0.00  0.00    -0.100 S 
ATOM     18  C   UNL     1       0.002  -0.004   0.002  0.00  0.00    +0.045 A 
ENDBRANCH  13  16
BRANCH  13  19
ATOM     19  C   UNL     1       4.312   1.789  -1.451  0.00  0.00    +0.014 C 
ATOM     20  C   UNL     1       4.357   0.328  -1.942  0.00  0.00    +0.006 C 
ATOM     21  C   UNL     1       5.655   0.251  -2.785  0.00  0.00    +0.000 C 
ATOM     22  C   UNL     1       6.636   1.143  -1.984  0.00  0.00    +0.000 C 
ATOM     23  C   UNL     1       5.760   2.307  -1.477  0.00  0.00    +0.006 C 
ENDBRANCH  13  19
ENDBRANCH   1  13
TORSDOF 4
