REMARK  Name = ZINC06931862
REMARK  5 active torsions:
REMARK  status: ('A' for Active; 'I' for Inactive)
REMARK    1  A    between atoms: C_1  and  C_2
REMARK    2  A    between atoms: C_7  and  N_12
REMARK    3  A    between atoms: C_9  and  C_11
REMARK    4  A    between atoms: N_15  and  C_16
REMARK    5  A    between atoms: N_18  and  C_27
REMARK                            x       y       z     vdW  Elec       q    Type
REMARK                         _______ _______ _______ _____ _____    ______ ____
ROOT
ATOM      1  N   UNL     1      -0.021   1.092   2.454  0.00  0.00    -0.296 N 
ATOM      2  C   UNL     1      -0.117   1.765   3.618  0.00  0.00    +0.304 C 
ATOM      3  O   UNL     1      -0.788   2.777   3.682  0.00  0.00    -0.253 OA
ATOM      4  N   UNL     1       0.531   1.317   4.711  0.00  0.00    -0.268 N 
ATOM      5  H   UNL     1       0.514   0.285   2.403  0.00  0.00    +0.151 HD
ATOM      6  H   UNL     1       1.010   0.474   4.679  0.00  0.00    +0.156 HD
ENDROOT
BRANCH   4   7
ATOM      7  C   UNL     1       0.512   2.068   5.896  0.00  0.00    +0.059 A 
ATOM      8  C   UNL     1       1.662   2.519   6.435  0.00  0.00    +0.112 A 
ATOM      9  N   UNL     1       1.690   3.260   7.586  0.00  0.00    -0.316 N 
ATOM     10  C   UNL     1       0.569   3.579   8.263  0.00  0.00    +0.259 A 
ATOM     11  O   UNL     1       0.635   4.237   9.286  0.00  0.00    -0.267 OA
ATOM     12  C   UNL     1      -0.731   3.128   7.755  0.00  0.00    +0.048 A 
ATOM     13  C   UNL     1      -0.760   2.367   6.564  0.00  0.00    +0.010 A 
ATOM     14  C   UNL     1      -1.981   1.923   6.057  0.00  0.00    +0.010 A 
ATOM     15  C   UNL     1      -3.139   2.228   6.718  0.00  0.00    +0.001 A 
ATOM     16  C   UNL     1      -3.116   2.975   7.888  0.00  0.00    +0.001 A 
ATOM     17  C   UNL     1      -1.925   3.427   8.412  0.00  0.00    +0.014 A 
ATOM     18  C   UNL     1       2.982   3.716   8.102  0.00  0.00    +0.152 C 
ENDBRANCH   4   7
BRANCH   1  24
ATOM     19  C   UNL     1      -0.036   1.085  -2.490  0.00  0.00    +0.008 C 
ATOM     20  C   UNL     1      -0.749   1.587  -1.233  0.00  0.00    -0.009 C 
ATOM     21  C   UNL     1      -2.188   1.069  -1.221  0.00  0.00    +0.003 C 
ATOM     22  C   UNL     1      -2.901   1.571   0.036  0.00  0.00    +0.002 C 
ATOM     23  C   UNL     1      -2.165   1.062   1.278  0.00  0.00    +0.022 C 
ATOM     24  C   UNL     1      -0.726   1.580   1.266  0.00  0.00    +0.078 C 
ATOM     25  C   UNL     1      -0.013   1.078   0.008  0.00  0.00    +0.009 C 
ATOM     26  C   UNL     1       1.427   1.596  -0.003  0.00  0.00    +0.009 C 
ENDBRANCH   1  24
TORSDOF 2
