REMARK  Name = ZINC11898436
REMARK  8 active torsions:
REMARK  status: ('A' for Active; 'I' for Inactive)
REMARK    1  A    between atoms: C_1  and  N_2
REMARK    2  A    between atoms: C_6  and  C_7
REMARK    3  A    between atoms: C_7  and  C_9
REMARK    4  A    between atoms: C_7  and  N_59
REMARK    5  A    between atoms: C_9  and  N_10
REMARK    6  A    between atoms: C_11  and  C_13
REMARK    7  A    between atoms: N_15  and  C_16
REMARK    8  A    between atoms: C_19  and  C_22
REMARK                            x       y       z     vdW  Elec       q    Type
REMARK                         _______ _______ _______ _____ _____    ______ ____
ROOT
ATOM      1  C   UNL     1       3.602  -6.372  -0.518  0.00  0.00    +0.095 C 
ENDROOT
BRANCH   1   2
ATOM      2  N   UNL     1       3.544  -4.920  -0.331  0.00  0.00    -0.309 N 
ATOM      3  C   UNL     1       2.370  -4.271  -0.464  0.00  0.00    +0.299 C 
ATOM      4  O   UNL     1       1.362  -4.888  -0.739  0.00  0.00    -0.265 OA
ATOM      5  H   UNL     1       4.349  -4.427  -0.112  0.00  0.00    +0.149 HD
BRANCH   3   6
ATOM      6  C   UNL     1       2.310  -2.791  -0.273  0.00  0.00    +0.303 C 
ATOM      7  O   UNL     1       3.318  -2.173   0.002  0.00  0.00    -0.265 OA
ATOM      8  N   UNL     1       1.137  -2.141  -0.406  0.00  0.00    -0.278 N 
ATOM      9  H   UNL     1       0.318  -2.642  -0.540  0.00  0.00    +0.155 HD
BRANCH   8  10
ATOM     10  C   UNL     1       1.101  -0.745  -0.351  0.00  0.00    +0.034 A 
ATOM     11  C   UNL     1       2.146  -0.000  -0.884  0.00  0.00    +0.024 A 
ATOM     12  C   UNL     1       2.107   1.379  -0.828  0.00  0.00    +0.014 A 
ATOM     13  C   UNL     1       1.029   2.019  -0.242  0.00  0.00    +0.055 A 
ATOM     14  C   UNL     1      -0.012   1.280   0.289  0.00  0.00    +0.014 A 
ATOM     15  C   UNL     1       0.020  -0.099   0.237  0.00  0.00    +0.024 A 
BRANCH  13  16
ATOM     16  C   UNL     1       0.990   3.524  -0.183  0.00  0.00    +0.417 C 
ATOM     17  F   UNL     1       0.362   4.020  -1.331  0.00  0.00    -0.166 F 
ATOM     18  F   UNL     1       0.277   3.928   0.951  0.00  0.00    -0.166 F 
ATOM     19  F   UNL     1       2.296   4.022  -0.114  0.00  0.00    -0.166 F 
ENDBRANCH  13  16
ENDBRANCH   8  10
ENDBRANCH   3   6
ENDBRANCH   1   2
BRANCH   1  20
ATOM     20  C   UNL     1       5.061  -6.832  -0.484  0.00  0.00    -0.003 C 
BRANCH  20  30
ATOM     21  C   UNL     1       6.084  -4.822  -1.369  0.00  0.00    -0.073 C 
ATOM     22  C   UNL     1       7.135  -4.363  -2.380  0.00  0.00    +0.017 C 
ATOM     23  C   UNL     1       6.712  -4.750  -3.774  0.00  0.00    -0.048 A 
ATOM     24  C   UNL     1       7.331  -4.131  -4.849  0.00  0.00    +0.004 A 
ATOM     25  C   UNL     1       6.980  -4.463  -6.142  0.00  0.00    +0.000 A 
ATOM     26  C   UNL     1       6.004  -5.417  -6.366  0.00  0.00    +0.000 A 
ATOM     27  C   UNL     1       5.386  -6.032  -5.297  0.00  0.00    +0.002 A 
ATOM     28  C   UNL     1       5.737  -5.699  -3.997  0.00  0.00    -0.061 A 
ATOM     29  C   UNL     1       5.031  -6.394  -2.863  0.00  0.00    -0.042 C 
ATOM     30  N   UNL     1       5.809  -6.251  -1.621  0.00  0.00    +0.389 N 
ATOM     31  H   UNL     1       6.701  -6.750  -1.725  0.00  0.00    -0.080 HD
ENDBRANCH  20  30
BRANCH  20  37
ATOM     32  C   UNL     1       3.620  -8.852   1.376  0.00  0.00    +0.148 C 
ATOM     33  N   UNL     1       4.477  -9.213   0.244  0.00  0.00    -0.355 N 
ATOM     34  C   UNL     1       4.766 -10.483  -0.160  0.00  0.00    +0.085 A 
ATOM     35  C   UNL     1       5.588 -10.409  -1.227  0.00  0.00    +0.019 A 
ATOM     36  C   UNL     1       5.811  -9.044  -1.494  0.00  0.00    +0.021 A 
ATOM     37  C   UNL     1       5.116  -8.335  -0.580  0.00  0.00    +0.006 A 
ENDBRANCH  20  37
ENDBRANCH   1  20
TORSDOF 7
