REMARK  Name = ZINC00134652
REMARK  5 active torsions:
REMARK  status: ('A' for Active; 'I' for Inactive)
REMARK    1  A    between atoms: C_1  and  C_2
REMARK    2  A    between atoms: C_3  and  C_12
REMARK    3  A    between atoms: C_12  and  C_14
REMARK    4  A    between atoms: C_12  and  C_18
REMARK    5  A    between atoms: C_14  and  N_15
REMARK                            x       y       z     vdW  Elec       q    Type
REMARK                         _______ _______ _______ _____ _____    ______ ____
ROOT
ATOM      1  C   UNL     1      -1.006  -0.798  -0.024  0.00  0.00    +0.077 C 
ENDROOT
BRANCH   1   4
ATOM      2  C   UNL     1      -1.385   0.450  -2.841  0.00  0.00    +0.063 C 
ATOM      3  C   UNL     1      -1.472  -1.019  -2.517  0.00  0.00    +0.018 A 
ATOM      4  C   UNL     1      -1.306  -1.550  -1.295  0.00  0.00    -0.010 A 
ATOM      5  C   UNL     1      -1.479  -2.998  -1.431  0.00  0.00    +0.004 A 
ATOM      6  C   UNL     1      -1.432  -4.069  -0.536  0.00  0.00    +0.010 A 
ATOM      7  C   UNL     1      -1.643  -5.341  -0.988  0.00  0.00    +0.001 A 
ATOM      8  C   UNL     1      -1.903  -5.578  -2.331  0.00  0.00    +0.002 A 
ATOM      9  C   UNL     1      -1.954  -4.536  -3.231  0.00  0.00    +0.026 A 
ATOM     10  C   UNL     1      -1.743  -3.233  -2.792  0.00  0.00    +0.047 A 
ATOM     11  N   UNL     1      -1.728  -2.010  -3.425  0.00  0.00    -0.358 N 
ATOM     12  H   UNL     1      -1.881  -1.871  -4.373  0.00  0.00    +0.166 HD
ENDBRANCH   1   4
BRANCH   1  13
ATOM     13  C   UNL     1       0.372  -1.167   0.464  0.00  0.00    -0.034 A 
ATOM     14  C   UNL     1       0.548  -2.295   1.243  0.00  0.00    +0.008 A 
ATOM     15  C   UNL     1       1.810  -2.638   1.693  0.00  0.00    +0.050 A 
ATOM     16  C   UNL     1       2.901  -1.850   1.363  0.00  0.00    +0.166 A 
ATOM     17  C   UNL     1       2.723  -0.713   0.580  0.00  0.00    +0.167 A 
ATOM     18  C   UNL     1       1.456  -0.376   0.132  0.00  0.00    +0.053 A 
ATOM     19  O   UNL     1       3.936  -0.116   0.396  0.00  0.00    -0.453 OA
ATOM     20  C   UNL     1       4.794  -0.667   1.412  0.00  0.00    +0.466 C 
ATOM     21  O   UNL     1       4.226  -1.964   1.672  0.00  0.00    -0.453 OA
ENDBRANCH   1  13
BRANCH   1  22
ATOM     22  C   UNL     1      -2.040  -1.165   1.042  0.00  0.00    +0.224 C 
BRANCH  22  23
ATOM     23  N   UNL     1      -1.820  -0.347   2.237  0.00  0.00    +0.023 N 
ATOM     24  O   UNL     1      -1.617   0.849   2.127  0.00  0.00    -0.132 OA
ATOM     25  O   UNL     1      -1.841  -0.862   3.340  0.00  0.00    -0.132 OA
ENDBRANCH  22  23
ENDBRANCH   1  22
TORSDOF 4
