REMARK  Name = ZINC28722010
REMARK  9 active torsions:
REMARK  status: ('A' for Active; 'I' for Inactive)
REMARK    1  A    between atoms: C_1  and  C_2
REMARK    2  A    between atoms: C_3  and  C_14
REMARK    3  A    between atoms: C_4  and  C_13
REMARK    4  A    between atoms: N_5  and  C_7
REMARK    5  A    between atoms: N_21  and  C_22
REMARK    6  A    between atoms: C_22  and  C_23
REMARK    7  A    between atoms: N_25  and  C_26
REMARK    8  A    between atoms: C_26  and  C_28
REMARK    9  A    between atoms: C_26  and  C_29
REMARK                            x       y       z     vdW  Elec       q    Type
REMARK                         _______ _______ _______ _____ _____    ______ ____
ROOT
ATOM      1  C   UNL     1      -5.058   1.341  -0.152  0.00  0.00    +0.054 C 
ATOM      2  C   UNL     1      -6.201   2.308  -0.279  0.00  0.00    +0.204 C 
ATOM      3  O   UNL     1      -7.328   1.904  -0.087  0.00  0.00    -0.277 OA
ATOM      4  N   UNL     1      -6.027   3.596  -0.594  0.00  0.00    -0.318 N 
ATOM      5  C   UNL     1      -4.710   4.189  -0.810  0.00  0.00    +0.085 C 
ATOM      6  C   UNL     1      -3.677   3.092  -1.069  0.00  0.00    -0.058 C 
ATOM      7  N   UNL     1      -3.793   2.074  -0.012  0.00  0.00    +0.397 N 
ATOM      8  H   UNL     1      -6.931   4.215  -0.690  0.00  0.00    +0.149 HD
ATOM      9  H   UNL     1      -3.791   2.581   0.964  0.00  0.00    -0.079 HD
ENDROOT
BRANCH   1  12
ATOM     10  C   UNL     1      -4.633   2.219   2.863  0.00  0.00    +0.068 C 
ATOM     11  C   UNL     1      -5.083   0.860   2.393  0.00  0.00    +0.063 A 
ATOM     12  C   UNL     1      -5.270   0.473   1.062  0.00  0.00    -0.009 A 
ATOM     13  C   UNL     1      -5.681  -0.817   1.056  0.00  0.00    +0.044 A 
ATOM     14  N   UNL     1      -5.743  -1.234   2.341  0.00  0.00    -0.237 N 
ATOM     15  N   UNL     1      -5.366  -0.162   3.160  0.00  0.00    -0.171 NA
ATOM     16  C   UNL     1      -6.007  -1.641  -0.163  0.00  0.00    +0.066 C 
BRANCH  14  17
ATOM     17  C   UNL     1      -6.123  -2.511   2.776  0.00  0.00    +0.066 A 
ATOM     18  C   UNL     1      -6.958  -2.651   3.876  0.00  0.00    +0.028 A 
ATOM     19  C   UNL     1      -7.335  -3.911   4.300  0.00  0.00    +0.002 A 
ATOM     20  C   UNL     1      -6.872  -5.032   3.636  0.00  0.00    +0.000 A 
ATOM     21  C   UNL     1      -6.036  -4.896   2.543  0.00  0.00    +0.002 A 
ATOM     22  C   UNL     1      -5.660  -3.639   2.111  0.00  0.00    +0.028 A 
ENDBRANCH  14  17
ENDBRANCH   1  12
BRANCH   7  23
ATOM     23  C   UNL     1      -2.647   1.156  -0.037  0.00  0.00    +0.020 C 
BRANCH  23  24
ATOM     24  C   UNL     1      -2.548   0.512  -1.396  0.00  0.00    +0.197 C 
ATOM     25  O   UNL     1      -3.410   0.712  -2.226  0.00  0.00    -0.278 OA
ATOM     26  N   UNL     1      -1.503  -0.286  -1.690  0.00  0.00    -0.310 N 
ATOM     27  H   UNL     1      -0.719  -0.464  -0.939  0.00  0.00    +0.149 HD
BRANCH  26  28
ATOM     28  C   UNL     1      -1.410  -0.917  -3.009  0.00  0.00    +0.100 C 
ATOM     29  C   UNL     1      -0.750   0.052  -3.992  0.00  0.00    +0.033 C 
BRANCH  28  30
ATOM     30  C   UNL     1      -0.582  -2.172  -2.909  0.00  0.00    -0.027 A 
ATOM     31  C   UNL     1       0.550  -2.195  -2.116  0.00  0.00    +0.006 A 
ATOM     32  C   UNL     1       1.304  -3.347  -2.031  0.00  0.00    +0.004 A 
ATOM     33  C   UNL     1       0.934  -4.486  -2.734  0.00  0.00    -0.044 A 
ATOM     34  C   UNL     1      -0.196  -4.465  -3.521  0.00  0.00    -0.044 A 
ATOM     35  C   UNL     1      -0.955  -3.304  -3.603  0.00  0.00    +0.009 A 
ATOM     36  C   UNL     1      -0.661  -5.664  -4.304  0.00  0.00    +0.035 C 
ATOM     37  C   UNL     1       0.469  -6.681  -4.451  0.00  0.00    +0.005 C 
ATOM     38  C   UNL     1       1.057  -6.955  -3.062  0.00  0.00    +0.005 C 
ATOM     39  C   UNL     1       1.806  -5.707  -2.601  0.00  0.00    +0.035 C 
ENDBRANCH  28  30
ENDBRANCH  26  28
ENDBRANCH  23  24
ENDBRANCH   7  23
TORSDOF 6
