REMARK  Name = ZINC39711102
REMARK  10 active torsions:
REMARK  status: ('A' for Active; 'I' for Inactive)
REMARK    1  A    between atoms: C_1  and  C_2
REMARK    2  A    between atoms: C_5  and  C_42
REMARK    3  A    between atoms: C_10  and  C_14
REMARK    4  A    between atoms: C_14  and  C_16
REMARK    5  A    between atoms: C_14  and  N_28
REMARK    6  A    between atoms: N_21  and  C_22
REMARK    7  A    between atoms: N_28  and  C_29
REMARK    8  A    between atoms: N_28  and  C_36
REMARK    9  A    between atoms: C_29  and  C_30
REMARK   10  A    between atoms: C_36  and  C_37
REMARK                            x       y       z     vdW  Elec       q    Type
REMARK                         _______ _______ _______ _____ _____    ______ ____
ROOT
ATOM      1  C   UNL     1       1.801  -0.329   5.565  0.00  0.00    -0.010 C 
ENDROOT
BRANCH   1  11
ATOM      2  C   UNL     1      -2.293  -2.690   3.554  0.00  0.00    +0.044 C 
ATOM      3  C   UNL     1      -2.564  -2.023   4.878  0.00  0.00    -0.042 A 
ATOM      4  C   UNL     1      -3.683  -2.322   5.587  0.00  0.00    +0.004 A 
ATOM      5  C   UNL     1      -3.950  -1.716   6.814  0.00  0.00    +0.005 A 
ATOM      6  C   UNL     1      -3.119  -0.797   7.374  0.00  0.00    -0.029 A 
ATOM      7  C   UNL     1      -1.932  -0.416   6.721  0.00  0.00    +0.043 A 
ATOM      8  N   UNL     1      -1.125   0.485   7.280  0.00  0.00    -0.284 N 
ATOM      9  C   UNL     1       0.004   0.888   6.721  0.00  0.00    +0.223 C 
ATOM     10  O   UNL     1       0.701   1.714   7.279  0.00  0.00    -0.275 OA
ATOM     11  C   UNL     1       0.426   0.317   5.386  0.00  0.00    +0.088 C 
ATOM     12  C   UNL     1      -0.489  -0.709   4.747  0.00  0.00    -0.006 C 
ATOM     13  C   UNL     1      -1.622  -1.046   5.426  0.00  0.00    -0.004 A 
ATOM     14  C   UNL     1      -3.472  -0.182   8.703  0.00  0.00    +0.045 C 
ATOM     15  H   UNL     1      -1.378   0.864   8.136  0.00  0.00    +0.155 HD
ENDBRANCH   1  11
BRANCH   1  16
ATOM     16  C   UNL     1       2.254  -0.941   4.238  0.00  0.00    +0.183 C 
ATOM     17  N   UNL     1       3.660  -1.379   4.318  0.00  0.00    -0.229 N 
ATOM     18  N   UNL     1       4.350  -0.626   3.360  0.00  0.00    -0.064 NA
ATOM     19  N   UNL     1       3.619   0.150   2.752  0.00  0.00    -0.061 NA
ATOM     20  N   UNL     1       2.282   0.080   3.174  0.00  0.00    -0.213 N 
ATOM     21  H   UNL     1       4.031  -2.050   4.912  0.00  0.00    +0.172 HD
BRANCH  20  22
ATOM     22  C   UNL     1       1.149   0.858   2.667  0.00  0.00    +0.096 C 
ATOM     23  C   UNL     1       1.393   2.345   2.931  0.00  0.00    +0.024 C 
ATOM     24  C   UNL     1       0.209   3.158   2.401  0.00  0.00    +0.002 C 
ATOM     25  C   UNL     1       0.064   2.924   0.896  0.00  0.00    +0.000 C 
ATOM     26  C   UNL     1      -0.179   1.437   0.631  0.00  0.00    +0.002 C 
ATOM     27  C   UNL     1       1.004   0.625   1.162  0.00  0.00    +0.024 C 
ENDBRANCH  20  22
ENDBRANCH   1  16
BRANCH   1  28
ATOM     28  N   UNL     1       1.719  -1.381   6.587  0.00  0.00    +0.392 N 
ATOM     29  H   UNL     1       1.006  -1.141   7.260  0.00  0.00    -0.080 HD
BRANCH  28  30
ATOM     30  C   UNL     1       1.379  -2.659   5.948  0.00  0.00    -0.040 C 
BRANCH  30  31
ATOM     31  C   UNL     1       1.140  -3.703   7.009  0.00  0.00    -0.046 A 
ATOM     32  C   UNL     1       2.189  -4.479   7.478  0.00  0.00    +0.005 A 
ATOM     33  C   UNL     1       1.923  -5.428   8.454  0.00  0.00    +0.020 A 
ATOM     34  C   UNL     1       0.631  -5.566   8.923  0.00  0.00    +0.111 A 
ATOM     35  N   UNL     1      -0.342  -4.811   8.454  0.00  0.00    -0.263 NA
ATOM     36  C   UNL     1      -0.125  -3.895   7.530  0.00  0.00    +0.112 A 
ENDBRANCH  30  31
ENDBRANCH  28  30
BRANCH  28  37
ATOM     37  C   UNL     1       3.014  -1.504   7.269  0.00  0.00    -0.002 C 
BRANCH  37  38
ATOM     38  C   UNL     1       3.324  -0.219   7.994  0.00  0.00    +0.089 A 
ATOM     39  C   UNL     1       3.029   0.050   9.278  0.00  0.00    +0.042 A 
ATOM     40  C   UNL     1       3.496   1.358   9.541  0.00  0.00    +0.041 A 
ATOM     41  C   UNL     1       4.050   1.810   8.401  0.00  0.00    +0.195 A 
ATOM     42  O   UNL     1       3.948   0.848   7.469  0.00  0.00    -0.470 OA
ENDBRANCH  37  38
ENDBRANCH  28  37
ENDBRANCH   1  28
TORSDOF 8
