REMARK  Name = ZINC16153567
REMARK  7 active torsions:
REMARK  status: ('A' for Active; 'I' for Inactive)
REMARK    1  A    between atoms: C_1  and  C_2
REMARK    2  A    between atoms: C_5  and  N_21
REMARK    3  A    between atoms: C_7  and  S_8
REMARK    4  A    between atoms: S_8  and  N_11
REMARK    5  A    between atoms: N_11  and  C_12
REMARK    6  A    between atoms: C_17  and  C_18
REMARK    7  A    between atoms: C_18  and  C_20
REMARK                            x       y       z     vdW  Elec       q    Type
REMARK                         _______ _______ _______ _____ _____    ______ ____
ROOT
ATOM      1  S   UNL     1      -0.101   1.603  -0.086  0.00  0.00    +0.073 S 
ATOM      2  O   UNL     1       0.172   0.217  -0.236  0.00  0.00    -0.150 OA
ATOM      3  O   UNL     1       0.903   2.598  -0.241  0.00  0.00    -0.150 OA
ENDROOT
BRANCH   1  10
ATOM      4  C   UNL     1      -1.278   4.366  -0.447  0.00  0.00    +0.046 C 
ATOM      5  C   UNL     1      -1.852   3.288  -1.329  0.00  0.00    -0.024 A 
ATOM      6  C   UNL     1      -2.854   3.594  -2.231  0.00  0.00    +0.007 A 
ATOM      7  C   UNL     1      -3.381   2.605  -3.040  0.00  0.00    +0.033 A 
ATOM      8  C   UNL     1      -2.906   1.310  -2.947  0.00  0.00    +0.128 A 
ATOM      9  C   UNL     1      -1.901   1.005  -2.049  0.00  0.00    +0.061 A 
ATOM     10  C   UNL     1      -1.378   1.993  -1.236  0.00  0.00    +0.114 A 
BRANCH   8  11
ATOM     11  N   UNL     1      -3.470   0.251  -3.814  0.00  0.00    +0.056 N 
ATOM     12  O   UNL     1      -4.353   0.520  -4.609  0.00  0.00    -0.126 OA
ATOM     13  O   UNL     1      -3.052  -0.890  -3.732  0.00  0.00    -0.126 OA
ENDBRANCH   8  11
ENDBRANCH   1  10
BRANCH   1  14
ATOM     14  N   UNL     1      -0.732   1.800   1.432  0.00  0.00    -0.216 N 
ATOM     15  H   UNL     1      -0.332   2.437   2.045  0.00  0.00    +0.174 HD
BRANCH  14  16
ATOM     16  C   UNL     1      -1.832   1.054   1.828  0.00  0.00    +0.058 A 
ATOM     17  C   UNL     1      -1.977  -0.259   1.397  0.00  0.00    +0.025 A 
ATOM     18  C   UNL     1      -3.070  -1.001   1.796  0.00  0.00    +0.002 A 
ATOM     19  C   UNL     1      -4.036  -0.444   2.620  0.00  0.00    +0.001 A 
ATOM     20  C   UNL     1      -3.914   0.857   3.055  0.00  0.00    +0.013 A 
ATOM     21  C   UNL     1      -2.809   1.623   2.664  0.00  0.00    +0.039 A 
BRANCH  21  22
ATOM     22  C   UNL     1      -2.673   3.010   3.122  0.00  0.00    +0.162 C 
ATOM     23  O   UNL     1      -1.714   3.670   2.780  0.00  0.00    -0.292 OA
ATOM     24  C   UNL     1      -3.723   3.614   4.017  0.00  0.00    +0.091 C 
ENDBRANCH  21  22
ENDBRANCH  14  16
ENDBRANCH   1  14
TORSDOF 5
