REMARK  Name = ZINC42438879
REMARK  6 active torsions:
REMARK  status: ('A' for Active; 'I' for Inactive)
REMARK    1  A    between atoms: C_1  and  C_2
REMARK    2  A    between atoms: C_3  and  C_20
REMARK    3  A    between atoms: C_7  and  C_8
REMARK    4  A    between atoms: N_10  and  C_11
REMARK    5  A    between atoms: N_10  and  C_15
REMARK    6  A    between atoms: C_11  and  C_12
REMARK                            x       y       z     vdW  Elec       q    Type
REMARK                         _______ _______ _______ _____ _____    ______ ____
ROOT
ATOM      1  C   UNL     1       2.401  -0.398  -1.310  0.00  0.00    +0.047 C 
ATOM      2  C   UNL     1       1.159  -0.913  -0.630  0.00  0.00    -0.007 A 
ATOM      3  C   UNL     1      -0.101  -0.630  -1.131  0.00  0.00    +0.065 A 
ATOM      4  N   UNL     1      -1.176  -1.090  -0.522  0.00  0.00    -0.152 NA
ATOM      5  N   UNL     1      -1.117  -1.807   0.540  0.00  0.00    -0.133 NA
ATOM      6  C   UNL     1       0.035  -2.138   1.105  0.00  0.00    +0.162 A 
ATOM      7  C   UNL     1       1.242  -1.699   0.527  0.00  0.00    +0.098 A 
ATOM      8  N   UNL     1       0.053  -2.913   2.253  0.00  0.00    -0.301 N 
ATOM      9  C   UNL     1      -0.243   0.207  -2.376  0.00  0.00    +0.068 C 
ENDROOT
BRANCH   8  10
ATOM     10  C   UNL     1      -0.037  -4.372   2.152  0.00  0.00    +0.075 C 
ATOM     11  C   UNL     1       1.106  -4.912   1.268  0.00  0.00    +0.022 C 
ATOM     12  C   UNL     1       0.458  -6.079   0.481  0.00  0.00    +0.002 C 
ATOM     13  C   UNL     1      -0.965  -5.543   0.185  0.00  0.00    +0.002 C 
ATOM     14  C   UNL     1      -1.353  -4.773   1.464  0.00  0.00    +0.022 C 
ENDBRANCH   8  10
BRANCH   7  15
ATOM     15  C   UNL     1       2.508  -2.040   1.103  0.00  0.00    +0.103 C 
ATOM     16  N   UNL     1       3.512  -2.310   1.560  0.00  0.00    -0.191 NA
ENDBRANCH   7  15
BRANCH   8  17
ATOM     17  C   UNL     1       0.161  -2.274   3.567  0.00  0.00    +0.202 C 
BRANCH  17  18
ATOM     18  C   UNL     1      -1.217  -2.083   4.147  0.00  0.00    +0.228 C 
ATOM     19  O   UNL     1      -2.193  -2.445   3.525  0.00  0.00    -0.274 OA
ATOM     20  N   UNL     1      -1.364  -1.511   5.358  0.00  0.00    -0.328 N 
ATOM     21  H   UNL     1      -0.584  -1.221   5.856  0.00  0.00    +0.145 HD
ATOM     22  H   UNL     1      -2.251  -1.388   5.732  0.00  0.00    +0.145 HD
ENDBRANCH  17  18
ENDBRANCH   8  17
TORSDOF 4
