REMARK  Name = ZINC32975285
REMARK  4 active torsions:
REMARK  status: ('A' for Active; 'I' for Inactive)
REMARK    1  A    between atoms: C_1  and  C_2
REMARK    2  A    between atoms: N_5  and  C_8
REMARK    3  A    between atoms: C_11  and  C_14
REMARK    4  A    between atoms: C_16  and  C_19
REMARK                            x       y       z     vdW  Elec       q    Type
REMARK                         _______ _______ _______ _____ _____    ______ ____
ROOT
ATOM      1  C   UNL     1      -6.165   6.919   5.160  0.00  0.00    +0.030 A 
ATOM      2  C   UNL     1      -6.514   5.576   5.250  0.00  0.00    +0.024 A 
ATOM      3  C   UNL     1      -5.799   4.628   4.550  0.00  0.00    +0.013 A 
ATOM      4  C   UNL     1      -4.725   5.017   3.751  0.00  0.00    +0.023 A 
ATOM      5  C   UNL     1      -4.373   6.364   3.667  0.00  0.00    +0.013 A 
ATOM      6  C   UNL     1      -5.093   7.309   4.364  0.00  0.00    +0.024 A 
ENDROOT
BRANCH   1  11
ATOM      7  C   UNL     1      -9.314  11.148   7.170  0.00  0.00    +0.007 C 
ATOM      8  C   UNL     1      -8.578  10.191   6.229  0.00  0.00    -0.011 C 
ATOM      9  C   UNL     1      -7.078  10.226   6.535  0.00  0.00    +0.022 C 
ATOM     10  C   UNL     1      -6.355   9.223   5.633  0.00  0.00    +0.105 C 
ATOM     11  N   UNL     1      -6.890   7.876   5.869  0.00  0.00    -0.330 N 
ATOM     12  C   UNL     1      -8.319   7.806   5.537  0.00  0.00    +0.105 C 
ATOM     13  C   UNL     1      -9.100   8.767   6.437  0.00  0.00    +0.022 C 
ENDBRANCH   1  11
BRANCH   4  14
ATOM     14  C   UNL     1      -3.954   3.999   2.997  0.00  0.00    +0.202 A 
ATOM     15  N   UNL     1      -2.894   4.230   2.189  0.00  0.00    -0.189 NA
ATOM     16  C   UNL     1      -2.533   3.055   1.738  0.00  0.00    +0.257 A 
ATOM     17  O   UNL     1      -3.367   2.156   2.268  0.00  0.00    -0.335 OA
ATOM     18  N   UNL     1      -4.170   2.709   2.990  0.00  0.00    -0.056 NA
BRANCH  16  19
ATOM     19  C   UNL     1      -1.394   2.771   0.793  0.00  0.00    +0.206 C 
ATOM     20  C   UNL     1      -1.928   2.453  -0.626  0.00  0.00    +0.043 C 
ATOM     21  C   UNL     1      -0.778   1.606  -1.224  0.00  0.00    +0.031 C 
ATOM     22  C   UNL     1      -0.013   1.086   0.008  0.00  0.00    +0.161 C 
ATOM     23  O   UNL     1      -0.705   1.559   1.176  0.00  0.00    -0.367 OA
ENDBRANCH  16  19
ENDBRANCH   4  14
TORSDOF 3
