REMARK  Name = ZINC38744420
REMARK  5 active torsions:
REMARK  status: ('A' for Active; 'I' for Inactive)
REMARK    1  A    between atoms: C_1  and  C_2
REMARK    2  A    between atoms: C_2  and  C_3
REMARK    3  A    between atoms: C_2  and  C_4
REMARK    4  A    between atoms: C_6  and  C_10
REMARK    5  A    between atoms: C_14  and  C_19
REMARK                            x       y       z     vdW  Elec       q    Type
REMARK                         _______ _______ _______ _____ _____    ______ ____
ROOT
ATOM      1  C   UNL     1      -4.371  -0.991  -1.469  0.00  0.00    +0.182 C 
ATOM      2  N   UNL     1      -5.767  -1.114  -0.971  0.00  0.00    -0.265 N 
ATOM      3  N   UNL     1      -6.228  -0.036  -0.277  0.00  0.00    -0.220 N 
ATOM      4  C   UNL     1      -7.237   0.232   0.643  0.00  0.00    +0.182 A 
ATOM      5  N   UNL     1      -7.200   1.514   0.913  0.00  0.00    -0.127 NA
ATOM      6  N   UNL     1      -6.247   2.074   0.255  0.00  0.00    -0.120 NA
ATOM      7  C   UNL     1      -5.625   1.184  -0.457  0.00  0.00    +0.211 A 
ATOM      8  S   UNL     1      -4.282   0.850  -1.579  0.00  0.00    -0.058 S 
ATOM      9  H   UNL     1      -6.397  -1.359  -1.720  0.00  0.00    +0.168 HD
ENDROOT
BRANCH   4  10
ATOM     10  C   UNL     1      -8.180  -0.752   1.214  0.00  0.00    +0.021 A 
ATOM     11  C   UNL     1      -8.320  -2.011   0.627  0.00  0.00    +0.014 A 
ATOM     12  C   UNL     1      -9.201  -2.925   1.164  0.00  0.00    +0.039 A 
ATOM     13  C   UNL     1      -9.948  -2.597   2.284  0.00  0.00    +0.123 A 
ATOM     14  C   UNL     1      -9.814  -1.349   2.871  0.00  0.00    +0.039 A 
ATOM     15  C   UNL     1      -8.931  -0.428   2.346  0.00  0.00    +0.014 A 
ATOM     16  F   UNL     1     -10.810  -3.497   2.806  0.00  0.00    -0.205 F 
ENDBRANCH   4  10
BRANCH   1  19
ATOM     17  C   UNL     1      -1.412  -0.526   0.013  0.00  0.00    +0.064 C 
ATOM     18  C   UNL     1      -1.940  -1.303  -0.935  0.00  0.00    +0.029 C 
ATOM     19  C   UNL     1      -3.362  -1.543  -0.460  0.00  0.00    +0.185 C 
ATOM     20  N   UNL     1      -3.420  -0.792   0.805  0.00  0.00    -0.177 NA
ATOM     21  N   UNL     1      -2.315  -0.275   0.986  0.00  0.00    -0.158 NA
BRANCH  17  23
ATOM     22  C   UNL     1      -0.019   1.526   0.010  0.00  0.00    +0.014 C 
ATOM     23  C   UNL     1       0.002  -0.004   0.002  0.00  0.00    +0.033 C 
ATOM     24  C   UNL     1       0.742  -0.511   1.242  0.00  0.00    +0.014 C 
ENDBRANCH  17  23
ENDBRANCH   1  19
TORSDOF 3
