REMARK  Name = ZINC09138487
REMARK  8 active torsions:
REMARK  status: ('A' for Active; 'I' for Inactive)
REMARK    1  A    between atoms: C_1  and  N_2
REMARK    2  A    between atoms: C_10  and  C_12
REMARK    3  A    between atoms: C_12  and  C_14
REMARK    4  A    between atoms: C_12  and  N_65
REMARK    5  A    between atoms: C_14  and  N_15
REMARK    6  A    between atoms: C_16  and  C_18
REMARK    7  A    between atoms: N_20  and  C_21
REMARK    8  A    between atoms: C_26  and  N_27
REMARK                            x       y       z     vdW  Elec       q    Type
REMARK                         _______ _______ _______ _____ _____    ______ ____
ROOT
ATOM      1  C   UNL     1      -3.055  -1.641   0.151  0.00  0.00    -0.020 C 
ENDROOT
BRANCH   1  11
ATOM      2  C   UNL     1       1.161   3.049  -0.234  0.00  0.00    +0.129 C 
ATOM      3  N   UNL     1       1.555   1.636  -0.310  0.00  0.00    -0.333 N 
ATOM      4  C   UNL     1       2.629   1.339   0.639  0.00  0.00    +0.105 C 
ATOM      5  C   UNL     1       2.980  -0.150   0.534  0.00  0.00    +0.024 C 
ATOM      6  C   UNL     1       1.792  -0.953   1.071  0.00  0.00    +0.038 C 
ATOM      7  C   UNL     1       0.512  -0.428   0.470  0.00  0.00    -0.026 A 
ATOM      8  C   UNL     1       0.449   0.800  -0.164  0.00  0.00    +0.033 A 
ATOM      9  C   UNL     1      -0.767   1.236  -0.692  0.00  0.00    +0.023 A 
ATOM     10  C   UNL     1      -1.895   0.451  -0.588  0.00  0.00    +0.004 A 
ATOM     11  C   UNL     1      -1.825  -0.777   0.044  0.00  0.00    -0.059 A 
ATOM     12  C   UNL     1      -0.626  -1.213   0.571  0.00  0.00    +0.007 A 
ENDBRANCH   1  11
BRANCH   1  18
ATOM     13  C   UNL     1      -5.191  -1.475   1.280  0.00  0.00    -0.078 C 
ATOM     14  C   UNL     1      -6.326  -0.513   1.639  0.00  0.00    -0.019 C 
ATOM     15  C   UNL     1      -7.018  -0.047   0.355  0.00  0.00    -0.004 C 
ATOM     16  C   UNL     1      -5.984   0.616  -0.560  0.00  0.00    -0.019 C 
ATOM     17  C   UNL     1      -4.859  -0.379  -0.855  0.00  0.00    -0.078 C 
ATOM     18  N   UNL     1      -4.218  -0.770   0.418  0.00  0.00    +0.385 N 
ATOM     19  H   UNL     1      -3.897   0.076   0.903  0.00  0.00    -0.081 HD
ENDBRANCH   1  18
BRANCH   1  20
ATOM     20  C   UNL     1      -3.254  -2.411  -1.156  0.00  0.00    +0.094 C 
BRANCH  20  21
ATOM     21  N   UNL     1      -4.369  -3.350  -1.005  0.00  0.00    -0.309 N 
ATOM     22  C   UNL     1      -4.819  -4.038  -2.073  0.00  0.00    +0.299 C 
ATOM     23  O   UNL     1      -4.301  -3.880  -3.159  0.00  0.00    -0.265 OA
ATOM     24  H   UNL     1      -4.783  -3.476  -0.137  0.00  0.00    +0.149 HD
BRANCH  22  25
ATOM     25  C   UNL     1      -5.955  -4.995  -1.920  0.00  0.00    +0.303 C 
ATOM     26  O   UNL     1      -6.473  -5.153  -0.834  0.00  0.00    -0.265 OA
ATOM     27  N   UNL     1      -6.405  -5.684  -2.987  0.00  0.00    -0.276 N 
ATOM     28  H   UNL     1      -5.944  -5.616  -3.838  0.00  0.00    +0.155 HD
BRANCH  27  29
ATOM     29  C   UNL     1      -7.536  -6.495  -2.869  0.00  0.00    +0.064 A 
ATOM     30  C   UNL     1      -8.538  -6.165  -1.964  0.00  0.00    +0.025 A 
ATOM     31  C   UNL     1      -9.657  -6.967  -1.854  0.00  0.00    +0.002 A 
ATOM     32  C   UNL     1      -9.777  -8.102  -2.635  0.00  0.00    +0.002 A 
ATOM     33  C   UNL     1      -8.779  -8.436  -3.533  0.00  0.00    +0.034 A 
ATOM     34  C   UNL     1      -7.660  -7.636  -3.652  0.00  0.00    +0.147 A 
BRANCH  34  35
ATOM     35  N   UNL     1      -6.592  -7.994  -4.613  0.00  0.00    +0.058 N 
ATOM     36  O   UNL     1      -6.752  -8.925  -5.382  0.00  0.00    -0.126 OA
ATOM     37  O   UNL     1      -5.554  -7.357  -4.635  0.00  0.00    -0.126 OA
ENDBRANCH  34  35
ENDBRANCH  27  29
ENDBRANCH  22  25
ENDBRANCH  20  21
ENDBRANCH   1  20
TORSDOF 7
