REMARK  Name = ZINC64746554
REMARK  7 active torsions:
REMARK  status: ('A' for Active; 'I' for Inactive)
REMARK    1  A    between atoms: C_1  and  C_2
REMARK    2  A    between atoms: C_2  and  N_3
REMARK    3  A    between atoms: C_7  and  C_9
REMARK    4  A    between atoms: C_9  and  N_10
REMARK    5  A    between atoms: C_11  and  C_13
REMARK    6  A    between atoms: C_15  and  C_18
REMARK    7  A    between atoms: C_21  and  N_24
REMARK                            x       y       z     vdW  Elec       q    Type
REMARK                         _______ _______ _______ _____ _____    ______ ____
ROOT
ATOM      1  C   UNL     1      -1.396  -1.329  -4.963  0.00  0.00    +0.314 A 
ATOM      2  N   UNL     1      -1.759  -1.495  -6.210  0.00  0.00    -0.183 NA
ATOM      3  C   UNL     1      -1.164  -0.579  -6.988  0.00  0.00    +0.203 A 
ATOM      4  N   UNL     1      -0.409   0.187  -6.237  0.00  0.00    -0.055 NA
ATOM      5  O   UNL     1      -0.552  -0.285  -4.905  0.00  0.00    -0.328 OA
ENDROOT
BRANCH   3   6
ATOM      6  C   UNL     1      -1.331  -0.452  -8.457  0.00  0.00    +0.023 A 
ATOM      7  C   UNL     1      -2.171  -1.330  -9.142  0.00  0.00    +0.013 A 
ATOM      8  C   UNL     1      -2.325  -1.211 -10.506  0.00  0.00    +0.024 A 
ATOM      9  C   UNL     1      -1.644  -0.216 -11.199  0.00  0.00    +0.030 A 
ATOM     10  C   UNL     1      -0.806   0.659 -10.518  0.00  0.00    +0.024 A 
ATOM     11  C   UNL     1      -0.654   0.548  -9.153  0.00  0.00    +0.013 A 
BRANCH   9  12
ATOM     12  N   UNL     1      -1.802  -0.098 -12.580  0.00  0.00    -0.330 N 
ATOM     13  C   UNL     1      -0.979   0.854 -13.292  0.00  0.00    +0.105 C 
ATOM     14  C   UNL     1      -1.688   2.230 -13.328  0.00  0.00    +0.019 C 
ATOM     15  C   UNL     1      -2.848   2.183 -14.231  0.00  0.00    +0.002 C 
ATOM     16  C   UNL     1      -3.939   1.207 -13.803  0.00  0.00    +0.002 C 
ATOM     17  C   UNL     1      -3.604  -0.173 -14.314  0.00  0.00    +0.019 C 
ATOM     18  C   UNL     1      -2.797  -0.953 -13.255  0.00  0.00    +0.105 C 
ENDBRANCH   9  12
ENDBRANCH   3   6
BRANCH   1  20
ATOM     19  N   UNL     1      -1.399  -1.867  -2.571  0.00  0.00    -0.309 N 
ATOM     20  C   UNL     1      -1.845  -2.148  -3.812  0.00  0.00    +0.302 C 
ATOM     21  O   UNL     1      -2.615  -3.071  -3.986  0.00  0.00    -0.265 OA
ATOM     22  H   UNL     1      -0.784  -1.130  -2.432  0.00  0.00    +0.149 HD
BRANCH  19  23
ATOM     23  C   UNL     1      -1.842  -2.677  -1.433  0.00  0.00    +0.089 C 
BRANCH  23  28
ATOM     24  N   UNL     1      -1.484  -0.715   0.007  0.00  0.00    +0.382 N 
ATOM     25  C   UNL     1      -2.209  -0.519   1.281  0.00  0.00    -0.078 C 
ATOM     26  C   UNL     1      -2.876  -1.887   1.571  0.00  0.00    -0.020 C 
ATOM     27  C   UNL     1      -1.789  -2.877   1.074  0.00  0.00    -0.016 C 
ATOM     28  C   UNL     1      -1.193  -2.152  -0.151  0.00  0.00    -0.051 C 
ATOM     29  H   UNL     1      -2.058  -0.399  -0.760  0.00  0.00    -0.081 HD
BRANCH  24  31
ATOM     30  C   UNL     1      -0.536   1.542   0.071  0.00  0.00    -0.017 C 
ATOM     31  C   UNL     1      -0.227   0.044   0.032  0.00  0.00    -0.082 C 
ENDBRANCH  24  31
ENDBRANCH  23  28
ENDBRANCH  19  23
ENDBRANCH   1  20
TORSDOF 6
