REMARK  Name = ZINC09270248
REMARK  15 active torsions:
REMARK  status: ('A' for Active; 'I' for Inactive)
REMARK    1  A    between atoms: C_1  and  C_2
REMARK    2  A    between atoms: C_2  and  N_62
REMARK    3  A    between atoms: C_3  and  C_4
REMARK    4  A    between atoms: C_3  and  N_62
REMARK    5  A    between atoms: C_5  and  C_6
REMARK    6  A    between atoms: C_5  and  N_62
REMARK    7  A    between atoms: C_6  and  C_7
REMARK    8  A    between atoms: C_7  and  N_8
REMARK    9  A    between atoms: C_9  and  C_23
REMARK   10  A    between atoms: C_12  and  C_13
REMARK   11  A    between atoms: C_12  and  O_18
REMARK   12  A    between atoms: C_25  and  O_31
REMARK   13  A    between atoms: C_28  and  O_29
REMARK   14  A    between atoms: O_29  and  C_30
REMARK   15  A    between atoms: O_31  and  C_32
REMARK                            x       y       z     vdW  Elec       q    Type
REMARK                         _______ _______ _______ _____ _____    ______ ____
ROOT
ATOM      1  N   UNL     1      -0.370   1.260   1.792  0.00  0.00    -0.283 N 
ATOM      2  C   UNL     1       0.040   1.245   0.385  0.00  0.00    +0.148 C 
ATOM      3  C   UNL     1       1.458   1.765   0.343  0.00  0.00    +0.072 C 
ATOM      4  C   UNL     1       2.255   1.927  -0.782  0.00  0.00    +0.140 C 
ATOM      5  C   UNL     1       1.808   2.051   1.666  0.00  0.00    +0.249 C 
ATOM      6  O   UNL     1       2.880   2.493   2.042  0.00  0.00    -0.282 OA
ATOM      7  C   UNL     1       0.648   1.725   2.536  0.00  0.00    +0.288 C 
ATOM      8  O   UNL     1       0.624   1.858   3.743  0.00  0.00    -0.266 OA
ENDROOT
BRANCH   2   9
ATOM      9  C   UNL     1      -0.862   2.139  -0.426  0.00  0.00    +0.023 A 
ATOM     10  C   UNL     1      -1.542   3.174   0.187  0.00  0.00    +0.055 A 
ATOM     11  C   UNL     1      -2.368   3.999  -0.560  0.00  0.00    +0.121 A 
ATOM     12  C   UNL     1      -2.520   3.780  -1.921  0.00  0.00    +0.049 A 
ATOM     13  C   UNL     1      -1.844   2.743  -2.534  0.00  0.00    +0.049 A 
ATOM     14  C   UNL     1      -1.013   1.920  -1.787  0.00  0.00    +0.126 A 
BRANCH  14  15
ATOM     15  O   UNL     1      -0.348   0.899  -2.390  0.00  0.00    -0.495 OA
ATOM     16  C   UNL     1      -0.551   0.732  -3.795  0.00  0.00    +0.277 C 
ENDBRANCH  14  15
BRANCH  11  17
ATOM     17  O   UNL     1      -3.034   5.021   0.043  0.00  0.00    -0.495 OA
ATOM     18  C   UNL     1      -3.872   5.828  -0.787  0.00  0.00    +0.277 C 
ENDBRANCH  11  17
ENDBRANCH   2   9
BRANCH   4  19
ATOM     19  C   UNL     1       3.520   2.551  -0.671  0.00  0.00    +0.054 A 
ATOM     20  C   UNL     1       4.750   2.139  -1.178  0.00  0.00    +0.019 A 
ATOM     21  C   UNL     1       5.830   2.942  -0.919  0.00  0.00    +0.008 A 
ATOM     22  C   UNL     1       5.654   4.081  -0.194  0.00  0.00    +0.046 A 
ATOM     23  S   UNL     1       3.954   4.075   0.149  0.00  0.00    -0.094 S 
ENDBRANCH   4  19
BRANCH   4  24
ATOM     24  O   UNL     1       1.821   1.488  -1.985  0.00  0.00    -0.505 OA
ATOM     25  H   UNL     1       2.513   1.683  -2.680  0.00  0.00    +0.292 HD
ENDBRANCH   4  24
BRANCH   1  26
ATOM     26  C   UNL     1      -1.676   0.837   2.304  0.00  0.00    +0.107 C 
BRANCH  26  27
ATOM     27  C   UNL     1      -1.633  -0.655   2.641  0.00  0.00    +0.000 C 
BRANCH  27  28
ATOM     28  C   UNL     1      -2.997  -1.097   3.175  0.00  0.00    -0.077 C 
BRANCH  28  29
ATOM     29  N   UNL     1      -2.915  -2.520   3.564  0.00  0.00    +0.379 N 
ATOM     30  H   UNL     1      -2.396  -3.034   2.843  0.00  0.00    -0.082 HD
BRANCH  29  32
ATOM     31  C   UNL     1      -1.937  -4.133   5.121  0.00  0.00    -0.017 C 
ATOM     32  C   UNL     1      -2.204  -2.651   4.853  0.00  0.00    -0.082 C 
ENDBRANCH  29  32
BRANCH  29  33
ATOM     33  C   UNL     1      -4.274  -3.092   3.677  0.00  0.00    -0.082 C 
ATOM     34  C   UNL     1      -4.801  -3.381   2.270  0.00  0.00    -0.017 C 
ENDBRANCH  29  33
ENDBRANCH  28  29
ENDBRANCH  27  28
ENDBRANCH  26  27
ENDBRANCH   1  26
TORSDOF 11
