REMARK  Name = ZINC09546824
REMARK  6 active torsions:
REMARK  status: ('A' for Active; 'I' for Inactive)
REMARK    1  A    between atoms: C_1  and  C_2
REMARK    2  A    between atoms: C_2  and  N_3
REMARK    3  A    between atoms: N_3  and  C_4
REMARK    4  A    between atoms: C_12  and  C_14
REMARK    5  A    between atoms: C_14  and  C_16
REMARK    6  A    between atoms: C_14  and  C_17
REMARK                            x       y       z     vdW  Elec       q    Type
REMARK                         _______ _______ _______ _____ _____    ______ ____
ROOT
ATOM      1  C   UNL     1       1.126   2.529  -0.647  0.00  0.00    -0.034 A 
ATOM      2  C   UNL     1       1.667   3.633  -1.288  0.00  0.00    +0.005 A 
ATOM      3  C   UNL     1       3.034   3.772  -1.396  0.00  0.00    +0.011 A 
ATOM      4  C   UNL     1       3.873   2.800  -0.858  0.00  0.00    +0.007 A 
ATOM      5  C   UNL     1       5.338   2.645  -0.799  0.00  0.00    +0.009 A 
ATOM      6  C   UNL     1       6.402   3.416  -1.262  0.00  0.00    +0.030 A 
ATOM      7  C   UNL     1       7.697   2.995  -1.048  0.00  0.00    +0.042 A 
ATOM      8  C   UNL     1       7.943   1.807  -0.374  0.00  0.00    +0.022 A 
ATOM      9  C   UNL     1       6.899   1.036   0.089  0.00  0.00    +0.027 A 
ATOM     10  C   UNL     1       5.585   1.444  -0.118  0.00  0.00    +0.048 A 
ATOM     11  N   UNL     1       4.368   0.881   0.228  0.00  0.00    -0.354 N 
ATOM     12  H   UNL     1       4.261   0.045   0.708  0.00  0.00    +0.166 HD
ATOM     13  C   UNL     1       3.328   1.682  -0.209  0.00  0.00    +0.048 A 
ATOM     14  C   UNL     1       1.946   1.562  -0.105  0.00  0.00    +0.030 A 
ATOM     15 CL   UNL     1       9.026   3.953  -1.624  0.00  0.00    -0.084 Cl
ENDROOT
BRANCH   1  16
ATOM     16  C   UNL     1      -0.370   2.388  -0.536  0.00  0.00    +0.102 C 
ATOM     17  C   UNL     1      -0.939   3.582   0.232  0.00  0.00    +0.022 C 
BRANCH  16  19
ATOM     18  N   UNL     1      -2.128   1.680  -2.125  0.00  0.00    -0.297 N 
ATOM     19  C   UNL     1      -0.974   2.344  -1.916  0.00  0.00    +0.223 C 
ATOM     20  O   UNL     1      -0.421   2.906  -2.838  0.00  0.00    -0.275 OA
BRANCH  18  21
ATOM     21  C   UNL     1      -2.668   1.560  -3.482  0.00  0.00    +0.098 C 
ATOM     22  C   UNL     1      -2.827   0.073  -3.839  0.00  0.00    +0.046 C 
ATOM     23  C   UNL     1      -3.682  -0.026  -5.135  0.00  0.00    +0.168 C 
ATOM     24  S   UNL     1      -4.949   1.269  -4.802  0.00  0.00    -0.029 S 
ATOM     25  O   UNL     1      -6.076   0.665  -4.181  0.00  0.00    -0.174 OA
ATOM     26  O   UNL     1      -5.132   2.050  -5.975  0.00  0.00    -0.174 OA
ATOM     27  C   UNL     1      -4.043   2.269  -3.552  0.00  0.00    +0.188 C 
ENDBRANCH  18  21
BRANCH  18  29
ATOM     28  C   UNL     1      -2.267  -0.309  -0.710  0.00  0.00    +0.024 C 
ATOM     29  C   UNL     1      -2.843   1.079  -0.997  0.00  0.00    +0.105 C 
ENDBRANCH  18  29
ENDBRANCH  16  19
ENDBRANCH   1  16
TORSDOF 4
