REMARK  Name = ZINC51262582
REMARK  7 active torsions:
REMARK  status: ('A' for Active; 'I' for Inactive)
REMARK    1  A    between atoms: C_1  and  C_2
REMARK    2  A    between atoms: C_4  and  C_29
REMARK    3  A    between atoms: C_6  and  C_8
REMARK    4  A    between atoms: C_10  and  C_11
REMARK    5  A    between atoms: C_10  and  C_13
REMARK    6  A    between atoms: N_15  and  C_16
REMARK    7  A    between atoms: C_21  and  N_22
REMARK                            x       y       z     vdW  Elec       q    Type
REMARK                         _______ _______ _______ _____ _____    ______ ____
ROOT
ATOM      1  C   UNL     1       0.298  -2.880   4.918  0.00  0.00    +0.262 C 
ATOM      2  O   UNL     1       0.377  -4.094   4.881  0.00  0.00    -0.269 OA
ATOM      3  N   UNL     1       0.344  -2.237   6.101  0.00  0.00    -0.279 N 
ATOM      4  H   UNL     1       0.209  -1.277   6.137  0.00  0.00    +0.155 HD
ENDROOT
BRANCH   3   5
ATOM      5  C   UNL     1       0.586  -2.955   7.279  0.00  0.00    +0.068 A 
ATOM      6  C   UNL     1       0.026  -4.213   7.453  0.00  0.00    +0.075 A 
ATOM      7  C   UNL     1       0.267  -4.924   8.618  0.00  0.00    +0.164 A 
ATOM      8  C   UNL     1       1.071  -4.376   9.611  0.00  0.00    +0.164 A 
ATOM      9  C   UNL     1       1.627  -3.118   9.434  0.00  0.00    +0.084 A 
ATOM     10  C   UNL     1       1.391  -2.412   8.271  0.00  0.00    +0.151 A 
ATOM     11  O   UNL     1       1.325  -5.063  10.759  0.00  0.00    -0.485 OA
ATOM     12  C   UNL     1       0.453  -6.157  11.062  0.00  0.00    +0.270 C 
ATOM     13  C   UNL     1       0.274  -6.994   9.789  0.00  0.00    +0.270 C 
ATOM     14  O   UNL     1      -0.292  -6.155   8.776  0.00  0.00    -0.485 OA
BRANCH  10  15
ATOM     15  N   UNL     1       1.992  -1.072   8.084  0.00  0.00    +0.058 N 
ATOM     16  O   UNL     1       2.751  -0.628   8.914  0.00  0.00    -0.126 OA
ATOM     17  O   UNL     1       1.724  -0.421   7.101  0.00  0.00    -0.126 OA
ENDBRANCH  10  15
ENDBRANCH   3   5
BRANCH   1  20
ATOM     18  C   UNL     1       0.107  -2.779   2.454  0.00  0.00    +0.208 C 
ATOM     19  O   UNL     1       0.094  -4.128   2.419  0.00  0.00    -0.286 OA
ATOM     20  C   UNL     1       0.154  -2.117   3.674  0.00  0.00    +0.161 C 
BRANCH  18  26
ATOM     21  C   UNL     1       1.912   0.876  -0.418  0.00  0.00    +0.044 C 
ATOM     22  C   UNL     1       0.936  -0.249  -0.189  0.00  0.00    -0.050 A 
ATOM     23  C   UNL     1       0.002  -0.561  -1.161  0.00  0.00    +0.006 A 
ATOM     24  C   UNL     1      -0.898  -1.593  -0.960  0.00  0.00    -0.050 A 
ATOM     25  C   UNL     1      -0.871  -2.319   0.212  0.00  0.00    +0.015 A 
ATOM     26  C   UNL     1       0.070  -2.009   1.199  0.00  0.00    +0.024 A 
ATOM     27  C   UNL     1       0.980  -0.969   0.986  0.00  0.00    +0.015 A 
ATOM     28  C   UNL     1      -1.912  -1.924  -2.025  0.00  0.00    +0.044 C 
ENDBRANCH  18  26
BRANCH  20  29
ATOM     29  C   UNL     1       0.062  -0.688   3.717  0.00  0.00    +0.108 C 
ATOM     30  N   UNL     1      -0.012   0.445   3.751  0.00  0.00    -0.191 NA
ENDBRANCH  20  29
ENDBRANCH   1  20
TORSDOF 5
