REMARK  Name = ZINC39655574
REMARK  6 active torsions:
REMARK  status: ('A' for Active; 'I' for Inactive)
REMARK    1  A    between atoms: C_4  and  N_7
REMARK    2  A    between atoms: N_7  and  C_8
REMARK    3  A    between atoms: C_8  and  C_9
REMARK    4  A    between atoms: C_9  and  N_10
REMARK    5  A    between atoms: C_11  and  C_13
REMARK    6  A    between atoms: C_24  and  C_26
REMARK                            x       y       z     vdW  Elec       q    Type
REMARK                         _______ _______ _______ _____ _____    ______ ____
ROOT
ATOM      1  C   UNL     1       6.354  -6.158   0.012  0.00  0.00    +0.100 C 
ATOM      2  C   UNL     1       5.793  -6.762   1.318  0.00  0.00    +0.121 C 
ATOM      3  N   UNL     1       6.640  -7.950   1.576  0.00  0.00    -0.297 N 
ATOM      4  C   UNL     1       8.008  -7.516   1.203  0.00  0.00    +0.115 C 
ATOM      5  C   UNL     1       7.808  -6.654  -0.060  0.00  0.00    -0.004 C 
ATOM      6  C   UNL     1       8.772  -5.472  -0.049  0.00  0.00    -0.010 C 
ATOM      7  C   UNL     1      10.208  -5.987  -0.180  0.00  0.00    -0.082 C 
ATOM      8  N   UNL     1      10.345  -6.744  -1.430  0.00  0.00    +0.379 N 
ATOM      9  C   UNL     1       9.484  -7.932  -1.394  0.00  0.00    -0.082 C 
ATOM     10  C   UNL     1       8.017  -7.498  -1.314  0.00  0.00    -0.010 C 
ATOM     11  C   UNL     1       6.255  -9.154   2.043  0.00  0.00    +0.260 C 
ATOM     12  O   UNL     1       5.077  -9.388   2.218  0.00  0.00    -0.271 OA
ATOM     13  H   UNL     1      10.077  -6.159  -2.207  0.00  0.00    -0.086 HD
ATOM     14  H   UNL     1      11.306  -7.031  -1.544  0.00  0.00    -0.086 HD
ENDROOT
BRANCH  11  15
ATOM     15  C   UNL     1       7.286 -10.210   2.348  0.00  0.00    +0.296 C 
ATOM     16  C   UNL     1       8.133  -9.773   3.551  0.00  0.00    +0.283 C 
ATOM     17  O   UNL     1       9.091 -10.802   3.822  0.00  0.00    -0.484 OA
ATOM     18  C   UNL     1       8.626 -12.081   3.840  0.00  0.00    +0.162 A 
ATOM     19  C   UNL     1       9.387 -13.074   4.438  0.00  0.00    +0.049 A 
ATOM     20  C   UNL     1       8.930 -14.378   4.461  0.00  0.00    +0.004 A 
ATOM     21  C   UNL     1       7.713 -14.696   3.888  0.00  0.00    +0.004 A 
ATOM     22  C   UNL     1       6.949 -13.711   3.291  0.00  0.00    +0.049 A 
ATOM     23  C   UNL     1       7.401 -12.400   3.266  0.00  0.00    +0.163 A 
ATOM     24  O   UNL     1       6.634 -11.440   2.681  0.00  0.00    -0.473 OA
ENDBRANCH  11  15
BRANCH   1  26
ATOM     25  N   UNL     1       6.324  -3.933  -1.069  0.00  0.00    -0.314 N 
ATOM     26  C   UNL     1       6.316  -4.653   0.071  0.00  0.00    +0.218 C 
ATOM     27  O   UNL     1       6.279  -4.089   1.144  0.00  0.00    -0.275 OA
ATOM     28  H   UNL     1       6.354  -4.384  -1.927  0.00  0.00    +0.149 HD
BRANCH  25  29
ATOM     29  C   UNL     1       6.287  -2.470  -1.012  0.00  0.00    +0.123 C 
BRANCH  29  30
ATOM     30  C   UNL     1       6.304  -1.903  -2.433  0.00  0.00    +0.120 C 
BRANCH  30  31
ATOM     31  N   UNL     1       6.267  -0.440  -2.375  0.00  0.00    -0.342 N 
ATOM     32  H   UNL     1       6.237   0.011  -1.517  0.00  0.00    +0.146 HD
BRANCH  31  36
ATOM     33  C   UNL     1       6.290   1.783  -5.896  0.00  0.00    +0.000 A 
ATOM     34  C   UNL     1       6.247   2.428  -4.674  0.00  0.00    +0.002 A 
ATOM     35  C   UNL     1       6.239   1.694  -3.504  0.00  0.00    +0.023 A 
ATOM     36  C   UNL     1       6.274   0.306  -3.556  0.00  0.00    +0.027 A 
ATOM     37  C   UNL     1       6.317  -0.339  -4.786  0.00  0.00    +0.023 A 
ATOM     38  C   UNL     1       6.325   0.402  -5.952  0.00  0.00    +0.002 A 
ENDBRANCH  31  36
ENDBRANCH  30  31
ENDBRANCH  29  30
ENDBRANCH  25  29
ENDBRANCH   1  26
TORSDOF 6
