REMARK  Name = ZINC24209631
REMARK  8 active torsions:
REMARK  status: ('A' for Active; 'I' for Inactive)
REMARK    1  A    between atoms: C_1  and  C_2
REMARK    2  A    between atoms: C_8  and  C_10
REMARK    3  A    between atoms: C_10  and  S_11
REMARK    4  A    between atoms: S_11  and  C_12
REMARK    5  A    between atoms: N_22  and  C_23
REMARK    6  A    between atoms: C_23  and  C_24
REMARK    7  A    between atoms: C_24  and  C_25
REMARK    8  A    between atoms: C_25  and  C_26
REMARK                            x       y       z     vdW  Elec       q    Type
REMARK                         _______ _______ _______ _____ _____    ______ ____
ROOT
ATOM      1  C   UNL     1      -7.945   4.014   5.532  0.00  0.00    +0.173 A 
ATOM      2  N   UNL     1      -8.576   3.783   4.408  0.00  0.00    -0.223 NA
ATOM      3  C   UNL     1      -9.908   3.957   4.296  0.00  0.00    +0.079 A 
ATOM      4  C   UNL     1     -10.583   3.705   3.098  0.00  0.00    +0.028 A 
ATOM      5  C   UNL     1     -11.933   3.901   3.028  0.00  0.00    +0.002 A 
ATOM      6  C   UNL     1     -12.649   4.347   4.131  0.00  0.00    +0.001 A 
ATOM      7  C   UNL     1     -12.018   4.602   5.317  0.00  0.00    +0.015 A 
ATOM      8  C   UNL     1     -10.640   4.411   5.417  0.00  0.00    +0.065 A 
ATOM      9  C   UNL     1      -9.909   4.669   6.665  0.00  0.00    +0.262 A 
ATOM     10  O   UNL     1     -10.483   5.061   7.664  0.00  0.00    -0.267 OA
ATOM     11  N   UNL     1      -8.573   4.454   6.662  0.00  0.00    -0.287 N 
ENDROOT
BRANCH   1  12
ATOM     12  S   UNL     1      -6.203   3.752   5.587  0.00  0.00    -0.078 S 
BRANCH  12  13
ATOM     13  C   UNL     1      -5.916   3.196   3.889  0.00  0.00    +0.173 C 
BRANCH  13  21
ATOM     14  C   UNL     1      -0.013   1.086   0.008  0.00  0.00    +0.066 C 
ATOM     15  C   UNL     1      -0.718   1.572   1.248  0.00  0.00    +0.047 A 
ATOM     16  C   UNL     1      -0.029   1.806   2.391  0.00  0.00    +0.071 A 
ATOM     17  S   UNL     1      -1.348   2.342   3.471  0.00  0.00    -0.060 S 
ATOM     18  C   UNL     1      -2.646   2.204   2.326  0.00  0.00    +0.165 A 
ATOM     19  N   UNL     1      -2.019   1.784   1.244  0.00  0.00    -0.230 NA
ATOM     20  N   UNL     1      -3.999   2.473   2.502  0.00  0.00    -0.264 N 
ATOM     21  C   UNL     1      -4.449   2.904   3.697  0.00  0.00    +0.229 C 
ATOM     22  O   UNL     1      -3.675   3.058   4.618  0.00  0.00    -0.275 OA
ATOM     23  H   UNL     1      -4.701   2.334   1.667  0.00  0.00    +0.157 HD
ENDBRANCH  13  21
ENDBRANCH  12  13
ENDBRANCH   1  12
BRANCH  11  24
ATOM     24  C   UNL     1      -7.795   4.696   7.880  0.00  0.00    +0.128 C 
BRANCH  24  25
ATOM     25  C   UNL     1      -7.306   6.146   7.893  0.00  0.00    +0.026 C 
BRANCH  25  26
ATOM     26  C   UNL     1      -6.493   6.398   9.164  0.00  0.00    +0.037 C 
BRANCH  26  27
ATOM     27  C   UNL     1      -6.011   7.826   9.177  0.00  0.00    -0.047 A 
ATOM     28  C   UNL     1      -4.790   8.149   8.616  0.00  0.00    +0.003 A 
ATOM     29  C   UNL     1      -4.350   9.459   8.623  0.00  0.00    +0.000 A 
ATOM     30  C   UNL     1      -5.127  10.445   9.202  0.00  0.00    +0.000 A 
ATOM     31  C   UNL     1      -6.346  10.122   9.768  0.00  0.00    +0.000 A 
ATOM     32  C   UNL     1      -6.788   8.812   9.755  0.00  0.00    +0.003 A 
ENDBRANCH  26  27
ENDBRANCH  25  26
ENDBRANCH  24  25
ENDBRANCH  11  24
TORSDOF 7
