REMARK  Name = ZINC22617636
REMARK  10 active torsions:
REMARK  status: ('A' for Active; 'I' for Inactive)
REMARK    1  A    between atoms: C_3  and  S_23
REMARK    2  A    between atoms: C_6  and  C_7
REMARK    3  A    between atoms: C_7  and  C_8
REMARK    4  A    between atoms: C_8  and  C_9
REMARK    5  A    between atoms: N_11  and  N_12
REMARK    6  A    between atoms: N_12  and  C_13
REMARK    7  A    between atoms: C_13  and  N_15
REMARK    8  A    between atoms: N_15  and  C_16
REMARK    9  A    between atoms: C_16  and  C_17
REMARK   10  A    between atoms: S_23  and  N_26
REMARK                            x       y       z     vdW  Elec       q    Type
REMARK                         _______ _______ _______ _____ _____    ______ ____
ROOT
ATOM      1  C   UNL     1      -0.742   1.585  -1.213  0.00  0.00    +0.229 C 
ATOM      2  O   UNL     1      -1.736   2.268  -1.088  0.00  0.00    -0.274 OA
ATOM      3  N   UNL     1      -0.288   1.272  -2.443  0.00  0.00    -0.235 N 
ATOM      4  H   UNL     1       0.614   0.653  -2.556  0.00  0.00    +0.173 HD
ENDROOT
BRANCH   3   5
ATOM      5  N   UNL     1      -0.966   1.736  -3.578  0.00  0.00    -0.246 N 
ATOM      6  H   UNL     1      -1.868   2.356  -3.465  0.00  0.00    +0.172 HD
BRANCH   5   7
ATOM      7  C   UNL     1      -0.513   1.424  -4.808  0.00  0.00    +0.147 C 
ATOM      8  S   UNL     1      -1.341   1.991  -6.195  0.00  0.00    -0.017 S 
BRANCH   7   9
ATOM      9  N   UNL     1       0.592   0.664  -4.947  0.00  0.00    -0.323 N 
ATOM     10  H   UNL     1       1.124   0.300  -4.056  0.00  0.00    +0.148 HD
BRANCH   9  11
ATOM     11  C   UNL     1       1.085   0.325  -6.284  0.00  0.00    +0.134 C 
BRANCH  11  12
ATOM     12  C   UNL     1       2.342  -0.539  -6.160  0.00  0.00    +0.135 C 
ATOM     13  C   UNL     1       2.950  -0.805  -7.555  0.00  0.00    +0.035 C 
ATOM     14  C   UNL     1       3.464  -2.260  -7.468  0.00  0.00    +0.031 C 
ATOM     15  C   UNL     1       3.105  -2.700  -6.031  0.00  0.00    +0.160 C 
ATOM     16  O   UNL     1       2.005  -1.847  -5.648  0.00  0.00    -0.375 OA
ENDBRANCH  11  12
ENDBRANCH   9  11
ENDBRANCH   7   9
ENDBRANCH   5   7
ENDBRANCH   3   5
BRANCH   1  17
ATOM     17  C   UNL     1      -0.013   1.086   0.008  0.00  0.00    +0.102 C 
BRANCH  17  18
ATOM     18  C   UNL     1      -0.729   1.579   1.267  0.00  0.00    +0.044 C 
BRANCH  18  24
ATOM     19  C   UNL     1      -0.347  -0.133   3.052  0.00  0.00    +0.005 A 
ATOM     20  C   UNL     1       0.324  -0.593   4.170  0.00  0.00    +0.029 A 
ATOM     21  C   UNL     1       1.337   0.164   4.728  0.00  0.00    +0.105 A 
ATOM     22  C   UNL     1       1.681   1.380   4.166  0.00  0.00    +0.029 A 
ATOM     23  C   UNL     1       1.012   1.838   3.046  0.00  0.00    +0.005 A 
ATOM     24  C   UNL     1       0.000   1.080   2.488  0.00  0.00    -0.047 A 
BRANCH  21  25
ATOM     25  S   UNL     1       2.190  -0.420   6.154  0.00  0.00    +0.056 S 
ATOM     26  O   UNL     1       2.048  -1.834   6.162  0.00  0.00    -0.153 OA
ATOM     27  O   UNL     1       3.459   0.218   6.158  0.00  0.00    -0.153 OA
BRANCH  25  28
ATOM     28  N   UNL     1       1.372   0.145   7.479  0.00  0.00    -0.204 NA
ATOM     29  H   UNL     1       1.875  -0.200   8.395  0.00  0.00    +0.144 HD
ATOM     30  H   UNL     1       0.340  -0.236   7.463  0.00  0.00    +0.144 HD
ENDBRANCH  25  28
ENDBRANCH  21  25
ENDBRANCH  18  24
ENDBRANCH  17  18
ENDBRANCH   1  17
TORSDOF 10
