REMARK  Name = ZINC63350097
REMARK  10 active torsions:
REMARK  status: ('A' for Active; 'I' for Inactive)
REMARK    1  A    between atoms: C_1  and  C_2
REMARK    2  A    between atoms: C_13  and  O_15
REMARK    3  A    between atoms: O_15  and  C_16
REMARK    4  A    between atoms: C_16  and  C_18
REMARK    5  A    between atoms: C_18  and  C_19
REMARK    6  A    between atoms: C_19  and  C_20
REMARK    7  A    between atoms: N_22  and  C_23
REMARK    8  A    between atoms: C_23  and  C_24
REMARK    9  A    between atoms: C_24  and  C_25
REMARK   10  A    between atoms: C_42  and  C_43
REMARK                            x       y       z     vdW  Elec       q    Type
REMARK                         _______ _______ _______ _____ _____    ______ ____
ROOT
ATOM      1  O   UNL     1       0.524   0.313  -2.362  0.00  0.00    -0.461 OA
ENDROOT
BRANCH   1  11
ATOM      2  C   UNL     1      -0.019   1.523   0.010  0.00  0.00    +0.015 C 
ATOM      3  C   UNL     1       0.002  -0.004   0.002  0.00  0.00    +0.008 C 
ATOM      4  C   UNL     1      -1.387  -0.595   0.021  0.00  0.00    +0.011 C 
ATOM      5  C   UNL     1      -1.964  -0.621   1.437  0.00  0.00    +0.005 C 
ATOM      6  C   UNL     1      -1.157   0.184   2.441  0.00  0.00    +0.002 C 
ATOM      7  C   UNL     1       0.301  -0.259   2.504  0.00  0.00    -0.003 C 
ATOM      8  C   UNL     1       0.833  -0.617   1.150  0.00  0.00    +0.002 C 
ATOM      9  C   UNL     1       2.260  -0.182   0.808  0.00  0.00    +0.008 C 
ATOM     10  C   UNL     1       2.300  -0.186  -0.742  0.00  0.00    +0.045 C 
ATOM     11  C   UNL     1       0.849  -0.467  -1.212  0.00  0.00    +0.183 C 
ATOM     12  C   UNL     1       1.157   0.775   3.225  0.00  0.00    +0.008 C 
ATOM     13  C   UNL     1       0.411   1.334   4.437  0.00  0.00    +0.032 C 
ATOM     14  C   UNL     1      -0.679   0.370   4.844  0.00  0.00    -0.060 C 
ATOM     15  C   UNL     1      -0.674  -0.173   6.056  0.00  0.00    +0.046 C 
ATOM     16  C   UNL     1      -1.712  -1.112   6.470  0.00  0.00    +0.156 C 
ATOM     17  O   UNL     1      -1.714  -1.550   7.604  0.00  0.00    -0.293 OA
ATOM     18  C   UNL     1      -2.780  -1.544   5.499  0.00  0.00    +0.080 C 
ATOM     19  C   UNL     1      -2.275  -1.371   4.065  0.00  0.00    +0.019 C 
ATOM     20  C   UNL     1      -1.767   0.049   3.848  0.00  0.00    -0.007 C 
ATOM     21  C   UNL     1      -2.911   1.054   3.994  0.00  0.00    +0.016 C 
ENDBRANCH   1  11
BRANCH   1  22
ATOM     22  C   UNL     1       0.648  -0.284  -3.558  0.00  0.00    +0.308 C 
ATOM     23  O   UNL     1       1.020  -1.432  -3.625  0.00  0.00    -0.251 OA
BRANCH  22  24
ATOM     24  C   UNL     1       0.324   0.477  -4.818  0.00  0.00    +0.130 C 
BRANCH  24  25
ATOM     25  C   UNL     1       0.547  -0.427  -6.032  0.00  0.00    +0.107 C 
BRANCH  25  26
ATOM     26  C   UNL     1       0.223   0.334  -7.291  0.00  0.00    +0.214 C 
ATOM     27  O   UNL     1      -0.151   1.486  -7.224  0.00  0.00    -0.276 OA
ATOM     28  N   UNL     1       0.347  -0.266  -8.492  0.00  0.00    -0.315 N 
ATOM     29  H   UNL     1       0.645  -1.187  -8.545  0.00  0.00    +0.149 HD
BRANCH  28  30
ATOM     30  C   UNL     1       0.031   0.474  -9.716  0.00  0.00    +0.108 C 
BRANCH  30  31
ATOM     31  C   UNL     1       0.255  -0.430 -10.930  0.00  0.00    +0.052 C 
BRANCH  31  32
ATOM     32  C   UNL     1      -0.070   0.331 -12.190  0.00  0.00    -0.040 C 
ATOM     33  C   UNL     1       0.799   0.996 -12.985  0.00  0.00    -0.001 A 
ATOM     34  C   UNL     1       2.251   1.203 -12.917  0.00  0.00    +0.010 A 
ATOM     35  C   UNL     1       2.855   1.933 -13.882  0.00  0.00    +0.001 A 
ATOM     36  C   UNL     1       2.132   2.496 -14.942  0.00  0.00    +0.002 A 
ATOM     37  C   UNL     1       0.796   2.350 -15.072  0.00  0.00    +0.026 A 
ATOM     38  C   UNL     1       0.058   1.601 -14.115  0.00  0.00    +0.043 A 
ATOM     39  N   UNL     1      -1.219   1.321 -14.022  0.00  0.00    -0.380 N 
ATOM     40  C   UNL     1      -1.432   0.501 -12.824  0.00  0.00    +0.144 C 
ATOM     41  H   UNL     1      -1.908   1.605 -14.643  0.00  0.00    +0.160 HD
ENDBRANCH  31  32
ENDBRANCH  30  31
ENDBRANCH  28  30
ENDBRANCH  25  26
ENDBRANCH  24  25
ENDBRANCH  22  24
ENDBRANCH   1  22
TORSDOF 8
