REMARK  Name = ZINC08684089
REMARK  8 active torsions:
REMARK  status: ('A' for Active; 'I' for Inactive)
REMARK    1  A    between atoms: C_7  and  C_11
REMARK    2  A    between atoms: C_11  and  C_12
REMARK    3  A    between atoms: C_12  and  N_13
REMARK    4  A    between atoms: C_14  and  C_16
REMARK    5  A    between atoms: N_18  and  C_19
REMARK    6  A    between atoms: C_19  and  C_20
REMARK    7  A    between atoms: N_22  and  S_27
REMARK    8  A    between atoms: S_27  and  C_30
REMARK                            x       y       z     vdW  Elec       q    Type
REMARK                         _______ _______ _______ _____ _____    ______ ____
ROOT
ATOM      1  C   UNL     1      -3.560  -7.797  -1.695  0.00  0.00    +0.299 C 
ATOM      2  O   UNL     1      -4.369  -8.377  -1.001  0.00  0.00    -0.265 OA
ATOM      3  N   UNL     1      -3.738  -7.734  -3.029  0.00  0.00    -0.304 N 
ATOM      4  H   UNL     1      -3.054  -7.337  -3.591  0.00  0.00    +0.149 HD
ENDROOT
BRANCH   1   6
ATOM      5  N   UNL     1      -2.244  -7.117   0.273  0.00  0.00    -0.307 N 
ATOM      6  C   UNL     1      -2.366  -7.151  -1.069  0.00  0.00    +0.299 C 
ATOM      7  O   UNL     1      -1.507  -6.656  -1.769  0.00  0.00    -0.265 OA
ATOM      8  H   UNL     1      -2.930  -7.512   0.832  0.00  0.00    +0.149 HD
BRANCH   5   9
ATOM      9  C   UNL     1      -1.073  -6.484   0.886  0.00  0.00    +0.109 C 
BRANCH   9  10
ATOM     10  C   UNL     1      -1.180  -6.582   2.409  0.00  0.00    +0.056 C 
BRANCH  10  17
ATOM     11  C   UNL     1      -0.164  -2.152   3.556  0.00  0.00    +0.001 A 
ATOM     12  C   UNL     1       1.093  -2.017   4.130  0.00  0.00    +0.002 A 
ATOM     13  C   UNL     1       1.905  -3.115   4.311  0.00  0.00    +0.026 A 
ATOM     14  C   UNL     1       1.462  -4.374   3.918  0.00  0.00    +0.047 A 
ATOM     15  C   UNL     1       0.187  -4.506   3.338  0.00  0.00    +0.003 A 
ATOM     16  C   UNL     1      -0.618  -3.379   3.162  0.00  0.00    +0.010 A 
ATOM     17  C   UNL     1       0.024  -5.931   3.040  0.00  0.00    -0.021 A 
ATOM     18  C   UNL     1       1.149  -6.546   3.436  0.00  0.00    +0.087 A 
ATOM     19  N   UNL     1       2.020  -5.632   3.963  0.00  0.00    -0.360 N 
ATOM     20  H   UNL     1       2.899  -5.839   4.316  0.00  0.00    +0.165 HD
ENDBRANCH  10  17
ENDBRANCH   9  10
ENDBRANCH   5   9
ENDBRANCH   1   6
BRANCH   3  21
ATOM     21  C   UNL     1      -4.963  -8.267  -3.630  0.00  0.00    +0.154 C 
BRANCH  21  22
ATOM     22  C   UNL     1      -4.782  -8.377  -5.146  0.00  0.00    +0.226 C 
ATOM     23  N   UNL     1      -4.800  -7.034  -5.743  0.00  0.00    -0.147 NA
ATOM     24  C   UNL     1      -4.434  -6.897  -7.162  0.00  0.00    +0.114 C 
ATOM     25  C   UNL     1      -3.101  -7.622  -7.385  0.00  0.00    +0.045 C 
ATOM     26  C   UNL     1      -3.209  -9.044  -6.829  0.00  0.00    +0.163 C 
ATOM     27  O   UNL     1      -3.523  -8.993  -5.435  0.00  0.00    -0.358 OA
BRANCH  23  28
ATOM     28  S   UNL     1      -5.222  -5.709  -4.843  0.00  0.00    +0.063 S 
ATOM     29  O   UNL     1      -4.819  -5.980  -3.508  0.00  0.00    -0.153 OA
ATOM     30  O   UNL     1      -4.767  -4.569  -5.559  0.00  0.00    -0.153 OA
BRANCH  28  31
ATOM     31  C   UNL     1      -6.982  -5.627  -4.831  0.00  0.00    +0.106 A 
ATOM     32  C   UNL     1      -7.651  -4.992  -5.861  0.00  0.00    +0.031 A 
ATOM     33  C   UNL     1      -9.031  -4.927  -5.853  0.00  0.00    +0.040 A 
ATOM     34  C   UNL     1      -9.745  -5.498  -4.813  0.00  0.00    +0.124 A 
ATOM     35  C   UNL     1      -9.074  -6.134  -3.782  0.00  0.00    +0.040 A 
ATOM     36  C   UNL     1      -7.694  -6.202  -3.795  0.00  0.00    +0.031 A 
ATOM     37  F   UNL     1     -11.094  -5.435  -4.804  0.00  0.00    -0.205 F 
ENDBRANCH  28  31
ENDBRANCH  23  28
ENDBRANCH  21  22
ENDBRANCH   3  21
TORSDOF 8
