REMARK  Name = ZINC12070733
REMARK  10 active torsions:
REMARK  status: ('A' for Active; 'I' for Inactive)
REMARK    1  A    between atoms: C_1  and  C_2
REMARK    2  A    between atoms: C_2  and  C_3
REMARK    3  A    between atoms: C_2  and  S_4
REMARK    4  A    between atoms: S_4  and  C_7
REMARK    5  A    between atoms: C_10  and  C_13
REMARK    6  A    between atoms: C_13  and  C_14
REMARK    7  A    between atoms: N_16  and  C_17
REMARK    8  A    between atoms: C_18  and  C_32
REMARK    9  A    between atoms: C_25  and  C_26
REMARK   10  A    between atoms: C_25  and  N_64
REMARK                            x       y       z     vdW  Elec       q    Type
REMARK                         _______ _______ _______ _____ _____    ______ ____
ROOT
ATOM      1  C   UNL     1       2.656   5.804  -6.073  0.00  0.00    +0.084 A 
ATOM      2  C   UNL     1       3.767   5.679  -5.248  0.00  0.00    +0.068 A 
ATOM      3  C   UNL     1       3.536   5.293  -3.869  0.00  0.00    -0.027 A 
ATOM      4  C   UNL     1       2.241   5.092  -3.535  0.00  0.00    -0.021 A 
ATOM      5  S   UNL     1       1.336   5.411  -5.021  0.00  0.00    -0.079 S 
ATOM      6  C   UNL     1       1.723   4.687  -2.190  0.00  0.00    -0.035 C 
ATOM      7  C   UNL     1       3.982   5.141  -1.440  0.00  0.00    -0.073 C 
ATOM      8  C   UNL     1       4.632   5.111  -2.826  0.00  0.00    +0.018 C 
ATOM      9  N   UNL     1       2.867   4.171  -1.400  0.00  0.00    +0.386 N 
ATOM     10  H   UNL     1       3.182   3.283  -1.808  0.00  0.00    -0.081 HD
ENDROOT
BRANCH   2  11
ATOM     11  C   UNL     1       5.121   5.930  -5.752  0.00  0.00    +0.244 C 
ATOM     12  O   UNL     1       5.770   5.019  -6.231  0.00  0.00    -0.270 OA
ATOM     13  N   UNL     1       5.646   7.169  -5.684  0.00  0.00    -0.325 N 
ATOM     14  H   UNL     1       5.129   7.895  -5.303  0.00  0.00    +0.145 HD
ATOM     15  H   UNL     1       6.542   7.334  -6.018  0.00  0.00    +0.145 HD
ENDBRANCH   2  11
BRANCH   1  18
ATOM     16  C   UNL     1       1.431   6.227  -8.054  0.00  0.00    +0.222 C 
ATOM     17  O   UNL     1       0.403   5.981  -7.459  0.00  0.00    -0.275 OA
ATOM     18  N   UNL     1       2.614   6.158  -7.413  0.00  0.00    -0.279 N 
ATOM     19  H   UNL     1       3.436   6.355  -7.889  0.00  0.00    +0.155 HD
BRANCH  16  20
ATOM     20  C   UNL     1       1.385   6.612  -9.511  0.00  0.00    +0.131 C 
BRANCH  20  24
ATOM     21  C   UNL     1      -2.671   6.622 -10.853  0.00  0.00    +0.088 A 
ATOM     22  C   UNL     1      -2.114   7.774 -10.328  0.00  0.00    +0.027 A 
ATOM     23  C   UNL     1      -0.801   7.770  -9.894  0.00  0.00    +0.006 A 
ATOM     24  C   UNL     1      -0.046   6.616  -9.984  0.00  0.00    -0.039 A 
ATOM     25  C   UNL     1      -0.602   5.466 -10.514  0.00  0.00    +0.006 A 
ATOM     26  C   UNL     1      -1.915   5.468 -10.944  0.00  0.00    +0.027 A 
BRANCH  21  27
ATOM     27  S   UNL     1      -4.344   6.627 -11.406  0.00  0.00    -0.001 S 
ATOM     28  O   UNL     1      -4.768   5.276 -11.287  0.00  0.00    -0.169 OA
ATOM     29  O   UNL     1      -4.973   7.653 -10.651  0.00  0.00    -0.169 OA
BRANCH  27  31
ATOM     30  C   UNL     1      -3.410   6.081 -13.918  0.00  0.00    +0.032 C 
ATOM     31  C   UNL     1      -4.256   7.102 -13.154  0.00  0.00    +0.130 C 
ATOM     32  C   UNL     1      -5.668   7.138 -13.744  0.00  0.00    +0.032 C 
ENDBRANCH  27  31
ENDBRANCH  21  27
ENDBRANCH  20  24
ENDBRANCH  16  20
ENDBRANCH   1  18
BRANCH   9  33
ATOM     33  C   UNL     1       2.451   3.937  -0.001  0.00  0.00    -0.043 C 
BRANCH  33  34
ATOM     34  C   UNL     1       1.156   3.165   0.008  0.00  0.00    -0.064 A 
ATOM     35  C   UNL     1       1.175   1.783   0.000  0.00  0.00    +0.002 A 
ATOM     36  C   UNL     1      -0.013   1.076   0.008  0.00  0.00    +0.000 A 
ATOM     37  C   UNL     1      -1.219   1.751   0.017  0.00  0.00    +0.000 A 
ATOM     38  C   UNL     1      -1.238   3.133   0.030  0.00  0.00    +0.000 A 
ATOM     39  C   UNL     1      -0.050   3.840   0.023  0.00  0.00    +0.002 A 
ENDBRANCH  33  34
ENDBRANCH   9  33
TORSDOF 8
