REMARK  Name = ZINC08824407
REMARK  7 active torsions:
REMARK  status: ('A' for Active; 'I' for Inactive)
REMARK    1  A    between atoms: C_1  and  C_2
REMARK    2  A    between atoms: C_5  and  N_8
REMARK    3  A    between atoms: C_12  and  C_13
REMARK    4  A    between atoms: C_23  and  S_24
REMARK    5  A    between atoms: S_24  and  C_25
REMARK    6  A    between atoms: C_25  and  C_26
REMARK    7  A    between atoms: C_31  and  C_34
REMARK                            x       y       z     vdW  Elec       q    Type
REMARK                         _______ _______ _______ _____ _____    ______ ____
ROOT
ATOM      1  N   UNL     1       1.911   3.167   0.061  0.00  0.00    -0.214 N 
ATOM      2  C   UNL     1       3.260   3.157  -0.013  0.00  0.00    +0.275 C 
ATOM      3  O   UNL     1       4.003   4.120  -0.066  0.00  0.00    -0.268 OA
ATOM      4  C   UNL     1       3.643   1.733  -0.021  0.00  0.00    +0.129 C 
ATOM      5  C   UNL     1       4.916   1.218  -0.092  0.00  0.00    +0.041 C 
ATOM      6  N   UNL     1       2.473   1.030   0.055  0.00  0.00    -0.220 NA
ATOM      7  C   UNL     1       1.470   1.867   0.106  0.00  0.00    +0.169 C 
ENDROOT
BRANCH   5   8
ATOM      8  C   UNL     1       5.130  -0.228   0.028  0.00  0.00    -0.019 A 
ATOM      9  C   UNL     1       6.431  -0.743   0.090  0.00  0.00    +0.012 A 
ATOM     10  C   UNL     1       6.628  -2.101   0.203  0.00  0.00    +0.050 A 
ATOM     11  C   UNL     1       5.541  -2.964   0.256  0.00  0.00    +0.166 A 
ATOM     12  C   UNL     1       4.241  -2.459   0.194  0.00  0.00    +0.167 A 
ATOM     13  C   UNL     1       4.033  -1.098   0.086  0.00  0.00    +0.057 A 
ATOM     14  O   UNL     1       3.364  -3.503   0.265  0.00  0.00    -0.453 OA
ATOM     15  C   UNL     1       4.139  -4.676  -0.043  0.00  0.00    +0.466 C 
ATOM     16  O   UNL     1       5.473  -4.322   0.365  0.00  0.00    -0.453 OA
ENDBRANCH   5   8
BRANCH   1  21
ATOM     17  C   UNL     1      -1.375   7.794   0.179  0.00  0.00    +0.044 C 
ATOM     18  C   UNL     1      -0.502   6.565   0.148  0.00  0.00    -0.050 A 
ATOM     19  C   UNL     1       0.490   6.399   1.097  0.00  0.00    +0.005 A 
ATOM     20  C   UNL     1       1.291   5.274   1.070  0.00  0.00    +0.024 A 
ATOM     21  C   UNL     1       1.099   4.310   0.090  0.00  0.00    +0.044 A 
ATOM     22  C   UNL     1       0.106   4.482  -0.864  0.00  0.00    +0.024 A 
ATOM     23  C   UNL     1      -0.696   5.606  -0.830  0.00  0.00    +0.005 A 
ENDBRANCH   1  21
BRANCH   7  24
ATOM     24  S   UNL     1      -0.223   1.390   0.211  0.00  0.00    -0.080 S 
BRANCH  24  25
ATOM     25  C   UNL     1      -0.043  -0.411   0.219  0.00  0.00    +0.173 C 
BRANCH  25  26
ATOM     26  C   UNL     1      -1.404  -1.052   0.306  0.00  0.00    +0.229 C 
ATOM     27  O   UNL     1      -2.398  -0.359   0.357  0.00  0.00    -0.275 OA
ATOM     28  N   UNL     1      -1.516  -2.395   0.326  0.00  0.00    -0.267 N 
ATOM     29  C   UNL     1      -2.776  -2.988   0.407  0.00  0.00    +0.168 A 
ATOM     30  C   UNL     1      -4.029  -2.322   0.479  0.00  0.00    +0.091 A 
ATOM     31  C   UNL     1      -4.930  -3.329   0.538  0.00  0.00    +0.136 A 
ATOM     32  O   UNL     1      -4.230  -4.472   0.508  0.00  0.00    -0.358 OA
ATOM     33  N   UNL     1      -3.041  -4.268   0.436  0.00  0.00    -0.063 NA
ATOM     34  C   UNL     1      -6.429  -3.192   0.625  0.00  0.00    +0.089 C 
ATOM     35  H   UNL     1      -0.721  -2.949   0.285  0.00  0.00    +0.156 HD
ENDBRANCH  25  26
ENDBRANCH  24  25
ENDBRANCH   7  24
TORSDOF 5
