REMARK  Name = ZINC16695064
REMARK  10 active torsions:
REMARK  status: ('A' for Active; 'I' for Inactive)
REMARK    1  A    between atoms: C_1  and  C_2
REMARK    2  A    between atoms: C_2  and  C_4
REMARK    3  A    between atoms: C_2  and  N_54
REMARK    4  A    between atoms: C_7  and  S_10
REMARK    5  A    between atoms: S_10  and  N_13
REMARK    6  A    between atoms: C_14  and  N_54
REMARK    7  A    between atoms: C_15  and  C_16
REMARK    8  A    between atoms: C_15  and  N_54
REMARK    9  A    between atoms: N_18  and  C_19
REMARK   10  A    between atoms: C_19  and  C_20
REMARK                            x       y       z     vdW  Elec       q    Type
REMARK                         _______ _______ _______ _____ _____    ______ ____
ROOT
ATOM      1  C   UNL     1      -1.712  -6.291   0.310  0.00  0.00    -0.095 C 
ATOM      2  N   UNL     1      -1.219  -6.281  -1.083  0.00  0.00    +0.388 N 
ATOM      3  H   UNL     1      -0.392  -6.885  -1.149  0.00  0.00    -0.081 HD
ENDROOT
BRANCH   2   5
ATOM      4  C   UNL     1      -2.613  -8.230  -1.583  0.00  0.00    -0.008 C 
ATOM      5  C   UNL     1      -2.264  -6.798  -1.992  0.00  0.00    -0.041 C 
BRANCH   5   6
ATOM      6  C   UNL     1      -1.732  -6.793  -3.402  0.00  0.00    -0.061 A 
ATOM      7  C   UNL     1      -0.455  -7.258  -3.660  0.00  0.00    +0.004 A 
ATOM      8  C   UNL     1       0.031  -7.259  -4.954  0.00  0.00    +0.029 A 
ATOM      9  C   UNL     1      -0.754  -6.785  -5.988  0.00  0.00    +0.105 A 
ATOM     10  C   UNL     1      -2.029  -6.315  -5.729  0.00  0.00    +0.029 A 
ATOM     11  C   UNL     1      -2.517  -6.320  -4.436  0.00  0.00    +0.004 A 
BRANCH   9  12
ATOM     12  S   UNL     1      -0.132  -6.779  -7.637  0.00  0.00    +0.056 S 
ATOM     13  O   UNL     1       0.881  -7.774  -7.692  0.00  0.00    -0.153 OA
ATOM     14  O   UNL     1      -1.262  -6.793  -8.498  0.00  0.00    -0.153 OA
BRANCH  12  15
ATOM     15  N   UNL     1       0.623  -5.323  -7.870  0.00  0.00    -0.204 NA
ATOM     16  H   UNL     1       1.371  -5.258  -8.483  0.00  0.00    +0.144 HD
ATOM     17  H   UNL     1       0.316  -4.536  -7.394  0.00  0.00    +0.144 HD
ENDBRANCH  12  15
ENDBRANCH   9  12
ENDBRANCH   5   6
ENDBRANCH   2   5
BRANCH   2  18
ATOM     18  C   UNL     1      -0.843  -4.907  -1.476  0.00  0.00    +0.019 C 
BRANCH  18  19
ATOM     19  C   UNL     1       0.367  -4.488  -0.681  0.00  0.00    +0.197 C 
ATOM     20  O   UNL     1       0.849  -5.246   0.134  0.00  0.00    -0.278 OA
ATOM     21  N   UNL     1       0.913  -3.271  -0.876  0.00  0.00    -0.313 N 
ATOM     22  H   UNL     1       0.527  -2.665  -1.527  0.00  0.00    +0.149 HD
BRANCH  21  23
ATOM     23  C   UNL     1       2.089  -2.864  -0.103  0.00  0.00    +0.152 C 
BRANCH  23  24
ATOM     24  C   UNL     1       2.505  -1.450  -0.514  0.00  0.00    +0.228 C 
ATOM     25  C   UNL     1       3.792  -1.054   0.222  0.00  0.00    +0.275 C 
ATOM     26  O   UNL     1       4.144   0.276  -0.175  0.00  0.00    -0.485 OA
ATOM     27  C   UNL     1       3.142   1.197  -0.185  0.00  0.00    +0.162 A 
ATOM     28  C   UNL     1       3.458   2.547  -0.205  0.00  0.00    +0.049 A 
ATOM     29  C   UNL     1       2.452   3.494  -0.220  0.00  0.00    +0.004 A 
ATOM     30  C   UNL     1       1.127   3.098  -0.215  0.00  0.00    +0.004 A 
ATOM     31  C   UNL     1       0.805   1.754  -0.187  0.00  0.00    +0.049 A 
ATOM     32  C   UNL     1       1.810   0.799  -0.177  0.00  0.00    +0.163 A 
ATOM     33  O   UNL     1       1.477  -0.521  -0.153  0.00  0.00    -0.480 OA
ENDBRANCH  23  24
ENDBRANCH  21  23
ENDBRANCH  18  19
ENDBRANCH   2  18
TORSDOF 8
