REMARK  Name = ZINC32123777
REMARK  11 active torsions:
REMARK  status: ('A' for Active; 'I' for Inactive)
REMARK    1  A    between atoms: C_1  and  C_2
REMARK    2  A    between atoms: C_5  and  C_29
REMARK    3  A    between atoms: C_6  and  O_8
REMARK    4  A    between atoms: O_8  and  C_9
REMARK    5  A    between atoms: C_9  and  C_10
REMARK    6  A    between atoms: N_12  and  C_13
REMARK    7  A    between atoms: C_16  and  O_22
REMARK    8  A    between atoms: O_22  and  C_23
REMARK    9  A    between atoms: N_25  and  C_28
REMARK   10  A    between atoms: C_29  and  C_30
REMARK   11  A    between atoms: C_29  and  C_31
REMARK                            x       y       z     vdW  Elec       q    Type
REMARK                         _______ _______ _______ _____ _____    ______ ____
ROOT
ATOM      1  C   UNL     1      -1.157  -0.686   0.368  0.00  0.00    +0.083 A 
ATOM      2  C   UNL     1      -0.411  -1.335   1.348  0.00  0.00    -0.019 A 
ATOM      3  C   UNL     1       0.715  -2.048   0.996  0.00  0.00    -0.014 A 
ATOM      4  C   UNL     1       1.105  -2.112  -0.338  0.00  0.00    +0.167 A 
ATOM      5  C   UNL     1       0.366  -1.465  -1.319  0.00  0.00    +0.210 A 
ATOM      6  C   UNL     1      -0.771  -0.749  -0.966  0.00  0.00    +0.191 A 
ATOM      7  O   UNL     1      -1.318  -0.211  -2.095  0.00  0.00    -0.451 OA
ATOM      8  C   UNL     1      -0.277  -0.264  -3.089  0.00  0.00    +0.467 C 
ATOM      9  O   UNL     1       0.536  -1.377  -2.672  0.00  0.00    -0.449 OA
ATOM     10  C   UNL     1       1.547  -2.775   2.020  0.00  0.00    -0.039 C 
ATOM     11  N   UNL     1       1.254  -2.276   3.368  0.00  0.00    +0.381 N 
ATOM     12  C   UNL     1      -0.195  -2.318   3.622  0.00  0.00    -0.074 C 
ATOM     13  C   UNL     1      -0.867  -1.233   2.781  0.00  0.00    +0.019 C 
ATOM     14  C   UNL     1       1.989  -3.041   4.383  0.00  0.00    -0.096 C 
ATOM     15  H   UNL     1       1.591  -1.231   3.429  0.00  0.00    -0.082 HD
ENDROOT
BRANCH   1  18
ATOM     16  C   UNL     1      -3.514  -0.556   0.689  0.00  0.00    +0.255 C 
ATOM     17  O   UNL     1      -3.602  -1.737   0.425  0.00  0.00    -0.272 OA
ATOM     18  N   UNL     1      -2.304   0.037   0.729  0.00  0.00    -0.279 N 
ATOM     19  H   UNL     1      -2.216   1.087   1.044  0.00  0.00    +0.155 HD
BRANCH  16  20
ATOM     20  C   UNL     1      -4.756   0.248   0.971  0.00  0.00    +0.324 C 
BRANCH  20  21
ATOM     21  O   UNL     1      -5.904  -0.597   0.868  0.00  0.00    -0.482 OA
BRANCH  21  27
ATOM     22  C   UNL     1      -8.518   3.372   1.983  0.00  0.00    +0.044 C 
ATOM     23  C   UNL     1      -8.429   1.907   1.640  0.00  0.00    -0.047 A 
ATOM     24  C   UNL     1      -9.580   1.145   1.557  0.00  0.00    +0.004 A 
ATOM     25  C   UNL     1      -9.501  -0.199   1.243  0.00  0.00    +0.008 A 
ATOM     26  C   UNL     1      -8.271  -0.784   1.012  0.00  0.00    -0.003 A 
ATOM     27  C   UNL     1      -7.115  -0.023   1.095  0.00  0.00    +0.125 A 
ATOM     28  C   UNL     1      -7.197   1.325   1.415  0.00  0.00    +0.049 A 
BRANCH  26  29
ATOM     29  C   UNL     1      -8.186  -2.250   0.669  0.00  0.00    +0.016 C 
ATOM     30  C   UNL     1      -8.779  -3.076   1.812  0.00  0.00    +0.012 C 
ATOM     31  C   UNL     1      -8.972  -2.519  -0.616  0.00  0.00    +0.012 C 
ENDBRANCH  26  29
ENDBRANCH  21  27
ENDBRANCH  20  21
ENDBRANCH  16  20
ENDBRANCH   1  18
BRANCH   4  32
ATOM     32  O   UNL     1       2.218  -2.814  -0.683  0.00  0.00    -0.491 OA
ATOM     33  C   UNL     1       2.041  -4.195  -1.004  0.00  0.00    +0.277 C 
ENDBRANCH   4  32
TORSDOF 6
