REMARK  Name = ZINC12905526
REMARK  7 active torsions:
REMARK  status: ('A' for Active; 'I' for Inactive)
REMARK    1  A    between atoms: C_1  and  C_2
REMARK    2  A    between atoms: C_5  and  S_7
REMARK    3  A    between atoms: S_7  and  C_8
REMARK    4  A    between atoms: C_8  and  C_9
REMARK    5  A    between atoms: C_12  and  C_14
REMARK    6  A    between atoms: C_17  and  O_20
REMARK    7  A    between atoms: O_20  and  C_21
REMARK                            x       y       z     vdW  Elec       q    Type
REMARK                         _______ _______ _______ _____ _____    ______ ____
ROOT
ATOM      1  C   UNL     1      -1.115   3.470   7.332  0.00  0.00    +0.090 A 
ATOM      2  C   UNL     1      -1.099   2.637   8.388  0.00  0.00    +0.221 A 
ATOM      3  O   UNL     1      -0.729   3.361   9.463  0.00  0.00    -0.443 OA
ATOM      4  C   UNL     1      -0.532   4.626   9.056  0.00  0.00    +0.227 A 
ATOM      5  N   UNL     1      -0.765   4.691   7.766  0.00  0.00    -0.213 NA
ENDROOT
BRANCH   4   6
ATOM      6  C   UNL     1      -0.120   5.755   9.915  0.00  0.00    +0.037 A 
ATOM      7  C   UNL     1       0.057   7.026   9.364  0.00  0.00    +0.017 A 
ATOM      8  C   UNL     1       0.436   8.078  10.171  0.00  0.00    +0.046 A 
ATOM      9  C   UNL     1       0.652   7.873  11.527  0.00  0.00    +0.120 A 
ATOM     10  C   UNL     1       0.481   6.609  12.078  0.00  0.00    +0.046 A 
ATOM     11  C   UNL     1       0.097   5.553  11.280  0.00  0.00    +0.017 A 
BRANCH   9  12
ATOM     12  O   UNL     1       1.031   8.911  12.317  0.00  0.00    -0.495 OA
ATOM     13  C   UNL     1       1.188  10.183  11.686  0.00  0.00    +0.277 C 
ENDBRANCH   9  12
ENDBRANCH   4   6
BRANCH   1  14
ATOM     14  C   UNL     1      -1.468   3.099   5.915  0.00  0.00    +0.135 C 
BRANCH  14  15
ATOM     15  S   UNL     1       0.029   2.593   5.032  0.00  0.00    -0.092 S 
BRANCH  15  20
ATOM     16  C   UNL     1      -0.013   1.086   0.008  0.00  0.00    +0.066 C 
ATOM     17  C   UNL     1      -0.718   1.572   1.248  0.00  0.00    +0.047 A 
ATOM     18  C   UNL     1      -2.055   1.790   1.244  0.00  0.00    +0.070 A 
ATOM     19  S   UNL     1      -2.309   2.332   2.927  0.00  0.00    -0.069 S 
ATOM     20  C   UNL     1      -0.657   2.226   3.451  0.00  0.00    +0.135 A 
ATOM     21  N   UNL     1      -0.046   1.800   2.361  0.00  0.00    -0.238 NA
ENDBRANCH  15  20
ENDBRANCH  14  15
ENDBRANCH   1  14
TORSDOF 5
