REMARK  Name = ZINC11996786
REMARK  8 active torsions:
REMARK  status: ('A' for Active; 'I' for Inactive)
REMARK    1  A    between atoms: C_1  and  C_2
REMARK    2  A    between atoms: N_4  and  C_5
REMARK    3  A    between atoms: C_8  and  S_11
REMARK    4  A    between atoms: S_11  and  C_14
REMARK    5  A    between atoms: C_21  and  N_56
REMARK    6  A    between atoms: C_23  and  C_24
REMARK    7  A    between atoms: C_23  and  N_56
REMARK    8  A    between atoms: C_24  and  C_25
REMARK                            x       y       z     vdW  Elec       q    Type
REMARK                         _______ _______ _______ _____ _____    ______ ____
ROOT
ATOM      1  C   UNL     1      -4.969   0.825  -6.548  0.00  0.00    +0.144 C 
ATOM      2  C   UNL     1      -6.386   0.771  -7.160  0.00  0.00    +0.190 C 
ATOM      3  S   UNL     1      -7.432   1.117  -5.679  0.00  0.00    -0.031 S 
ATOM      4  O   UNL     1      -7.480   2.520  -5.454  0.00  0.00    -0.174 OA
ATOM      5  O   UNL     1      -8.640   0.376  -5.772  0.00  0.00    -0.174 OA
ATOM      6  C   UNL     1      -6.328   0.335  -4.423  0.00  0.00    +0.152 C 
ATOM      7  C   UNL     1      -4.937   0.586  -5.046  0.00  0.00    -0.024 C 
ENDROOT
BRANCH   1   8
ATOM      8  S   UNL     1      -3.941  -0.433  -7.356  0.00  0.00    -0.000 S 
ATOM      9  O   UNL     1      -2.573  -0.233  -7.027  0.00  0.00    -0.169 OA
ATOM     10  O   UNL     1      -4.539  -1.715  -7.221  0.00  0.00    -0.169 OA
BRANCH   8  14
ATOM     11  C   UNL     1      -4.213   0.508 -11.778  0.00  0.00    +0.033 A 
ATOM     12  C   UNL     1      -3.215   1.085 -11.004  0.00  0.00    +0.025 A 
ATOM     13  C   UNL     1      -3.135   0.796  -9.656  0.00  0.00    +0.029 A 
ATOM     14  C   UNL     1      -4.047  -0.067  -9.077  0.00  0.00    +0.089 A 
ATOM     15  C   UNL     1      -5.039  -0.647  -9.846  0.00  0.00    +0.029 A 
ATOM     16  C   UNL     1      -5.128  -0.358 -11.193  0.00  0.00    +0.025 A 
BRANCH  11  20
ATOM     17  C   UNL     1      -3.272   1.460 -15.296  0.00  0.00    +0.109 C 
ATOM     18  C   UNL     1      -3.176   1.030 -13.855  0.00  0.00    +0.214 C 
ATOM     19  O   UNL     1      -2.089   0.893 -13.334  0.00  0.00    -0.276 OA
ATOM     20  N   UNL     1      -4.298   0.799 -13.144  0.00  0.00    -0.286 N 
ATOM     21  H   UNL     1      -5.164   0.834 -13.580  0.00  0.00    +0.155 HD
ENDBRANCH  11  20
ENDBRANCH   8  14
ENDBRANCH   1   8
BRANCH   7  22
ATOM     22  N   UNL     1      -4.337   1.769  -4.401  0.00  0.00    +0.383 N 
ATOM     23  H   UNL     1      -5.064   2.477  -4.250  0.00  0.00    -0.085 HD
ATOM     24  H   UNL     1      -3.607   2.154  -5.012  0.00  0.00    -0.085 HD
BRANCH  22  25
ATOM     25  C   UNL     1      -3.740   1.398  -3.104  0.00  0.00    -0.078 C 
BRANCH  25  26
ATOM     26  C   UNL     1      -3.127   2.643  -2.460  0.00  0.00    +0.011 C 
BRANCH  26  27
ATOM     27  C   UNL     1      -2.515   2.273  -1.134  0.00  0.00    -0.075 C 
ATOM     28  C   UNL     1      -1.250   1.999  -1.104  0.00  0.00    -0.028 C 
ATOM     29  C   UNL     1      -0.504   1.604   0.137  0.00  0.00    +0.027 C 
ATOM     30  C   UNL     1      -1.317   1.979   1.378  0.00  0.00    +0.004 C 
ATOM     31  C   UNL     1      -2.745   1.459   1.203  0.00  0.00    +0.005 C 
ATOM     32  C   UNL     1      -3.410   2.245   0.071  0.00  0.00    +0.030 C 
ENDBRANCH  26  27
ENDBRANCH  25  26
ENDBRANCH  22  25
ENDBRANCH   7  22
TORSDOF 7
