REMARK  Name = ZINC20916330
REMARK  9 active torsions:
REMARK  status: ('A' for Active; 'I' for Inactive)
REMARK    1  A    between atoms: C_1  and  C_2
REMARK    2  A    between atoms: C_2  and  C_3
REMARK    3  A    between atoms: C_2  and  C_4
REMARK    4  A    between atoms: C_4  and  S_5
REMARK    5  A    between atoms: S_5  and  C_6
REMARK    6  A    between atoms: N_10  and  N_11
REMARK    7  A    between atoms: N_12  and  N_13
REMARK    8  A    between atoms: C_14  and  C_15
REMARK    9  A    between atoms: C_24  and  O_25
REMARK                            x       y       z     vdW  Elec       q    Type
REMARK                         _______ _______ _______ _____ _____    ______ ____
ROOT
ATOM      1  C   UNL     1      -3.234  11.553   0.094  0.00  0.00    +0.210 A 
ATOM      2  N   UNL     1      -1.922  11.544   0.082  0.00  0.00    -0.119 NA
ATOM      3  N   UNL     1      -1.498  10.209   0.076  0.00  0.00    -0.109 NA
ATOM      4  C   UNL     1      -2.563   9.445   0.076  0.00  0.00    +0.254 A 
ATOM      5  N   UNL     1      -3.664  10.256   0.091  0.00  0.00    -0.211 N 
ATOM      6  N   UNL     1      -2.573   8.059   0.069  0.00  0.00    -0.204 N 
ATOM      7  H   UNL     1      -3.529   7.515   0.075  0.00  0.00    +0.177 HD
ENDROOT
BRANCH   5   8
ATOM      8  N   UNL     1      -4.966   9.843   0.100  0.00  0.00    -0.294 N 
ATOM      9  H   UNL     1      -5.202   8.768   0.096  0.00  0.00    +0.163 HD
ATOM     10  H   UNL     1      -5.779  10.584   0.111  0.00  0.00    +0.163 HD
ENDBRANCH   5   8
BRANCH   6  11
ATOM     11  N   UNL     1      -1.364   7.350   0.054  0.00  0.00    -0.187 NA
ATOM     12  C   UNL     1      -1.373   6.050   0.047  0.00  0.00    +0.142 C 
BRANCH  12  13
ATOM     13  C   UNL     1      -0.105   5.307   0.032  0.00  0.00    +0.044 A 
ATOM     14  C   UNL     1      -0.096   3.845   0.024  0.00  0.00    -0.006 A 
ATOM     15  C   UNL     1      -1.286   3.107   0.031  0.00  0.00    +0.009 A 
ATOM     16  C   UNL     1      -1.234   1.745   0.017  0.00  0.00    +0.001 A 
ATOM     17  C   UNL     1      -0.013   1.076   0.008  0.00  0.00    +0.001 A 
ATOM     18  C   UNL     1       1.163   1.762   0.000  0.00  0.00    +0.008 A 
ATOM     19  C   UNL     1       1.148   3.168   0.008  0.00  0.00    -0.017 A 
ATOM     20  C   UNL     1       2.341   3.910   0.000  0.00  0.00    +0.012 A 
ATOM     21  C   UNL     1       2.315   5.270   0.009  0.00  0.00    +0.046 A 
ATOM     22  C   UNL     1       1.116   5.981   0.023  0.00  0.00    +0.126 A 
BRANCH  22  23
ATOM     23  O   UNL     1       1.137   7.339   0.030  0.00  0.00    -0.506 OA
ATOM     24  H   UNL     1       2.098   7.874   0.024  0.00  0.00    +0.292 HD
ENDBRANCH  22  23
ENDBRANCH  12  13
ENDBRANCH   6  11
BRANCH   1  25
ATOM     25  S   UNL     1      -4.260  12.985   0.112  0.00  0.00    -0.084 S 
BRANCH  25  26
ATOM     26  C   UNL     1      -3.085  14.367   0.109  0.00  0.00    +0.080 C 
BRANCH  26  28
ATOM     27  C   UNL     1      -2.866  16.852   0.247  0.00  0.00    +0.008 C 
ATOM     28  C   UNL     1      -3.854  15.690   0.124  0.00  0.00    -0.007 C 
ATOM     29  C   UNL     1      -4.649  15.832  -1.176  0.00  0.00    +0.008 C 
ENDBRANCH  26  28
ENDBRANCH  25  26
ENDBRANCH   1  25
TORSDOF 7
