REMARK  Name = ZINC61089107
REMARK  5 active torsions:
REMARK  status: ('A' for Active; 'I' for Inactive)
REMARK    1  A    between atoms: C_1  and  C_2
REMARK    2  A    between atoms: C_2  and  C_4
REMARK    3  A    between atoms: C_2  and  N_9
REMARK    4  A    between atoms: C_10  and  C_12
REMARK    5  A    between atoms: C_14  and  N_20
REMARK                            x       y       z     vdW  Elec       q    Type
REMARK                         _______ _______ _______ _____ _____    ______ ____
ROOT
ATOM      1  N   UNL     1      -1.372  -0.511   0.012  0.00  0.00    -0.302 N 
ATOM      2  C   UNL     1      -2.051  -0.643  -1.145  0.00  0.00    +0.246 C 
ATOM      3  O   UNL     1      -1.522  -0.341  -2.197  0.00  0.00    -0.270 OA
ATOM      4  H   UNL     1      -1.794  -0.752   0.852  0.00  0.00    +0.150 HD
ENDROOT
BRANCH   2   5
ATOM      5  C   UNL     1      -3.436  -1.154  -1.134  0.00  0.00    +0.053 A 
ATOM      6  C   UNL     1      -4.048  -1.496   0.074  0.00  0.00    +0.039 A 
ATOM      7  C   UNL     1      -5.346  -1.974   0.077  0.00  0.00    +0.061 A 
ATOM      8  C   UNL     1      -6.040  -2.113  -1.123  0.00  0.00    +0.145 A 
ATOM      9  C   UNL     1      -5.435  -1.774  -2.320  0.00  0.00    +0.056 A 
ATOM     10  C   UNL     1      -4.141  -1.291  -2.332  0.00  0.00    +0.033 A 
ATOM     11 BR   UNL     1      -3.322  -0.822  -3.971  0.00  0.00    -0.049 Br
ATOM     12  F   UNL     1      -7.308  -2.580  -1.117  0.00  0.00    -0.204 F 
BRANCH   7  13
ATOM     13  N   UNL     1      -5.962  -2.319   1.285  0.00  0.00    -0.356 N 
ATOM     14  H   UNL     1      -5.479  -2.222   2.121  0.00  0.00    +0.142 HD
ATOM     15  H   UNL     1      -6.873  -2.654   1.287  0.00  0.00    +0.142 HD
ENDBRANCH   7  13
ENDBRANCH   2   5
BRANCH   1  17
ATOM     16  C   UNL     1      -0.019   1.526   0.010  0.00  0.00    +0.036 C 
ATOM     17  C   UNL     1       0.002  -0.004   0.002  0.00  0.00    +0.142 C 
BRANCH  17  18
ATOM     18  C   UNL     1       0.731  -0.503   1.223  0.00  0.00    +0.196 A 
ATOM     19  N   UNL     1       1.955  -1.010   1.260  0.00  0.00    -0.109 NA
ATOM     20  N   UNL     1       2.212  -1.317   2.486  0.00  0.00    -0.021 NA
ATOM     21  N   UNL     1       1.194  -1.020   3.215  0.00  0.00    -0.021 NA
ATOM     22  N   UNL     1       0.274  -0.515   2.466  0.00  0.00    -0.109 NA
ENDBRANCH  17  18
ENDBRANCH   1  17
TORSDOF 4
