REMARK  Name = ZINC47096618
REMARK  7 active torsions:
REMARK  status: ('A' for Active; 'I' for Inactive)
REMARK    1  A    between atoms: C_1  and  C_2
REMARK    2  A    between atoms: C_4  and  C_25
REMARK    3  A    between atoms: N_5  and  C_7
REMARK    4  A    between atoms: C_7  and  C_8
REMARK    5  A    between atoms: C_8  and  C_10
REMARK    6  A    between atoms: C_8  and  C_11
REMARK    7  A    between atoms: C_11  and  N_12
REMARK                            x       y       z     vdW  Elec       q    Type
REMARK                         _______ _______ _______ _____ _____    ______ ____
ROOT
ATOM      1  N   UNL     1       2.913  -5.144   3.147  0.00  0.00    -0.299 N 
ATOM      2  C   UNL     1       3.178  -6.137   4.019  0.00  0.00    +0.303 C 
ATOM      3  O   UNL     1       2.265  -6.726   4.566  0.00  0.00    -0.253 OA
ATOM      4  N   UNL     1       4.455  -6.478   4.284  0.00  0.00    -0.281 N 
ATOM      5  C   UNL     1       4.777  -7.630   5.143  0.00  0.00    +0.114 C 
ATOM      6  C   UNL     1       5.507  -8.664   4.287  0.00  0.00    +0.054 C 
ATOM      7  C   UNL     1       6.599  -8.015   3.477  0.00  0.00    -0.041 A 
ATOM      8  C   UNL     1       7.612  -8.833   2.990  0.00  0.00    +0.004 A 
ATOM      9  C   UNL     1       8.637  -8.305   2.234  0.00  0.00    +0.000 A 
ATOM     10  C   UNL     1       8.659  -6.950   1.955  0.00  0.00    +0.000 A 
ATOM     11  C   UNL     1       7.657  -6.136   2.441  0.00  0.00    +0.005 A 
ATOM     12  C   UNL     1       6.627  -6.666   3.207  0.00  0.00    -0.027 A 
ATOM     13  C   UNL     1       5.578  -5.720   3.724  0.00  0.00    +0.144 C 
ATOM     14  H   UNL     1       3.639  -4.626   2.767  0.00  0.00    +0.150 HD
ENDROOT
BRANCH   1  15
ATOM     15  C   UNL     1       1.527  -4.848   2.774  0.00  0.00    +0.110 C 
BRANCH  15  16
ATOM     16  C   UNL     1       1.504  -3.686   1.778  0.00  0.00    +0.024 C 
ATOM     17  C   UNL     1       2.191  -4.114   0.480  0.00  0.00    +0.011 C 
BRANCH  16  18
ATOM     18  C   UNL     1       0.055  -3.295   1.484  0.00  0.00    +0.148 C 
BRANCH  18  23
ATOM     19  C   UNL     1      -0.022   1.505   0.017  0.00  0.00    +0.067 C 
ATOM     20  C   UNL     1       0.000  -0.002   0.007  0.00  0.00    +0.060 A 
ATOM     21  C   UNL     1       0.009  -0.814  -1.132  0.00  0.00    +0.047 A 
ATOM     22  C   UNL     1       0.030  -2.104  -0.724  0.00  0.00    +0.036 A 
ATOM     23  N   UNL     1       0.034  -2.108   0.626  0.00  0.00    -0.268 N 
ATOM     24  N   UNL     1       0.021  -0.776   1.061  0.00  0.00    -0.176 NA
ATOM     25  C   UNL     1       0.045  -3.318  -1.616  0.00  0.00    +0.065 C 
ENDBRANCH  18  23
ENDBRANCH  16  18
ENDBRANCH  15  16
ENDBRANCH   1  15
TORSDOF 4
