REMARK  Name = ZINC06511237
REMARK  15 active torsions:
REMARK  status: ('A' for Active; 'I' for Inactive)
REMARK    1  A    between atoms: C_1  and  C_2
REMARK    2  A    between atoms: C_2  and  N_78
REMARK    3  A    between atoms: C_3  and  C_4
REMARK    4  A    between atoms: C_3  and  N_78
REMARK    5  A    between atoms: C_5  and  C_6
REMARK    6  A    between atoms: C_5  and  N_78
REMARK    7  A    between atoms: C_6  and  C_7
REMARK    8  A    between atoms: C_7  and  N_8
REMARK    9  A    between atoms: N_8  and  C_9
REMARK   10  A    between atoms: C_9  and  C_11
REMARK   11  A    between atoms: C_9  and  C_18
REMARK   12  A    between atoms: N_20  and  C_21
REMARK   13  A    between atoms: C_21  and  C_22
REMARK   14  A    between atoms: C_28  and  C_30
REMARK   15  A    between atoms: C_33  and  C_36
REMARK                            x       y       z     vdW  Elec       q    Type
REMARK                         _______ _______ _______ _____ _____    ______ ____
ROOT
ATOM      1  N   UNL     1      -4.934   1.101   3.451  0.00  0.00    -0.281 N 
ATOM      2  C   UNL     1      -6.066   1.821   3.312  0.00  0.00    +0.264 C 
ATOM      3  O   UNL     1      -6.570   1.956   2.212  0.00  0.00    -0.268 OA
ENDROOT
BRANCH   2   4
ATOM      4  C   UNL     1      -6.689   2.441   4.485  0.00  0.00    +0.102 A 
ATOM      5  C   UNL     1      -7.875   3.148   4.496  0.00  0.00    +0.033 A 
ATOM      6  C   UNL     1      -8.104   3.559   5.807  0.00  0.00    +0.028 A 
ATOM      7  C   UNL     1      -7.054   3.107   6.577  0.00  0.00    +0.047 A 
ATOM      8  N   UNL     1      -6.192   2.425   5.769  0.00  0.00    -0.351 N 
ATOM      9  H   UNL     1      -5.367   2.001   6.052  0.00  0.00    +0.166 HD
BRANCH   7  10
ATOM     10  C   UNL     1      -6.890   3.324   8.030  0.00  0.00    -0.002 A 
ATOM     11  C   UNL     1      -5.777   2.806   8.695  0.00  0.00    +0.010 A 
ATOM     12  C   UNL     1      -5.627   3.018  10.050  0.00  0.00    +0.001 A 
ATOM     13  C   UNL     1      -6.582   3.731  10.752  0.00  0.00    +0.000 A 
ATOM     14  C   UNL     1      -7.691   4.242  10.100  0.00  0.00    +0.001 A 
ATOM     15  C   UNL     1      -7.850   4.043   8.744  0.00  0.00    +0.010 A 
ENDBRANCH   7  10
ENDBRANCH   2   4
BRANCH   1  16
ATOM     16  C   UNL     1      -4.404   0.822   4.788  0.00  0.00    +0.107 C 
BRANCH  16  17
ATOM     17  C   UNL     1      -3.554   2.004   5.257  0.00  0.00    +0.000 C 
BRANCH  17  18
ATOM     18  C   UNL     1      -2.893   1.659   6.593  0.00  0.00    -0.077 C 
BRANCH  18  19
ATOM     19  N   UNL     1      -2.094   2.820   7.040  0.00  0.00    +0.379 N 
ATOM     20  H   UNL     1      -1.597   3.213   6.232  0.00  0.00    -0.082 HD
BRANCH  19  22
ATOM     21  C   UNL     1      -2.165   5.125   7.854  0.00  0.00    -0.017 C 
ATOM     22  C   UNL     1      -2.982   3.856   7.608  0.00  0.00    -0.082 C 
ENDBRANCH  19  22
BRANCH  19  23
ATOM     23  C   UNL     1      -1.105   2.393   8.051  0.00  0.00    -0.082 C 
ATOM     24  C   UNL     1       0.061   1.706   7.337  0.00  0.00    -0.017 C 
ENDBRANCH  19  23
ENDBRANCH  18  19
ENDBRANCH  17  18
ENDBRANCH  16  17
ENDBRANCH   1  16
BRANCH   1  25
ATOM     25  C   UNL     1      -4.236   0.599   2.266  0.00  0.00    +0.192 C 
BRANCH  25  26
ATOM     26  C   UNL     1      -4.992  -0.573   1.696  0.00  0.00    -0.018 A 
ATOM     27  C   UNL     1      -5.594  -1.485   2.543  0.00  0.00    +0.009 A 
ATOM     28  C   UNL     1      -6.292  -2.557   2.022  0.00  0.00    +0.038 A 
ATOM     29  C   UNL     1      -6.379  -2.725   0.650  0.00  0.00    +0.123 A 
ATOM     30  C   UNL     1      -5.771  -1.814  -0.198  0.00  0.00    +0.038 A 
ATOM     31  C   UNL     1      -5.078  -0.739   0.326  0.00  0.00    +0.009 A 
ATOM     32  F   UNL     1      -7.057  -3.775   0.139  0.00  0.00    -0.205 F 
ENDBRANCH  25  26
BRANCH  25  33
ATOM     33  C   UNL     1      -2.846   0.161   2.650  0.00  0.00    +0.238 C 
ATOM     34  O   UNL     1      -2.378   0.497   3.718  0.00  0.00    -0.273 OA
ATOM     35  N   UNL     1      -2.123  -0.603   1.808  0.00  0.00    -0.311 N 
ATOM     36  H   UNL     1      -2.497  -0.872   0.954  0.00  0.00    +0.149 HD
BRANCH  35  37
ATOM     37  C   UNL     1      -0.772  -1.029   2.182  0.00  0.00    +0.135 C 
BRANCH  37  38
ATOM     38  C   UNL     1      -0.176  -1.880   1.058  0.00  0.00    +0.135 C 
ATOM     39  C   UNL     1       1.215  -2.412   1.467  0.00  0.00    +0.035 C 
ATOM     40  C   UNL     1       2.036  -2.361   0.158  0.00  0.00    +0.031 C 
ATOM     41  C   UNL     1       1.043  -1.804  -0.886  0.00  0.00    +0.160 C 
ATOM     42  O   UNL     1       0.067  -1.071  -0.113  0.00  0.00    -0.375 OA
ENDBRANCH  37  38
ENDBRANCH  35  37
ENDBRANCH  25  33
ENDBRANCH   1  25
TORSDOF 13
