REMARK  Name = ZINC16041262
REMARK  7 active torsions:
REMARK  status: ('A' for Active; 'I' for Inactive)
REMARK    1  A    between atoms: C_1  and  C_2
REMARK    2  A    between atoms: C_4  and  N_22
REMARK    3  A    between atoms: C_7  and  N_8
REMARK    4  A    between atoms: N_8  and  C_9
REMARK    5  A    between atoms: C_9  and  C_21
REMARK    6  A    between atoms: C_15  and  C_16
REMARK    7  A    between atoms: C_15  and  C_17
REMARK                            x       y       z     vdW  Elec       q    Type
REMARK                         _______ _______ _______ _____ _____    ______ ____
ROOT
ATOM      1  N   UNL     1      -1.207   2.143   0.157  0.00  0.00    -0.317 N 
ATOM      2  H   UNL     1      -1.254   2.944   0.702  0.00  0.00    +0.152 HD
ENDROOT
BRANCH   1   3
ATOM      3  C   UNL     1      -0.087   1.366   0.181  0.00  0.00    +0.012 C 
ATOM      4  C   UNL     1       1.112   1.894  -0.168  0.00  0.00    +0.016 C 
ATOM      5  C   UNL     1       2.413   1.136  -0.186  0.00  0.00    +0.034 C 
ATOM      6  C   UNL     1       3.499   2.120  -0.644  0.00  0.00    +0.011 C 
ATOM      7  C   UNL     1       3.121   0.904  -1.522  0.00  0.00    -0.024 C 
ATOM      8  C   UNL     1       4.127  -0.246  -1.598  0.00  0.00    +0.012 C 
ATOM      9  C   UNL     1       2.322   1.166  -2.800  0.00  0.00    +0.012 C 
ATOM     10  C   UNL     1       2.770   3.451  -0.875  0.00  0.00    +0.084 C 
ATOM     11  C   UNL     1       1.315   3.216  -0.567  0.00  0.00    +0.161 C 
ATOM     12  O   UNL     1       0.443   4.058  -0.652  0.00  0.00    -0.292 OA
ATOM     13  C   UNL     1      -0.183  -0.081   0.589  0.00  0.00    +0.061 C 
ENDBRANCH   1   3
BRANCH   1  20
ATOM     14  C   UNL     1      -3.603   3.663   0.368  0.00  0.00    +0.046 C 
ATOM     15  C   UNL     1      -3.477   2.501  -0.583  0.00  0.00    -0.027 A 
ATOM     16  C   UNL     1      -4.543   2.146  -1.386  0.00  0.00    +0.038 A 
ATOM     17  C   UNL     1      -4.428   1.081  -2.260  0.00  0.00    +0.127 A 
ATOM     18  C   UNL     1      -3.245   0.367  -2.333  0.00  0.00    +0.034 A 
ATOM     19  C   UNL     1      -2.174   0.720  -1.537  0.00  0.00    +0.026 A 
ATOM     20  C   UNL     1      -2.288   1.786  -0.654  0.00  0.00    +0.034 A 
BRANCH  17  21
ATOM     21  N   UNL     1      -5.572   0.703  -3.120  0.00  0.00    +0.056 N 
ATOM     22  O   UNL     1      -6.614   1.331  -3.057  0.00  0.00    -0.126 OA
ATOM     23  O   UNL     1      -5.472  -0.235  -3.890  0.00  0.00    -0.126 OA
ENDBRANCH  17  21
ENDBRANCH   1  20
TORSDOF 3
