REMARK  Name = ZINC09672632
REMARK  12 active torsions:
REMARK  status: ('A' for Active; 'I' for Inactive)
REMARK    1  A    between atoms: C_1  and  C_2
REMARK    2  A    between atoms: C_2  and  C_3
REMARK    3  A    between atoms: C_3  and  C_4
REMARK    4  A    between atoms: C_4  and  N_5
REMARK    5  A    between atoms: C_6  and  N_36
REMARK    6  A    between atoms: C_7  and  N_14
REMARK    7  A    between atoms: N_14  and  C_15
REMARK    8  A    between atoms: C_15  and  C_16
REMARK    9  A    between atoms: C_21  and  C_23
REMARK   10  A    between atoms: C_26  and  N_29
REMARK   11  A    between atoms: C_30  and  C_35
REMARK   12  A    between atoms: C_33  and  C_34
REMARK                            x       y       z     vdW  Elec       q    Type
REMARK                         _______ _______ _______ _____ _____    ______ ____
ROOT
ATOM      1  N   UNL     1      -5.359  -3.243   0.996  0.00  0.00    -0.253 N 
ATOM      2  C   UNL     1      -4.503  -2.873   0.023  0.00  0.00    +0.251 C 
ATOM      3  O   UNL     1      -3.673  -2.010   0.238  0.00  0.00    -0.270 OA
ENDROOT
BRANCH   1   6
ATOM      4  N   UNL     1      -6.700  -6.591   0.295  0.00  0.00    -0.280 N 
ATOM      5  C   UNL     1      -5.796  -5.576   0.504  0.00  0.00    +0.127 A 
ATOM      6  C   UNL     1      -6.260  -4.305   0.777  0.00  0.00    +0.140 A 
ATOM      7  C   UNL     1      -7.650  -4.088   0.838  0.00  0.00    +0.277 A 
ATOM      8  O   UNL     1      -8.088  -2.977   1.082  0.00  0.00    -0.266 OA
ATOM      9  N   UNL     1      -8.493  -5.117   0.620  0.00  0.00    -0.273 N 
ATOM     10  H   UNL     1      -9.480  -4.962   0.655  0.00  0.00    +0.173 HD
ATOM     11  C   UNL     1      -8.022  -6.348   0.355  0.00  0.00    +0.331 A 
ATOM     12  O   UNL     1      -8.805  -7.259   0.167  0.00  0.00    -0.246 OA
BRANCH   5  13
ATOM     13  N   UNL     1      -4.445  -5.824   0.442  0.00  0.00    -0.343 N 
ATOM     14  H   UNL     1      -3.813  -5.123   0.665  0.00  0.00    +0.144 HD
ATOM     15  H   UNL     1      -4.125  -6.699   0.174  0.00  0.00    +0.144 HD
ENDBRANCH   5  13
BRANCH   4  16
ATOM     16  C   UNL     1      -6.221  -7.944   0.005  0.00  0.00    +0.128 C 
BRANCH  16  17
ATOM     17  C   UNL     1      -6.045  -8.715   1.315  0.00  0.00    +0.021 C 
BRANCH  17  19
ATOM     18  C   UNL     1      -5.368 -10.899   2.322  0.00  0.00    +0.004 C 
ATOM     19  C   UNL     1      -5.544 -10.129   1.012  0.00  0.00    -0.002 C 
ENDBRANCH  17  19
ENDBRANCH  16  17
ENDBRANCH   4  16
ENDBRANCH   1   6
BRANCH   2  20
ATOM     20  C   UNL     1      -4.574  -3.515  -1.305  0.00  0.00    +0.037 A 
ATOM     21  C   UNL     1      -3.455  -3.518  -2.142  0.00  0.00    +0.015 A 
ATOM     22  C   UNL     1      -3.524  -4.118  -3.379  0.00  0.00    +0.027 A 
ATOM     23  C   UNL     1      -4.706  -4.721  -3.796  0.00  0.00    +0.047 A 
ATOM     24  C   UNL     1      -5.823  -4.715  -2.968  0.00  0.00    +0.027 A 
ATOM     25  C   UNL     1      -5.759  -4.122  -1.727  0.00  0.00    +0.015 A 
BRANCH  23  26
ATOM     26  N   UNL     1      -4.772  -5.329  -5.054  0.00  0.00    -0.318 N 
ATOM     27  C   UNL     1      -4.956  -6.662  -5.285  0.00  0.00    +0.021 A 
ATOM     28  C   UNL     1      -4.965  -6.861  -6.619  0.00  0.00    +0.023 A 
ATOM     29  C   UNL     1      -4.780  -5.607  -7.235  0.00  0.00    +0.023 A 
ATOM     30  C   UNL     1      -4.665  -4.687  -6.255  0.00  0.00    +0.021 A 
ATOM     31  C   UNL     1      -4.454  -3.208  -6.452  0.00  0.00    +0.064 C 
ATOM     32  C   UNL     1      -5.115  -7.729  -4.232  0.00  0.00    +0.064 C 
ENDBRANCH  23  26
ENDBRANCH   2  20
BRANCH   1  33
ATOM     33  C   UNL     1      -5.351  -2.542   2.283  0.00  0.00    +0.188 C 
BRANCH  33  34
ATOM     34  C   UNL     1      -6.178  -1.286   2.175  0.00  0.00    +0.122 A 
ATOM     35  C   UNL     1      -7.451  -1.145   2.585  0.00  0.00    +0.046 A 
ATOM     36  C   UNL     1      -7.830   0.185   2.293  0.00  0.00    +0.041 A 
ATOM     37  C   UNL     1      -6.765   0.778   1.723  0.00  0.00    +0.195 A 
ATOM     38  O   UNL     1      -5.765  -0.117   1.660  0.00  0.00    -0.466 OA
ENDBRANCH  33  34
ENDBRANCH   1  33
TORSDOF 9
