REMARK  Name = ZINC37121505
REMARK  4 active torsions:
REMARK  status: ('A' for Active; 'I' for Inactive)
REMARK    1  A    between atoms: C_1  and  C_2
REMARK    2  A    between atoms: C_2  and  C_4
REMARK    3  A    between atoms: C_2  and  N_16
REMARK    4  A    between atoms: N_16  and  C_17
REMARK                            x       y       z     vdW  Elec       q    Type
REMARK                         _______ _______ _______ _____ _____    ______ ____
ROOT
ATOM      1  C   UNL     1      -0.019   1.526   0.010  0.00  0.00    +0.033 C 
ATOM      2  C   UNL     1       0.002  -0.004   0.002  0.00  0.00    +0.098 C 
ENDROOT
BRANCH   2   3
ATOM      3  C   UNL     1       0.707  -0.490  -1.238  0.00  0.00    -0.026 A 
ATOM      4  C   UNL     1       2.091  -0.510  -1.281  0.00  0.00    +0.007 A 
ATOM      5  C   UNL     1       2.747  -0.953  -2.413  0.00  0.00    +0.028 A 
ATOM      6  C   UNL     1       2.015  -1.381  -3.510  0.00  0.00    +0.067 A 
ATOM      7  C   UNL     1       0.620  -1.361  -3.467  0.00  0.00    +0.067 A 
ATOM      8  C   UNL     1      -0.029  -0.919  -2.324  0.00  0.00    +0.033 A 
ATOM      9  N   UNL     1       0.172  -1.841  -4.696  0.00  0.00    -0.306 N 
ATOM     10  H   UNL     1      -0.755  -1.943  -4.962  0.00  0.00    +0.170 HD
ATOM     11  C   UNL     1       1.246  -2.139  -5.451  0.00  0.00    +0.325 A 
ATOM     12  O   UNL     1       1.205  -2.582  -6.584  0.00  0.00    -0.247 OA
ATOM     13  N   UNL     1       2.373  -1.872  -4.764  0.00  0.00    -0.306 N 
ATOM     14  H   UNL     1       3.278  -2.000  -5.087  0.00  0.00    +0.170 HD
ENDBRANCH   2   3
BRANCH   2  15
ATOM     15  N   UNL     1       0.711  -0.489   1.189  0.00  0.00    -0.336 N 
ATOM     16  H   UNL     1       1.654  -0.707   1.135  0.00  0.00    +0.147 HD
BRANCH  15  17
ATOM     17  C   UNL     1       0.027  -0.639   2.398  0.00  0.00    +0.043 A 
ATOM     18  C   UNL     1      -1.325  -0.333   2.475  0.00  0.00    +0.039 A 
ATOM     19  C   UNL     1      -1.999  -0.482   3.673  0.00  0.00    +0.020 A 
ATOM     20  C   UNL     1      -1.327  -0.935   4.795  0.00  0.00    +0.016 A 
ATOM     21  C   UNL     1       0.020  -1.240   4.721  0.00  0.00    +0.018 A 
ATOM     22  C   UNL     1       0.698  -1.099   3.525  0.00  0.00    +0.039 A 
ATOM     23 BR   UNL     1       2.537  -1.524   3.424  0.00  0.00    -0.048 Br
ATOM     24 BR   UNL     1      -3.840  -0.065   3.780  0.00  0.00    -0.050 Br
ENDBRANCH  15  17
ENDBRANCH   2  15
TORSDOF 3
