REMARK  Name = ZINC14739676
REMARK  8 active torsions:
REMARK  status: ('A' for Active; 'I' for Inactive)
REMARK    1  A    between atoms: C_1  and  C_2
REMARK    2  A    between atoms: C_12  and  C_14
REMARK    3  A    between atoms: C_14  and  C_16
REMARK    4  A    between atoms: C_14  and  S_17
REMARK    5  A    between atoms: S_17  and  C_18
REMARK    6  A    between atoms: C_18  and  C_19
REMARK    7  A    between atoms: C_25  and  C_31
REMARK    8  A    between atoms: C_26  and  C_30
REMARK                            x       y       z     vdW  Elec       q    Type
REMARK                         _______ _______ _______ _____ _____    ______ ____
ROOT
ATOM      1  C   UNL     1       0.052   7.778   0.041  0.00  0.00    +0.130 C 
ATOM      2  C   UNL     1      -0.328   8.219  -1.374  0.00  0.00    +0.029 C 
ENDROOT
BRANCH   1  14
ATOM      3  C   UNL     1       1.254  -2.177  -0.021  0.00  0.00    +0.044 C 
ATOM      4  C   UNL     1       1.214  -0.670  -0.013  0.00  0.00    -0.049 A 
ATOM      5  C   UNL     1       2.392   0.062  -0.021  0.00  0.00    +0.005 A 
ATOM      6  C   UNL     1       2.383   1.433  -0.013  0.00  0.00    +0.029 A 
ATOM      7  C   UNL     1       1.163   2.147   0.003  0.00  0.00    +0.080 A 
ATOM      8  C   UNL     1      -0.017   1.368   0.010  0.00  0.00    +0.041 A 
ATOM      9  C   UNL     1       0.002  -0.004   0.002  0.00  0.00    +0.020 A 
ATOM     10  S   UNL     1      -1.289   2.609   0.021  0.00  0.00    -0.052 S 
ATOM     11  C   UNL     1      -0.212   4.035   0.024  0.00  0.00    +0.165 A 
ATOM     12  N   UNL     1       0.980   3.486   0.011  0.00  0.00    -0.225 NA
ATOM     13  N   UNL     1      -0.549   5.378   0.034  0.00  0.00    -0.264 N 
ATOM     14  C   UNL     1       0.419   6.316   0.030  0.00  0.00    +0.231 C 
ATOM     15  O   UNL     1       1.585   5.984   0.018  0.00  0.00    -0.274 OA
ATOM     16  H   UNL     1      -1.482   5.644   0.044  0.00  0.00    +0.157 HD
ENDBRANCH   1  14
BRANCH   1  17
ATOM     17  S   UNL     1       1.468   8.753   0.618  0.00  0.00    -0.141 S 
BRANCH  17  18
ATOM     18  C   UNL     1       0.824  10.446   0.718  0.00  0.00    +0.144 C 
BRANCH  18  19
ATOM     19  C   UNL     1       1.915  11.371   1.192  0.00  0.00    +0.121 A 
ATOM     20  N   UNL     1       1.651  12.696   1.334  0.00  0.00    -0.310 N 
ATOM     21  H   UNL     1       0.763  13.028   1.128  0.00  0.00    +0.170 HD
ATOM     22  C   UNL     1       2.595  13.556   1.761  0.00  0.00    +0.260 A 
ATOM     23  O   UNL     1       2.340  14.741   1.888  0.00  0.00    -0.267 OA
ATOM     24  C   UNL     1       3.905  13.057   2.057  0.00  0.00    +0.075 A 
ATOM     25  C   UNL     1       5.080  13.772   2.520  0.00  0.00    -0.026 A 
ATOM     26  C   UNL     1       6.218  13.093   2.736  0.00  0.00    -0.008 A 
ATOM     27  S   UNL     1       5.781  11.414   2.324  0.00  0.00    -0.073 S 
ATOM     28  C   UNL     1       4.084  11.674   1.874  0.00  0.00    +0.116 A 
ATOM     29  N   UNL     1       3.099  10.886   1.454  0.00  0.00    -0.226 NA
ATOM     30  C   UNL     1       7.546  13.623   3.211  0.00  0.00    +0.052 C 
ATOM     31  C   UNL     1       5.023  15.259   2.755  0.00  0.00    +0.045 C 
ENDBRANCH  18  19
ENDBRANCH  17  18
ENDBRANCH   1  17
TORSDOF 4
