REMARK  Name = ZINC39674761
REMARK  10 active torsions:
REMARK  status: ('A' for Active; 'I' for Inactive)
REMARK    1  A    between atoms: C_1  and  C_2
REMARK    2  A    between atoms: C_4  and  C_14
REMARK    3  A    between atoms: C_7  and  C_12
REMARK    4  A    between atoms: C_14  and  C_15
REMARK    5  A    between atoms: C_15  and  N_16
REMARK    6  A    between atoms: C_17  and  C_19
REMARK    7  A    between atoms: C_30  and  C_32
REMARK    8  A    between atoms: C_36  and  N_38
REMARK    9  A    between atoms: N_38  and  C_39
REMARK   10  A    between atoms: N_38  and  C_40
REMARK                            x       y       z     vdW  Elec       q    Type
REMARK                         _______ _______ _______ _____ _____    ______ ____
ROOT
ATOM      1  C   UNL     1       1.239  -1.626  -7.110  0.00  0.00    +0.100 C 
ATOM      2  C   UNL     1      -0.142  -2.061  -7.650  0.00  0.00    +0.121 C 
ATOM      3  N   UNL     1       0.117  -2.476  -9.049  0.00  0.00    -0.296 N 
ATOM      4  C   UNL     1       1.416  -3.188  -8.988  0.00  0.00    +0.115 C 
ATOM      5  C   UNL     1       2.259  -2.369  -7.990  0.00  0.00    -0.004 C 
ATOM      6  C   UNL     1       3.115  -3.299  -7.136  0.00  0.00    -0.010 C 
ATOM      7  C   UNL     1       4.160  -3.982  -8.024  0.00  0.00    -0.082 C 
ATOM      8  N   UNL     1       4.999  -2.965  -8.668  0.00  0.00    +0.379 N 
ATOM      9  C   UNL     1       4.182  -2.133  -9.560  0.00  0.00    -0.082 C 
ATOM     10  C   UNL     1       3.139  -1.371  -8.737  0.00  0.00    -0.010 C 
ATOM     11  C   UNL     1      -0.654  -2.256 -10.132  0.00  0.00    +0.247 C 
ATOM     12  O   UNL     1      -1.634  -1.542 -10.046  0.00  0.00    -0.270 OA
ATOM     13  H   UNL     1       5.421  -2.382  -7.960  0.00  0.00    -0.086 HD
ATOM     14  H   UNL     1       5.724  -3.418  -9.204  0.00  0.00    -0.086 HD
ENDROOT
BRANCH  11  15
ATOM     15  C   UNL     1      -0.309  -2.884 -11.426  0.00  0.00    +0.039 A 
ATOM     16  C   UNL     1       0.514  -4.011 -11.460  0.00  0.00    +0.013 A 
ATOM     17  C   UNL     1       0.836  -4.595 -12.668  0.00  0.00    +0.003 A 
ATOM     18  C   UNL     1       0.345  -4.067 -13.848  0.00  0.00    +0.023 A 
ATOM     19  C   UNL     1      -0.475  -2.946 -13.825  0.00  0.00    +0.030 A 
ATOM     20  C   UNL     1      -0.809  -2.355 -12.615  0.00  0.00    +0.036 A 
BRANCH  19  21
ATOM     21  N   UNL     1      -0.969  -2.416 -15.020  0.00  0.00    -0.336 N 
ATOM     22  C   UNL     1      -0.621  -3.043 -16.298  0.00  0.00    +0.129 C 
ATOM     23  C   UNL     1      -1.833  -1.234 -14.996  0.00  0.00    +0.129 C 
ENDBRANCH  19  21
ENDBRANCH  11  15
BRANCH   1  25
ATOM     24  N   UNL     1       2.159  -1.306  -4.837  0.00  0.00    -0.315 N 
ATOM     25  C   UNL     1       1.392  -2.038  -5.669  0.00  0.00    +0.218 C 
ATOM     26  O   UNL     1       0.825  -3.028  -5.257  0.00  0.00    -0.275 OA
ATOM     27  H   UNL     1       2.613  -0.514  -5.166  0.00  0.00    +0.149 HD
BRANCH  24  28
ATOM     28  C   UNL     1       2.308  -1.706  -3.435  0.00  0.00    +0.108 C 
BRANCH  28  29
ATOM     29  C   UNL     1       3.224  -0.713  -2.716  0.00  0.00    +0.052 C 
BRANCH  29  32
ATOM     30  C   UNL     1       5.668  -0.397  -0.612  0.00  0.00    +0.035 C 
ATOM     31  C   UNL     1       4.192  -0.425  -0.211  0.00  0.00    +0.103 C 
ATOM     32  C   UNL     1       3.377  -1.125  -1.274  0.00  0.00    -0.037 C 
ATOM     33  C   UNL     1       2.810  -2.199  -0.668  0.00  0.00    +0.000 A 
ATOM     34  C   UNL     1       1.948  -3.216  -1.155  0.00  0.00    +0.028 A 
ATOM     35  C   UNL     1       1.510  -4.211  -0.311  0.00  0.00    +0.052 A 
ATOM     36  C   UNL     1       1.913  -4.249   1.090  0.00  0.00    +0.021 A 
ATOM     37  C   UNL     1       2.731  -3.309   1.608  0.00  0.00    +0.027 A 
ATOM     38  C   UNL     1       3.227  -2.225   0.752  0.00  0.00    +0.043 A 
ATOM     39  N   UNL     1       4.016  -1.210   1.015  0.00  0.00    -0.378 N 
ATOM     40  H   UNL     1       4.418  -1.013   1.876  0.00  0.00    +0.160 HD
BRANCH  35  41
ATOM     41  C   UNL     1       0.641  -5.229  -0.820  0.00  0.00    +0.099 C 
ATOM     42  N   UNL     1      -0.049  -6.037  -1.223  0.00  0.00    -0.191 NA
ENDBRANCH  35  41
ENDBRANCH  29  32
ENDBRANCH  28  29
ENDBRANCH  24  28
ENDBRANCH   1  25
TORSDOF 7
