REMARK  Name = ZINC35968699
REMARK  8 active torsions:
REMARK  status: ('A' for Active; 'I' for Inactive)
REMARK    1  A    between atoms: C_2  and  C_3
REMARK    2  A    between atoms: C_3  and  N_4
REMARK    3  A    between atoms: C_7  and  C_12
REMARK    4  A    between atoms: N_21  and  C_23
REMARK    5  A    between atoms: C_23  and  C_25
REMARK    6  A    between atoms: C_23  and  C_31
REMARK    7  A    between atoms: N_33  and  C_34
REMARK    8  A    between atoms: C_34  and  C_35
REMARK                            x       y       z     vdW  Elec       q    Type
REMARK                         _______ _______ _______ _____ _____    ______ ____
ROOT
ATOM      1  N   UNL     1       1.316  -3.020   2.515  0.00  0.00    -0.253 N 
ATOM      2  C   UNL     1       2.038  -2.170   3.304  0.00  0.00    +0.043 C 
ATOM      3  C   UNL     1       3.017  -2.627   4.110  0.00  0.00    +0.058 C 
ATOM      4  C   UNL     1       3.290  -4.117   4.112  0.00  0.00    +0.142 C 
ATOM      5  N   UNL     1       2.457  -4.949   3.227  0.00  0.00    -0.288 N 
ATOM      6  C   UNL     1       1.511  -4.344   2.481  0.00  0.00    +0.307 C 
ATOM      7  O   UNL     1       0.815  -5.022   1.750  0.00  0.00    -0.252 OA
ATOM      8  C   UNL     1       3.609  -1.560   4.817  0.00  0.00    +0.247 C 
ATOM      9  O   UNL     1       4.519  -1.684   5.615  0.00  0.00    -0.270 OA
ATOM     10  N   UNL     1       3.036  -0.386   4.493  0.00  0.00    -0.277 N 
ATOM     11  C   UNL     1       1.987  -0.671   3.503  0.00  0.00    +0.160 C 
ATOM     12  H   UNL     1       2.584  -5.910   3.184  0.00  0.00    +0.151 HD
ENDROOT
BRANCH   4  13
ATOM     13  C   UNL     1       3.114  -4.620   5.522  0.00  0.00    -0.020 A 
ATOM     14  C   UNL     1       1.846  -4.873   6.012  0.00  0.00    +0.006 A 
ATOM     15  C   UNL     1       1.683  -5.334   7.305  0.00  0.00    +0.003 A 
ATOM     16  C   UNL     1       2.787  -5.543   8.109  0.00  0.00    +0.038 A 
ATOM     17  C   UNL     1       4.057  -5.291   7.619  0.00  0.00    +0.124 A 
ATOM     18  C   UNL     1       4.220  -4.835   6.322  0.00  0.00    +0.044 A 
ATOM     19  F   UNL     1       5.137  -5.495   8.405  0.00  0.00    -0.205 F 
ENDBRANCH   4  13
BRANCH   1  20
ATOM     20  C   UNL     1       0.267  -2.452   1.665  0.00  0.00    +0.141 C 
BRANCH  20  22
ATOM     21  C   UNL     1      -1.693  -1.298   2.554  0.00  0.00    +0.005 C 
ATOM     22  C   UNL     1      -1.035  -2.423   2.424  0.00  0.00    -0.015 C 
ENDBRANCH  20  22
ENDBRANCH   1  20
BRANCH  10  23
ATOM     23  C   UNL     1       3.391   0.931   5.028  0.00  0.00    +0.193 C 
BRANCH  23  24
ATOM     24  C   UNL     1       2.381   1.340   6.068  0.00  0.00    -0.018 A 
ATOM     25  C   UNL     1       1.038   1.396   5.742  0.00  0.00    +0.006 A 
ATOM     26  C   UNL     1       0.111   1.772   6.697  0.00  0.00    +0.000 A 
ATOM     27  C   UNL     1       0.526   2.090   7.976  0.00  0.00    +0.000 A 
ATOM     28  C   UNL     1       1.868   2.032   8.302  0.00  0.00    +0.000 A 
ATOM     29  C   UNL     1       2.795   1.653   7.349  0.00  0.00    +0.006 A 
ENDBRANCH  23  24
BRANCH  23  30
ATOM     30  C   UNL     1       3.399   1.941   3.910  0.00  0.00    +0.238 C 
ATOM     31  O   UNL     1       3.134   1.596   2.778  0.00  0.00    -0.273 OA
ATOM     32  N   UNL     1       3.700   3.229   4.168  0.00  0.00    -0.311 N 
ATOM     33  H   UNL     1       3.912   3.506   5.073  0.00  0.00    +0.149 HD
BRANCH  32  34
ATOM     34  C   UNL     1       3.708   4.212   3.081  0.00  0.00    +0.135 C 
BRANCH  34  35
ATOM     35  C   UNL     1       4.079   5.587   3.640  0.00  0.00    +0.135 C 
ATOM     36  C   UNL     1       3.972   6.651   2.526  0.00  0.00    +0.035 C 
ATOM     37  C   UNL     1       5.198   7.558   2.818  0.00  0.00    +0.031 C 
ATOM     38  C   UNL     1       6.217   6.516   3.344  0.00  0.00    +0.160 C 
ATOM     39  O   UNL     1       5.435   5.575   4.100  0.00  0.00    -0.375 OA
ENDBRANCH  34  35
ENDBRANCH  32  34
ENDBRANCH  23  30
ENDBRANCH  10  23
TORSDOF 8
