REMARK  Name = ZINC46077639
REMARK  5 active torsions:
REMARK  status: ('A' for Active; 'I' for Inactive)
REMARK    1  A    between atoms: C_1  and  N_2
REMARK    2  A    between atoms: N_2  and  C_3
REMARK    3  A    between atoms: N_2  and  S_9
REMARK    4  A    between atoms: C_3  and  C_4
REMARK    5  A    between atoms: S_9  and  C_12
REMARK                            x       y       z     vdW  Elec       q    Type
REMARK                         _______ _______ _______ _____ _____    ______ ____
ROOT
ATOM      1  C   UNL     1       1.682  -1.059  -1.905  0.00  0.00    +0.106 A 
ATOM      2  C   UNL     1       2.322  -0.105  -2.679  0.00  0.00    +0.032 A 
ATOM      3  C   UNL     1       3.644  -0.274  -3.041  0.00  0.00    +0.049 A 
ATOM      4  C   UNL     1       4.338  -1.406  -2.637  0.00  0.00    +0.141 A 
ATOM      5  C   UNL     1       3.689  -2.383  -1.873  0.00  0.00    +0.081 A 
ATOM      6  C   UNL     1       2.357  -2.189  -1.496  0.00  0.00    +0.045 A 
ATOM      7  C   UNL     1       4.383  -3.620  -1.491  0.00  0.00    +0.252 C 
ATOM      8  O   UNL     1       3.740  -4.652  -1.503  0.00  0.00    -0.270 OA
ATOM      9  N   UNL     1       5.658  -3.696  -1.134  0.00  0.00    -0.278 N 
ATOM     10  C   UNL     1       6.551  -2.630  -1.036  0.00  0.00    +0.078 A 
ATOM     11  C   UNL     1       7.458  -2.608   0.018  0.00  0.00    +0.047 A 
ATOM     12  C   UNL     1       8.374  -1.579   0.127  0.00  0.00    +0.043 A 
ATOM     13  C   UNL     1       8.394  -0.565  -0.815  0.00  0.00    +0.024 A 
ATOM     14  C   UNL     1       7.489  -0.576  -1.859  0.00  0.00    +0.049 A 
ATOM     15  C   UNL     1       6.558  -1.599  -1.967  0.00  0.00    +0.150 A 
ATOM     16  O   UNL     1       5.642  -1.548  -2.966  0.00  0.00    -0.453 OA
ATOM     17 CL   UNL     1       9.500  -1.557   1.448  0.00  0.00    -0.083 Cl
ATOM     18  H   UNL     1       6.002  -4.578  -0.921  0.00  0.00    +0.155 HD
ENDROOT
BRANCH   1  19
ATOM     19  S   UNL     1      -0.000  -0.824  -1.437  0.00  0.00    +0.061 S 
ATOM     20  O   UNL     1      -0.531  -2.115  -1.167  0.00  0.00    -0.153 OA
ATOM     21  O   UNL     1      -0.572   0.049  -2.401  0.00  0.00    -0.153 OA
BRANCH  19  23
ATOM     22  C   UNL     1      -0.018   1.461   0.010  0.00  0.00    +0.132 C 
ATOM     23  N   UNL     1       0.002  -0.004   0.002  0.00  0.00    -0.175 NA
BRANCH  23  24
ATOM     24  C   UNL     1       0.024  -0.743   1.267  0.00  0.00    +0.151 C 
BRANCH  24  25
ATOM     25  C   UNL     1      -1.384  -0.909   1.776  0.00  0.00    +0.005 A 
ATOM     26  C   UNL     1      -2.265  -1.913   1.541  0.00  0.00    +0.012 A 
ATOM     27  C   UNL     1      -3.518  -1.855   2.121  0.00  0.00    +0.008 A 
ATOM     28  C   UNL     1      -3.829  -0.797   2.909  0.00  0.00    +0.045 A 
ATOM     29  S   UNL     1      -2.324   0.161   2.853  0.00  0.00    -0.100 S 
ENDBRANCH  24  25
ENDBRANCH  23  24
ENDBRANCH  19  23
ENDBRANCH   1  19
TORSDOF 4
