REMARK  Name = ZINC36899411
REMARK  1 active torsions:
REMARK  status: ('A' for Active; 'I' for Inactive)
REMARK    1  A    between atoms: C_6  and  N_7
REMARK                            x       y       z     vdW  Elec       q    Type
REMARK                         _______ _______ _______ _____ _____    ______ ____
ROOT
ATOM      1  N   UNL     1      -1.203  -0.722   0.008  0.00  0.00    -0.281 N 
ATOM      2  C   UNL     1      -2.146  -0.740   1.026  0.00  0.00    +0.075 A 
ATOM      3  C   UNL     1      -2.233  -0.125   2.266  0.00  0.00    +0.031 A 
ATOM      4  C   UNL     1      -3.332  -0.351   3.069  0.00  0.00    +0.040 A 
ATOM      5  C   UNL     1      -4.353  -1.191   2.644  0.00  0.00    +0.126 A 
ATOM      6  C   UNL     1      -4.282  -1.810   1.414  0.00  0.00    +0.068 A 
ATOM      7  C   UNL     1      -3.176  -1.590   0.589  0.00  0.00    +0.094 A 
ATOM      8  N   UNL     1      -2.826  -2.043  -0.643  0.00  0.00    -0.214 NA
ATOM      9  C   UNL     1      -1.671  -1.532  -0.990  0.00  0.00    +0.199 A 
ATOM     10  N   UNL     1      -1.021  -1.776  -2.182  0.00  0.00    -0.329 N 
ATOM     11  F   UNL     1      -5.423  -1.403   3.441  0.00  0.00    -0.205 F 
ATOM     12  H   UNL     1      -0.164  -1.359  -2.362  0.00  0.00    +0.145 HD
ATOM     13  H   UNL     1      -1.422  -2.365  -2.840  0.00  0.00    +0.145 HD
ENDROOT
BRANCH   1  19
ATOM     14  C   UNL     1      -0.017   1.384   0.010  0.00  0.00    +0.030 A 
ATOM     15  C   UNL     1       1.170   2.091   0.002  0.00  0.00    +0.051 A 
ATOM     16  C   UNL     1       2.382   1.419  -0.012  0.00  0.00    +0.162 A 
ATOM     17  C   UNL     1       2.404   0.029  -0.018  0.00  0.00    +0.164 A 
ATOM     18  C   UNL     1       1.214  -0.681  -0.012  0.00  0.00    +0.075 A 
ATOM     19  C   UNL     1       0.002  -0.004   0.002  0.00  0.00    +0.053 A 
ATOM     20  O   UNL     1       3.585  -0.649  -0.024  0.00  0.00    -0.485 OA
ATOM     21  C   UNL     1       4.750   0.090  -0.405  0.00  0.00    +0.270 C 
ATOM     22  C   UNL     1       4.734   1.431   0.342  0.00  0.00    +0.270 C 
ATOM     23  O   UNL     1       3.542   2.133  -0.023  0.00  0.00    -0.485 OA
ENDBRANCH   1  19
TORSDOF 1
