REMARK  Name = ZINC38885798
REMARK  10 active torsions:
REMARK  status: ('A' for Active; 'I' for Inactive)
REMARK    1  A    between atoms: C_1  and  C_2
REMARK    2  A    between atoms: C_2  and  C_3
REMARK    3  A    between atoms: C_3  and  C_5
REMARK    4  A    between atoms: C_3  and  C_12
REMARK    5  A    between atoms: C_5  and  C_6
REMARK    6  A    between atoms: C_12  and  N_13
REMARK    7  A    between atoms: C_14  and  C_16
REMARK    8  A    between atoms: N_21  and  C_23
REMARK    9  A    between atoms: C_23  and  C_24
REMARK   10  A    between atoms: C_26  and  C_29
REMARK                            x       y       z     vdW  Elec       q    Type
REMARK                         _______ _______ _______ _____ _____    ______ ____
ROOT
ATOM      1  C   UNL     1      -2.988  -3.759  -1.972  0.00  0.00    +0.058 C 
ATOM      2  C   UNL     1      -3.677  -3.339  -0.670  0.00  0.00    +0.009 C 
ATOM      3  C   UNL     1      -5.166  -3.689  -0.756  0.00  0.00    -0.018 C 
ATOM      4  C   UNL     1      -5.316  -5.186  -1.035  0.00  0.00    -0.078 C 
ATOM      5  N   UNL     1      -4.660  -5.520  -2.304  0.00  0.00    +0.386 N 
ATOM      6  C   UNL     1      -3.219  -5.253  -2.206  0.00  0.00    -0.065 C 
ATOM      7  H   UNL     1      -5.054  -4.958  -3.044  0.00  0.00    -0.081 HD
ENDROOT
BRANCH   1   9
ATOM      8  N   UNL     1      -1.067  -2.233  -1.658  0.00  0.00    -0.315 N 
ATOM      9  C   UNL     1      -1.509  -3.489  -1.867  0.00  0.00    +0.214 C 
ATOM     10  O   UNL     1      -0.717  -4.402  -1.973  0.00  0.00    -0.276 OA
ATOM     11  H   UNL     1      -1.700  -1.504  -1.574  0.00  0.00    +0.149 HD
BRANCH   8  12
ATOM     12  C   UNL     1       0.371  -1.971  -1.557  0.00  0.00    +0.108 C 
BRANCH  12  13
ATOM     13  C   UNL     1       0.602  -0.477  -1.320  0.00  0.00    +0.010 C 
BRANCH  13  15
ATOM     14  C   UNL     1       0.121   1.436   0.214  0.00  0.00    +0.004 C 
ATOM     15  C   UNL     1       0.021  -0.081   0.039  0.00  0.00    +0.002 C 
ENDBRANCH  13  15
BRANCH  13  16
ATOM     16  C   UNL     1       2.103  -0.183  -1.338  0.00  0.00    +0.040 C 
BRANCH  16  17
ATOM     17  C   UNL     1       2.648  -0.443  -2.719  0.00  0.00    -0.047 A 
ATOM     18  C   UNL     1       3.231  -1.661  -3.014  0.00  0.00    +0.003 A 
ATOM     19  C   UNL     1       3.732  -1.899  -4.280  0.00  0.00    +0.000 A 
ATOM     20  C   UNL     1       3.649  -0.919  -5.252  0.00  0.00    +0.000 A 
ATOM     21  C   UNL     1       3.066   0.299  -4.957  0.00  0.00    +0.000 A 
ATOM     22  C   UNL     1       2.561   0.535  -3.692  0.00  0.00    +0.003 A 
ENDBRANCH  16  17
ENDBRANCH  13  16
ENDBRANCH  12  13
ENDBRANCH   8  12
ENDBRANCH   1   9
BRANCH   5  23
ATOM     23  C   UNL     1      -4.873  -6.941  -2.606  0.00  0.00    +0.022 C 
BRANCH  23  24
ATOM     24  C   UNL     1      -6.342  -7.190  -2.839  0.00  0.00    +0.211 A 
ATOM     25  N   UNL     1      -6.953  -7.122  -3.987  0.00  0.00    -0.193 NA
ATOM     26  C   UNL     1      -8.259  -7.403  -3.831  0.00  0.00    +0.202 A 
ATOM     27  N   UNL     1      -8.485  -7.654  -2.565  0.00  0.00    -0.056 NA
ATOM     28  O   UNL     1      -7.237  -7.524  -1.900  0.00  0.00    -0.340 OA
BRANCH  26  29
ATOM     29  C   UNL     1      -9.275  -7.424  -4.912  0.00  0.00    +0.022 A 
ATOM     30  C   UNL     1      -8.904  -7.141  -6.226  0.00  0.00    +0.012 A 
ATOM     31  C   UNL     1      -9.853  -7.162  -7.228  0.00  0.00    +0.001 A 
ATOM     32  C   UNL     1     -11.170  -7.463  -6.930  0.00  0.00    +0.000 A 
ATOM     33  C   UNL     1     -11.544  -7.744  -5.628  0.00  0.00    +0.001 A 
ATOM     34  C   UNL     1     -10.602  -7.731  -4.619  0.00  0.00    +0.012 A 
ENDBRANCH  26  29
ENDBRANCH  23  24
ENDBRANCH   5  23
TORSDOF 9
