REMARK  Name = ZINC12635725
REMARK  17 active torsions:
REMARK  status: ('A' for Active; 'I' for Inactive)
REMARK    1  A    between atoms: C_1  and  C_2
REMARK    2  A    between atoms: C_2  and  N_78
REMARK    3  A    between atoms: C_6  and  C_8
REMARK    4  A    between atoms: C_8  and  N_9
REMARK    5  A    between atoms: N_9  and  C_10
REMARK    6  A    between atoms: N_9  and  C_25
REMARK    7  A    between atoms: C_10  and  C_11
REMARK    8  A    between atoms: C_16  and  C_24
REMARK    9  A    between atoms: C_17  and  C_23
REMARK   10  A    between atoms: C_25  and  N_27
REMARK   11  A    between atoms: N_27  and  C_28
REMARK   12  A    between atoms: C_28  and  C_29
REMARK   13  A    between atoms: C_29  and  C_30
REMARK   14  A    between atoms: C_33  and  O_38
REMARK   15  A    between atoms: C_34  and  O_36
REMARK   16  A    between atoms: O_36  and  C_37
REMARK   17  A    between atoms: O_38  and  C_39
REMARK                            x       y       z     vdW  Elec       q    Type
REMARK                         _______ _______ _______ _____ _____    ______ ____
ROOT
ATOM      1  N   UNL     1      -0.661   8.289  -4.010  0.00  0.00    -0.310 N 
ENDROOT
BRANCH   1   2
ATOM      2  C   UNL     1      -0.832   7.410  -3.003  0.00  0.00    +0.133 C 
ATOM      3  S   UNL     1      -2.306   6.553  -2.856  0.00  0.00    -0.019 S 
BRANCH   2   4
ATOM      4  N   UNL     1       0.159   7.205  -2.112  0.00  0.00    -0.326 N 
ATOM      5  H   UNL     1       0.994   7.691  -2.196  0.00  0.00    +0.148 HD
BRANCH   4   6
ATOM      6  C   UNL     1      -0.026   6.249  -1.018  0.00  0.00    +0.108 C 
BRANCH   6   7
ATOM      7  C   UNL     1       1.239   6.206  -0.158  0.00  0.00    +0.054 C 
BRANCH   7   8
ATOM      8  C   UNL     1       1.048   5.223   0.968  0.00  0.00    -0.042 A 
ATOM      9  C   UNL     1       0.521   5.647   2.173  0.00  0.00    +0.007 A 
ATOM     10  C   UNL     1       0.344   4.749   3.208  0.00  0.00    +0.049 A 
ATOM     11  C   UNL     1       0.689   3.418   3.038  0.00  0.00    +0.161 A 
ATOM     12  C   UNL     1       1.225   2.992   1.827  0.00  0.00    +0.162 A 
ATOM     13  C   UNL     1       1.400   3.897   0.792  0.00  0.00    +0.053 A 
BRANCH  12  14
ATOM     14  O   UNL     1       1.572   1.688   1.656  0.00  0.00    -0.491 OA
ATOM     15  C   UNL     1       2.110   1.320   0.384  0.00  0.00    +0.277 C 
ENDBRANCH  12  14
BRANCH  11  16
ATOM     16  O   UNL     1       0.510   2.532   4.053  0.00  0.00    -0.491 OA
ATOM     17  C   UNL     1      -0.045   3.041   5.268  0.00  0.00    +0.277 C 
ENDBRANCH  11  16
ENDBRANCH   7   8
ENDBRANCH   6   7
ENDBRANCH   4   6
ENDBRANCH   2   4
ENDBRANCH   1   2
BRANCH   1  18
ATOM     18  C   UNL     1       0.560   9.096  -4.079  0.00  0.00    +0.092 C 
BRANCH  18  22
ATOM     19  C   UNL     1       3.283   6.684  -4.441  0.00  0.00    -0.078 C 
ATOM     20  C   UNL     1       3.973   7.905  -5.084  0.00  0.00    -0.020 C 
ATOM     21  C   UNL     1       2.989   9.065  -4.779  0.00  0.00    -0.016 C 
ATOM     22  C   UNL     1       1.619   8.350  -4.893  0.00  0.00    -0.051 C 
ATOM     23  N   UNL     1       1.853   7.013  -4.313  0.00  0.00    +0.382 N 
ATOM     24  H   UNL     1       1.595   7.023  -3.319  0.00  0.00    -0.081 HD
BRANCH  23  26
ATOM     25  C   UNL     1       1.358   4.608  -4.468  0.00  0.00    -0.017 C 
ATOM     26  C   UNL     1       1.029   5.997  -5.018  0.00  0.00    -0.082 C 
ENDBRANCH  23  26
ENDBRANCH  18  22
ENDBRANCH   1  18
BRANCH   1  27
ATOM     27  C   UNL     1      -1.697   8.439  -5.035  0.00  0.00    +0.147 C 
BRANCH  27  28
ATOM     28  C   UNL     1      -2.620   9.568  -4.656  0.00  0.00    +0.035 A 
ATOM     29  C   UNL     1      -3.778   9.303  -4.002  0.00  0.00    +0.020 A 
ATOM     30  C   UNL     1      -4.652  10.422  -3.648  0.00  0.00    -0.001 A 
ATOM     31  C   UNL     1      -5.859  10.212  -2.972  0.00  0.00    +0.010 A 
ATOM     32  C   UNL     1      -6.653  11.278  -2.656  0.00  0.00    +0.004 A 
ATOM     33  C   UNL     1      -6.273  12.568  -3.000  0.00  0.00    -0.046 A 
ATOM     34  C   UNL     1      -5.089  12.799  -3.665  0.00  0.00    -0.024 A 
ATOM     35  C   UNL     1      -4.264  11.729  -3.997  0.00  0.00    +0.052 A 
ATOM     36  N   UNL     1      -3.073  11.931  -4.662  0.00  0.00    -0.322 N 
ATOM     37  H   UNL     1      -2.807  12.832  -4.903  0.00  0.00    +0.169 HD
ATOM     38  C   UNL     1      -2.274  10.898  -4.979  0.00  0.00    +0.254 A 
ATOM     39  O   UNL     1      -1.226  11.114  -5.563  0.00  0.00    -0.268 OA
ATOM     40  C   UNL     1      -4.689  14.205  -4.031  0.00  0.00    +0.046 C 
ATOM     41  C   UNL     1      -7.165  13.728  -2.641  0.00  0.00    +0.044 C 
ENDBRANCH  27  28
ENDBRANCH   1  27
TORSDOF 12
