REMARK  Name = ZINC36066425
REMARK  12 active torsions:
REMARK  status: ('A' for Active; 'I' for Inactive)
REMARK    1  A    between atoms: C_1  and  C_2
REMARK    2  A    between atoms: C_8  and  N_10
REMARK    3  A    between atoms: C_11  and  C_13
REMARK    4  A    between atoms: C_21  and  C_33
REMARK    5  A    between atoms: N_27  and  C_28
REMARK    6  A    between atoms: C_28  and  C_29
REMARK    7  A    between atoms: C_29  and  C_30
REMARK    8  A    between atoms: C_30  and  C_31
REMARK    9  A    between atoms: C_30  and  C_32
REMARK   10  A    between atoms: N_35  and  C_36
REMARK   11  A    between atoms: C_40  and  O_42
REMARK   12  A    between atoms: O_42  and  C_43
REMARK                            x       y       z     vdW  Elec       q    Type
REMARK                         _______ _______ _______ _____ _____    ______ ____
ROOT
ATOM      1  C   UNL     1       0.286   0.882   4.342  0.00  0.00    +0.198 C 
ATOM      2  C   UNL     1       0.186   2.349   4.621  0.00  0.00    +0.127 C 
ATOM      3  C   UNL     1       1.498   3.081   4.402  0.00  0.00    +0.009 C 
ATOM      4  C   UNL     1       1.250   4.353   4.677  0.00  0.00    +0.004 C 
ATOM      5  C   UNL     1      -0.216   4.384   5.128  0.00  0.00    +0.155 C 
ATOM      6  O   UNL     1      -0.800   3.299   4.293  0.00  0.00    -0.358 OA
ATOM      7  C   UNL     1      -0.137   3.722   6.558  0.00  0.00    +0.123 C 
ATOM      8  C   UNL     1      -0.079   2.243   6.176  0.00  0.00    +0.128 C 
ATOM      9  C   UNL     1       0.964   1.273   6.555  0.00  0.00    +0.223 C 
ATOM     10  O   UNL     1       1.583   1.247   7.598  0.00  0.00    -0.275 OA
ATOM     11  N   UNL     1       1.102   0.401   5.501  0.00  0.00    -0.287 N 
ENDROOT
BRANCH   1  13
ATOM     12  N   UNL     1       0.290   0.447   1.907  0.00  0.00    -0.311 N 
ATOM     13  C   UNL     1       0.999   0.628   3.039  0.00  0.00    +0.237 C 
ATOM     14  O   UNL     1       2.211   0.587   3.009  0.00  0.00    -0.274 OA
ATOM     15  H   UNL     1      -0.679   0.480   1.931  0.00  0.00    +0.149 HD
BRANCH  12  22
ATOM     16  C   UNL     1      -0.218   2.132  -0.394  0.00  0.00    +0.009 C 
ATOM     17  C   UNL     1       0.092   0.640  -0.523  0.00  0.00    +0.006 C 
ATOM     18  C   UNL     1       0.816   0.382  -1.846  0.00  0.00    +0.005 C 
ATOM     19  C   UNL     1       1.127  -1.110  -1.976  0.00  0.00    +0.000 C 
ATOM     20  C   UNL     1       2.018  -1.549  -0.813  0.00  0.00    +0.002 C 
ATOM     21  C   UNL     1       1.294  -1.291   0.510  0.00  0.00    +0.022 C 
ATOM     22  C   UNL     1       0.984   0.201   0.640  0.00  0.00    +0.076 C 
ENDBRANCH  12  22
ENDBRANCH   1  13
BRANCH   7  23
ATOM     23  C   UNL     1       1.105   4.161   7.289  0.00  0.00    +0.224 C 
ATOM     24  O   UNL     1       1.935   3.341   7.621  0.00  0.00    -0.275 OA
ATOM     25  N   UNL     1       1.295   5.464   7.575  0.00  0.00    -0.285 N 
ATOM     26  H   UNL     1       0.669   6.128   7.246  0.00  0.00    +0.155 HD
BRANCH  25  27
ATOM     27  C   UNL     1       2.393   5.859   8.347  0.00  0.00    +0.037 A 
ATOM     28  C   UNL     1       3.004   7.084   8.111  0.00  0.00    +0.023 A 
ATOM     29  C   UNL     1       4.088   7.474   8.872  0.00  0.00    +0.005 A 
ATOM     30  C   UNL     1       4.569   6.647   9.870  0.00  0.00    +0.046 A 
ATOM     31  C   UNL     1       3.962   5.422  10.110  0.00  0.00    +0.122 A 
ATOM     32  C   UNL     1       2.870   5.030   9.352  0.00  0.00    +0.069 A 
BRANCH  31  33
ATOM     33  O   UNL     1       4.436   4.610  11.091  0.00  0.00    -0.495 OA
ATOM     34  C   UNL     1       5.561   5.080  11.836  0.00  0.00    +0.277 C 
ENDBRANCH  31  33
ENDBRANCH  25  27
ENDBRANCH   7  23
BRANCH  11  35
ATOM     35  C   UNL     1       1.922  -0.813   5.510  0.00  0.00    +0.109 C 
BRANCH  35  36
ATOM     36  C   UNL     1       1.057  -2.010   5.909  0.00  0.00    +0.022 C 
BRANCH  36  37
ATOM     37  C   UNL     1       1.938  -3.253   6.045  0.00  0.00    -0.016 C 
ATOM     38  C   UNL     1       1.097  -4.421   6.564  0.00  0.00    +0.007 C 
ATOM     39  C   UNL     1       2.524  -3.615   4.679  0.00  0.00    +0.007 C 
ENDBRANCH  36  37
ENDBRANCH  35  36
ENDBRANCH  11  35
TORSDOF 8
