REMARK  Name = ZINC64774235
REMARK  9 active torsions:
REMARK  status: ('A' for Active; 'I' for Inactive)
REMARK    1  A    between atoms: C_1  and  C_2
REMARK    2  A    between atoms: C_2  and  C_3
REMARK    3  A    between atoms: C_3  and  C_4
REMARK    4  A    between atoms: C_4  and  O_5
REMARK    5  A    between atoms: O_5  and  C_6
REMARK    6  A    between atoms: C_11  and  C_12
REMARK    7  A    between atoms: C_20  and  S_26
REMARK    8  A    between atoms: S_26  and  C_27
REMARK    9  A    between atoms: C_27  and  C_28
REMARK                            x       y       z     vdW  Elec       q    Type
REMARK                         _______ _______ _______ _____ _____    ______ ____
ROOT
ATOM      1  C   UNL     1      -5.396  -3.557   0.034  0.00  0.00    +0.050 C 
ATOM      2  C   UNL     1      -6.299  -3.927   1.214  0.00  0.00    +0.105 C 
ATOM      3  C   UNL     1      -6.993  -5.234   0.969  0.00  0.00    +0.219 C 
ATOM      4  O   UNL     1      -7.441  -5.832   1.924  0.00  0.00    -0.275 OA
ATOM      5  N   UNL     1      -7.146  -5.777  -0.246  0.00  0.00    -0.273 N 
ATOM      6  C   UNL     1      -6.596  -5.191  -1.351  0.00  0.00    +0.117 C 
ATOM      7  N   UNL     1      -6.420  -5.871  -2.447  0.00  0.00    -0.212 NA
ATOM      8  C   UNL     1      -5.781  -5.362  -3.509  0.00  0.00    +0.182 C 
ATOM      9  N   UNL     1      -5.249  -4.148  -3.496  0.00  0.00    -0.154 NA
ATOM     10  C   UNL     1      -5.387  -3.339  -2.456  0.00  0.00    +0.249 C 
ATOM     11  O   UNL     1      -4.848  -2.249  -2.472  0.00  0.00    -0.273 OA
ATOM     12  C   UNL     1      -6.193  -3.741  -1.260  0.00  0.00    +0.148 C 
ATOM     13  H   UNL     1      -7.654  -6.598  -0.343  0.00  0.00    +0.156 HD
ENDROOT
BRANCH   1  19
ATOM     14  C   UNL     1      -2.914  -3.909  -0.048  0.00  0.00    +0.124 A 
ATOM     15  C   UNL     1      -1.803  -4.739  -0.057  0.00  0.00    +0.046 A 
ATOM     16  C   UNL     1      -1.967  -6.110  -0.006  0.00  0.00    +0.004 A 
ATOM     17  C   UNL     1      -3.237  -6.654   0.055  0.00  0.00    +0.001 A 
ATOM     18  C   UNL     1      -4.346  -5.828   0.064  0.00  0.00    +0.007 A 
ATOM     19  C   UNL     1      -4.187  -4.457   0.018  0.00  0.00    -0.001 A 
BRANCH  14  20
ATOM     20  O   UNL     1      -2.756  -2.560  -0.098  0.00  0.00    -0.492 OA
BRANCH  20  21
ATOM     21  C   UNL     1      -1.417  -2.066  -0.165  0.00  0.00    +0.229 C 
BRANCH  21  22
ATOM     22  C   UNL     1      -1.439  -0.537  -0.214  0.00  0.00    +0.041 C 
BRANCH  22  24
ATOM     23  C   UNL     1      -0.027   1.521  -0.335  0.00  0.00    +0.004 C 
ATOM     24  C   UNL     1      -0.005  -0.008  -0.285  0.00  0.00    -0.000 C 
ENDBRANCH  22  24
ENDBRANCH  21  22
ENDBRANCH  20  21
ENDBRANCH  14  20
ENDBRANCH   1  19
BRANCH   8  25
ATOM     25  S   UNL     1      -5.643  -6.338  -4.969  0.00  0.00    -0.084 S 
BRANCH  25  26
ATOM     26  C   UNL     1      -4.725  -5.279  -6.120  0.00  0.00    +0.112 C 
BRANCH  26  27
ATOM     27  C   UNL     1      -4.535  -6.003  -7.428  0.00  0.00    -0.037 A 
ATOM     28  C   UNL     1      -3.420  -6.796  -7.622  0.00  0.00    +0.007 A 
ATOM     29  C   UNL     1      -3.244  -7.461  -8.820  0.00  0.00    +0.038 A 
ATOM     30  C   UNL     1      -4.187  -7.334  -9.826  0.00  0.00    +0.123 A 
ATOM     31  C   UNL     1      -5.304  -6.540  -9.630  0.00  0.00    +0.038 A 
ATOM     32  C   UNL     1      -5.480  -5.880  -8.429  0.00  0.00    +0.007 A 
ATOM     33  F   UNL     1      -4.017  -7.984 -10.999  0.00  0.00    -0.205 F 
ENDBRANCH  26  27
ENDBRANCH  25  26
ENDBRANCH   8  25
TORSDOF 8
