REMARK  Name = ZINC10055357
REMARK  9 active torsions:
REMARK  status: ('A' for Active; 'I' for Inactive)
REMARK    1  A    between atoms: C_1  and  C_2
REMARK    2  A    between atoms: N_10  and  C_14
REMARK    3  A    between atoms: C_14  and  C_15
REMARK    4  A    between atoms: C_15  and  O_17
REMARK    5  A    between atoms: O_17  and  C_18
REMARK    6  A    between atoms: C_18  and  C_20
REMARK    7  A    between atoms: C_18  and  C_21
REMARK    8  A    between atoms: N_23  and  C_24
REMARK    9  A    between atoms: C_29  and  C_30
REMARK                            x       y       z     vdW  Elec       q    Type
REMARK                         _______ _______ _______ _____ _____    ______ ____
ROOT
ATOM      1  O   UNL     1      -2.750   3.161   1.697  0.00  0.00    -0.451 OA
ENDROOT
BRANCH   1   2
ATOM      2  C   UNL     1      -1.644   2.444   1.442  0.00  0.00    +0.326 C 
ATOM      3  O   UNL     1      -0.980   2.013   2.355  0.00  0.00    -0.249 OA
BRANCH   2   4
ATOM      4  C   UNL     1      -1.231   2.176   0.018  0.00  0.00    +0.238 C 
BRANCH   4  14
ATOM      5  C   UNL     1       5.148  -2.651  -0.063  0.00  0.00    +0.007 C 
ATOM      6  C   UNL     1       3.659  -2.298  -0.046  0.00  0.00    -0.014 C 
ATOM      7  C   UNL     1       3.343  -1.484   1.210  0.00  0.00    +0.006 C 
ATOM      8  C   UNL     1       1.851  -1.141   1.233  0.00  0.00    +0.035 C 
ATOM      9  C   UNL     1       1.492  -0.342  -0.015  0.00  0.00    +0.113 C 
ATOM     10  C   UNL     1       1.825  -1.131  -1.276  0.00  0.00    +0.035 C 
ATOM     11  C   UNL     1       3.316  -1.474  -1.288  0.00  0.00    +0.006 C 
ATOM     12  C   UNL     1       0.027   0.030   0.002  0.00  0.00    +0.247 C 
ATOM     13  O   UNL     1      -0.922  -0.724   0.010  0.00  0.00    -0.273 OA
ATOM     14  N   UNL     1      -0.002   1.379   0.007  0.00  0.00    -0.213 N 
ATOM     15  C   UNL     1       1.232   1.899  -0.004  0.00  0.00    +0.310 C 
ATOM     16  O   UNL     1       1.462   3.092  -0.002  0.00  0.00    -0.252 OA
ATOM     17  N   UNL     1       2.188   0.951  -0.017  0.00  0.00    -0.285 N 
ATOM     18  H   UNL     1       3.147   1.094  -0.028  0.00  0.00    +0.151 HD
ENDBRANCH   4  14
ENDBRANCH   2   4
ENDBRANCH   1   2
BRANCH   1  19
ATOM     19  C   UNL     1      -3.087   3.380   3.092  0.00  0.00    +0.259 C 
ATOM     20  C   UNL     1      -2.421   4.667   3.583  0.00  0.00    +0.062 C 
BRANCH  19  21
ATOM     21  C   UNL     1      -4.582   3.502   3.235  0.00  0.00    +0.258 C 
ATOM     22  O   UNL     1      -5.294   3.415   2.256  0.00  0.00    -0.271 OA
ATOM     23  N   UNL     1      -5.129   3.710   4.449  0.00  0.00    -0.282 N 
ATOM     24  H   UNL     1      -4.569   3.701   5.241  0.00  0.00    +0.155 HD
BRANCH  23  25
ATOM     25  C   UNL     1      -6.502   3.939   4.567  0.00  0.00    +0.041 A 
ATOM     26  C   UNL     1      -7.216   4.458   3.497  0.00  0.00    +0.024 A 
ATOM     27  C   UNL     1      -8.575   4.679   3.614  0.00  0.00    +0.002 A 
ATOM     28  C   UNL     1      -9.230   4.394   4.800  0.00  0.00    +0.001 A 
ATOM     29  C   UNL     1      -8.531   3.882   5.874  0.00  0.00    +0.010 A 
ATOM     30  C   UNL     1      -7.162   3.651   5.767  0.00  0.00    +0.003 A 
BRANCH  30  31
ATOM     31  C   UNL     1      -6.407   3.100   6.919  0.00  0.00    -0.016 A 
ATOM     32  C   UNL     1      -5.572   1.998   6.745  0.00  0.00    +0.008 A 
ATOM     33  C   UNL     1      -4.868   1.493   7.820  0.00  0.00    +0.001 A 
ATOM     34  C   UNL     1      -4.998   2.072   9.069  0.00  0.00    +0.000 A 
ATOM     35  C   UNL     1      -5.829   3.164   9.248  0.00  0.00    +0.001 A 
ATOM     36  C   UNL     1      -6.534   3.680   8.180  0.00  0.00    +0.008 A 
ENDBRANCH  30  31
ENDBRANCH  23  25
ENDBRANCH  19  21
ENDBRANCH   1  19
TORSDOF 7
