REMARK  Name = ZINC09072197
REMARK  6 active torsions:
REMARK  status: ('A' for Active; 'I' for Inactive)
REMARK    1  A    between atoms: C_3  and  S_25
REMARK    2  A    between atoms: C_6  and  C_7
REMARK    3  A    between atoms: N_9  and  C_10
REMARK    4  A    between atoms: C_10  and  C_11
REMARK    5  A    between atoms: N_14  and  C_18
REMARK    6  A    between atoms: S_25  and  N_28
REMARK                            x       y       z     vdW  Elec       q    Type
REMARK                         _______ _______ _______ _____ _____    ______ ____
ROOT
ATOM      1  C   UNL     1       0.002  -0.004   0.002  0.00  0.00    +0.244 C 
ATOM      2  O   UNL     1       1.063  -0.597  -0.011  0.00  0.00    -0.270 OA
ATOM      3  N   UNL     1      -1.156  -0.694   0.009  0.00  0.00    -0.308 N 
ATOM      4  H   UNL     1      -2.002  -0.220   0.020  0.00  0.00    +0.149 HD
ENDROOT
BRANCH   1  10
ATOM      5  C   UNL     1      -1.234   2.159   0.020  0.00  0.00    +0.015 A 
ATOM      6  C   UNL     1      -1.246   3.538   0.033  0.00  0.00    +0.029 A 
ATOM      7  C   UNL     1      -0.056   4.243   0.025  0.00  0.00    +0.106 A 
ATOM      8  C   UNL     1       1.154   3.571   0.010  0.00  0.00    +0.029 A 
ATOM      9  C   UNL     1       1.179   2.192   0.003  0.00  0.00    +0.015 A 
ATOM     10  C   UNL     1      -0.018   1.474   0.010  0.00  0.00    +0.037 A 
BRANCH   7  11
ATOM     11  S   UNL     1      -0.079   6.005   0.034  0.00  0.00    +0.061 S 
ATOM     12  O   UNL     1      -1.325   6.391   0.599  0.00  0.00    -0.153 OA
ATOM     13  O   UNL     1       1.166   6.425   0.575  0.00  0.00    -0.153 OA
BRANCH  11  14
ATOM     14  N   UNL     1      -0.102   6.503  -1.545  0.00  0.00    -0.177 NA
ATOM     15  C   UNL     1       1.082   6.782  -2.372  0.00  0.00    +0.109 C 
ATOM     16  C   UNL     1       0.576   7.237  -3.757  0.00  0.00    +0.018 C 
ATOM     17  C   UNL     1      -0.861   7.738  -3.453  0.00  0.00    +0.018 C 
ATOM     18  C   UNL     1      -1.311   6.744  -2.353  0.00  0.00    +0.109 C 
ENDBRANCH  11  14
ENDBRANCH   7  11
ENDBRANCH   1  10
BRANCH   3  19
ATOM     19  C   UNL     1      -1.136  -2.159   0.001  0.00  0.00    +0.150 C 
BRANCH  19  20
ATOM     20  C   UNL     1      -2.571  -2.688   0.012  0.00  0.00    +0.213 C 
ATOM     21  C   UNL     1      -2.579  -4.228   0.081  0.00  0.00    +0.163 C 
ATOM     22  N   UNL     1      -3.253  -4.631  -1.162  0.00  0.00    -0.234 N 
ATOM     23  C   UNL     1      -3.589  -3.531  -1.850  0.00  0.00    +0.408 C 
ATOM     24  O   UNL     1      -4.161  -3.567  -2.921  0.00  0.00    -0.226 OA
ATOM     25  O   UNL     1      -3.237  -2.385  -1.248  0.00  0.00    -0.444 OA
BRANCH  22  26
ATOM     26  C   UNL     1      -3.504  -5.949  -1.562  0.00  0.00    +0.040 A 
ATOM     27  C   UNL     1      -3.099  -7.008  -0.759  0.00  0.00    +0.025 A 
ATOM     28  C   UNL     1      -3.353  -8.307  -1.153  0.00  0.00    +0.022 A 
ATOM     29  C   UNL     1      -4.000  -8.555  -2.352  0.00  0.00    +0.041 A 
ATOM     30  C   UNL     1      -4.399  -7.501  -3.155  0.00  0.00    +0.022 A 
ATOM     31  C   UNL     1      -4.153  -6.200  -2.763  0.00  0.00    +0.025 A 
ATOM     32 CL   UNL     1      -4.310 -10.189  -2.847  0.00  0.00    -0.084 Cl
ENDBRANCH  22  26
ENDBRANCH  19  20
ENDBRANCH   3  19
TORSDOF 6
