REMARK  Name = ZINC35326975
REMARK  11 active torsions:
REMARK  status: ('A' for Active; 'I' for Inactive)
REMARK    1  A    between atoms: C_1  and  C_2
REMARK    2  A    between atoms: C_2  and  C_3
REMARK    3  A    between atoms: C_3  and  C_4
REMARK    4  A    between atoms: C_4  and  O_5
REMARK    5  A    between atoms: O_5  and  C_6
REMARK    6  A    between atoms: C_6  and  C_8
REMARK    7  A    between atoms: C_8  and  C_10
REMARK    8  A    between atoms: C_8  and  N_21
REMARK    9  A    between atoms: C_10  and  C_11
REMARK   10  A    between atoms: C_22  and  C_24
REMARK   11  A    between atoms: C_27  and  C_29
REMARK                            x       y       z     vdW  Elec       q    Type
REMARK                         _______ _______ _______ _____ _____    ______ ____
ROOT
ATOM      1  C   UNL     1       2.205  -4.377  -3.817  0.00  0.00    +0.186 C 
ENDROOT
BRANCH   1   2
ATOM      2  N   UNL     1       2.187  -5.840  -3.758  0.00  0.00    -0.297 N 
ATOM      3  C   UNL     1       2.269  -6.561  -4.894  0.00  0.00    +0.266 C 
ATOM      4  O   UNL     1       2.359  -5.997  -5.968  0.00  0.00    -0.268 OA
ATOM      5  H   UNL     1       2.116  -6.291  -2.902  0.00  0.00    +0.150 HD
BRANCH   3   6
ATOM      6  C   UNL     1       2.251  -8.034  -4.835  0.00  0.00    +0.163 A 
ATOM      7  C   UNL     1       2.333  -8.887  -5.893  0.00  0.00    +0.230 A 
ATOM      8  O   UNL     1       2.281 -10.133  -5.396  0.00  0.00    -0.447 OA
ATOM      9  C   UNL     1       2.170 -10.049  -4.062  0.00  0.00    +0.197 A 
ATOM     10  N   UNL     1       2.157  -8.797  -3.712  0.00  0.00    -0.208 NA
BRANCH   9  11
ATOM     11  C   UNL     1       2.081 -11.220  -3.118  0.00  0.00    +0.058 C 
ATOM     12  C   UNL     1       3.338 -12.083  -3.254  0.00  0.00    +0.009 C 
ATOM     13  C   UNL     1       3.203 -13.311  -2.349  0.00  0.00    -0.018 C 
ATOM     14  C   UNL     1       1.931 -14.075  -2.723  0.00  0.00    -0.083 C 
ATOM     15  N   UNL     1       0.763 -13.204  -2.546  0.00  0.00    +0.380 N 
ATOM     16  C   UNL     1       0.850 -12.061  -3.463  0.00  0.00    -0.070 C 
ATOM     17  H   UNL     1      -0.078 -13.727  -2.742  0.00  0.00    -0.086 HD
ATOM     18  H   UNL     1       0.734 -12.870  -1.595  0.00  0.00    -0.086 HD
ENDBRANCH   9  11
ENDBRANCH   3   6
ENDBRANCH   1   2
BRANCH   1  19
ATOM     19  C   UNL     1       1.512  -3.817  -2.601  0.00  0.00    +0.328 C 
ATOM     20  O   UNL     1       1.051  -4.564  -1.771  0.00  0.00    -0.249 OA
BRANCH  19  21
ATOM     21  O   UNL     1       1.408  -2.488  -2.441  0.00  0.00    -0.463 OA
BRANCH  21  22
ATOM     22  C   UNL     1       0.739  -2.027  -1.265  0.00  0.00    +0.232 C 
BRANCH  22  23
ATOM     23  C   UNL     1       0.718  -0.497  -1.257  0.00  0.00    +0.041 C 
BRANCH  23  25
ATOM     24  C   UNL     1      -0.019   1.526   0.010  0.00  0.00    +0.004 C 
ATOM     25  C   UNL     1       0.002  -0.004   0.002  0.00  0.00    -0.000 C 
ENDBRANCH  23  25
ENDBRANCH  22  23
ENDBRANCH  21  22
ENDBRANCH  19  21
ENDBRANCH   1  19
BRANCH   1  26
ATOM     26  C   UNL     1       3.653  -3.885  -3.850  0.00  0.00    +0.071 C 
BRANCH  26  27
ATOM     27  C   UNL     1       4.310  -4.343  -5.127  0.00  0.00    -0.020 A 
ATOM     28  C   UNL     1       5.051  -5.451  -5.291  0.00  0.00    +0.087 A 
ATOM     29  N   UNL     1       5.480  -5.537  -6.588  0.00  0.00    -0.360 N 
ATOM     30  H   UNL     1       6.031  -6.251  -6.946  0.00  0.00    +0.165 HD
ATOM     31  C   UNL     1       5.014  -4.460  -7.308  0.00  0.00    +0.047 A 
ATOM     32  C   UNL     1       4.255  -3.668  -6.426  0.00  0.00    +0.003 A 
ATOM     33  C   UNL     1       3.648  -2.499  -6.887  0.00  0.00    +0.010 A 
ATOM     34  C   UNL     1       3.791  -2.131  -8.195  0.00  0.00    +0.001 A 
ATOM     35  C   UNL     1       4.535  -2.910  -9.070  0.00  0.00    +0.002 A 
ATOM     36  C   UNL     1       5.151  -4.063  -8.634  0.00  0.00    +0.026 A 
ENDBRANCH  26  27
ENDBRANCH   1  26
TORSDOF 10
