REMARK  Name = ZINC64188251
REMARK  13 active torsions:
REMARK  status: ('A' for Active; 'I' for Inactive)
REMARK    1  A    between atoms: C_1  and  C_2
REMARK    2  A    between atoms: C_2  and  O_3
REMARK    3  A    between atoms: O_3  and  C_4
REMARK    4  A    between atoms: C_7  and  C_12
REMARK    5  A    between atoms: C_9  and  O_10
REMARK    6  A    between atoms: O_10  and  C_11
REMARK    7  A    between atoms: C_12  and  C_14
REMARK    8  A    between atoms: C_12  and  C_29
REMARK    9  A    between atoms: C_14  and  N_15
REMARK   10  A    between atoms: N_15  and  S_16
REMARK   11  A    between atoms: S_16  and  N_19
REMARK   12  A    between atoms: C_21  and  C_28
REMARK   13  A    between atoms: C_24  and  C_27
REMARK                            x       y       z     vdW  Elec       q    Type
REMARK                         _______ _______ _______ _____ _____    ______ ____
ROOT
ATOM      1  C   UNL     1       1.107  -6.044  -1.844  0.00  0.00    +0.063 C 
ENDROOT
BRANCH   1   2
ATOM      2  C   UNL     1       1.866  -6.631  -0.681  0.00  0.00    -0.033 C 
ATOM      3  C   UNL     1       3.029  -7.319  -0.733  0.00  0.00    -0.000 A 
ATOM      4  C   UNL     1       3.903  -7.712  -1.845  0.00  0.00    +0.010 A 
ATOM      5  C   UNL     1       5.028  -8.414  -1.579  0.00  0.00    +0.001 A 
ATOM      6  C   UNL     1       5.379  -8.775  -0.271  0.00  0.00    +0.002 A 
ATOM      7  C   UNL     1       4.628  -8.449   0.802  0.00  0.00    +0.026 A 
ATOM      8  C   UNL     1       3.423  -7.711   0.639  0.00  0.00    +0.043 A 
ATOM      9  N   UNL     1       2.538  -7.283   1.505  0.00  0.00    -0.380 N 
ATOM     10  C   UNL     1       1.484  -6.564   0.781  0.00  0.00    +0.145 C 
ATOM     11  H   UNL     1       2.575  -7.415   2.465  0.00  0.00    +0.160 HD
ENDBRANCH   1   2
BRANCH   1  15
ATOM     12  C   UNL     1       0.777  -1.811  -1.336  0.00  0.00    +0.162 A 
ATOM     13  C   UNL     1       0.243  -2.669  -0.388  0.00  0.00    +0.050 A 
ATOM     14  C   UNL     1       0.352  -4.037  -0.555  0.00  0.00    +0.008 A 
ATOM     15  C   UNL     1       0.992  -4.552  -1.667  0.00  0.00    -0.035 A 
ATOM     16  C   UNL     1       1.526  -3.702  -2.616  0.00  0.00    +0.053 A 
ATOM     17  C   UNL     1       1.416  -2.330  -2.458  0.00  0.00    +0.162 A 
BRANCH  17  18
ATOM     18  O   UNL     1       1.936  -1.492  -3.394  0.00  0.00    -0.491 OA
ATOM     19  C   UNL     1       2.578  -2.095  -4.520  0.00  0.00    +0.277 C 
ENDBRANCH  17  18
BRANCH  12  20
ATOM     20  O   UNL     1       0.671  -0.465  -1.174  0.00  0.00    -0.489 OA
BRANCH  20  22
ATOM     21  C   UNL     1      -0.019   1.526   0.010  0.00  0.00    +0.048 C 
ATOM     22  C   UNL     1       0.002  -0.004   0.002  0.00  0.00    +0.226 C 
ENDBRANCH  20  22
ENDBRANCH  12  20
ENDBRANCH   1  15
BRANCH   1  23
ATOM     23  C   UNL     1      -0.292  -6.661  -1.902  0.00  0.00    +0.119 C 
BRANCH  23  24
ATOM     24  N   UNL     1      -0.183  -8.092  -2.193  0.00  0.00    -0.179 NA
ATOM     25  H   UNL     1       0.651  -8.458  -2.526  0.00  0.00    +0.149 HD
BRANCH  24  26
ATOM     26  S   UNL     1      -1.485  -9.088  -1.953  0.00  0.00    +0.097 S 
ATOM     27  O   UNL     1      -1.078 -10.391  -2.346  0.00  0.00    -0.141 OA
ATOM     28  O   UNL     1      -1.979  -8.803  -0.651  0.00  0.00    -0.141 OA
BRANCH  26  29
ATOM     29  N   UNL     1      -2.663  -8.619  -3.019  0.00  0.00    -0.162 NA
ATOM     30  C   UNL     1      -3.654  -7.596  -2.650  0.00  0.00    +0.142 C 
ATOM     31  C   UNL     1      -5.052  -8.141  -2.965  0.00  0.00    +0.131 C 
ATOM     32  O   UNL     1      -5.085  -8.598  -4.319  0.00  0.00    -0.371 OA
ATOM     33  C   UNL     1      -4.190  -9.679  -4.594  0.00  0.00    +0.131 C 
ATOM     34  C   UNL     1      -2.745  -9.208  -4.364  0.00  0.00    +0.142 C 
ATOM     35  C   UNL     1      -4.357 -10.124  -6.048  0.00  0.00    +0.039 C 
ATOM     36  C   UNL     1      -6.088  -7.032  -2.773  0.00  0.00    +0.039 C 
ENDBRANCH  26  29
ENDBRANCH  24  26
ENDBRANCH  23  24
ENDBRANCH   1  23
TORSDOF 9
