REMARK  Name = ZINC13133645
REMARK  12 active torsions:
REMARK  status: ('A' for Active; 'I' for Inactive)
REMARK    1  A    between atoms: C_1  and  C_2
REMARK    2  A    between atoms: C_2  and  N_67
REMARK    3  A    between atoms: C_3  and  C_4
REMARK    4  A    between atoms: C_3  and  N_67
REMARK    5  A    between atoms: C_5  and  C_6
REMARK    6  A    between atoms: C_5  and  N_67
REMARK    7  A    between atoms: C_10  and  C_16
REMARK    8  A    between atoms: C_11  and  C_15
REMARK    9  A    between atoms: N_20  and  S_23
REMARK   10  A    between atoms: S_23  and  C_26
REMARK   11  A    between atoms: C_29  and  O_32
REMARK   12  A    between atoms: O_32  and  C_33
REMARK                            x       y       z     vdW  Elec       q    Type
REMARK                         _______ _______ _______ _____ _____    ______ ____
ROOT
ATOM      1  C   UNL     1       0.952  -0.470  -6.598  0.00  0.00    +0.116 A 
ATOM      2  N   UNL     1       0.685  -0.731  -5.330  0.00  0.00    -0.219 NA
ATOM      3  C   UNL     1      -0.370  -1.440  -4.964  0.00  0.00    +0.133 A 
ATOM      4  C   UNL     1      -1.257  -1.930  -5.962  0.00  0.00    +0.051 A 
ATOM      5  C   UNL     1      -2.470  -2.716  -5.821  0.00  0.00    -0.028 A 
ATOM      6  C   UNL     1      -3.152  -3.069  -6.921  0.00  0.00    -0.008 A 
ATOM      7  S   UNL     1      -2.199  -2.358  -8.249  0.00  0.00    -0.074 S 
ATOM      8  C   UNL     1      -0.909  -1.607  -7.292  0.00  0.00    +0.114 A 
ATOM      9  N   UNL     1       0.168  -0.898  -7.568  0.00  0.00    -0.227 NA
ATOM     10  C   UNL     1      -4.422  -3.875  -7.012  0.00  0.00    +0.052 C 
ATOM     11  C   UNL     1      -2.956  -3.131  -4.457  0.00  0.00    +0.045 C 
ATOM     12  N   UNL     1      -0.611  -1.696  -3.626  0.00  0.00    -0.312 N 
ATOM     13  C   UNL     1       0.483  -2.476  -3.034  0.00  0.00    +0.123 C 
ATOM     14  C   UNL     1       0.098  -2.893  -1.610  0.00  0.00    +0.128 C 
ATOM     15  N   UNL     1      -0.284  -1.687  -0.859  0.00  0.00    -0.174 NA
ATOM     16  C   UNL     1      -1.282  -0.784  -1.451  0.00  0.00    +0.128 C 
ATOM     17  C   UNL     1      -0.838  -0.448  -2.884  0.00  0.00    +0.123 C 
ENDROOT
BRANCH  15  18
ATOM     18  S   UNL     1       0.387  -1.359   0.619  0.00  0.00    +0.061 S 
ATOM     19  O   UNL     1       0.826  -2.602   1.151  0.00  0.00    -0.153 OA
ATOM     20  O   UNL     1      -0.531  -0.519   1.305  0.00  0.00    -0.153 OA
BRANCH  18  21
ATOM     21  C   UNL     1       1.834  -0.395   0.332  0.00  0.00    +0.106 A 
ATOM     22  C   UNL     1       1.748   0.984   0.293  0.00  0.00    +0.032 A 
ATOM     23  C   UNL     1       2.881   1.742   0.069  0.00  0.00    +0.047 A 
ATOM     24  C   UNL     1       4.105   1.118  -0.118  0.00  0.00    +0.120 A 
ATOM     25  C   UNL     1       4.189  -0.266  -0.079  0.00  0.00    +0.047 A 
ATOM     26  C   UNL     1       3.054  -1.020   0.146  0.00  0.00    +0.032 A 
BRANCH  24  27
ATOM     27  O   UNL     1       5.221   1.862  -0.340  0.00  0.00    -0.495 OA
ATOM     28  C   UNL     1       6.448   1.152  -0.524  0.00  0.00    +0.277 C 
ENDBRANCH  24  27
ENDBRANCH  18  21
ENDBRANCH  15  18
BRANCH   1  29
ATOM     29  C   UNL     1       2.176   0.338  -6.942  0.00  0.00    -0.001 C 
BRANCH  29  30
ATOM     30  N   UNL     1       1.851   1.774  -6.808  0.00  0.00    +0.384 N 
ATOM     31  H   UNL     1       1.361   1.923  -5.918  0.00  0.00    -0.081 HD
BRANCH  30  33
ATOM     32  C   UNL     1       2.747   4.022  -6.450  0.00  0.00    -0.017 C 
ATOM     33  C   UNL     1       3.092   2.576  -6.813  0.00  0.00    -0.082 C 
ENDBRANCH  30  33
BRANCH  30  34
ATOM     34  C   UNL     1       0.971   2.198  -7.917  0.00  0.00    -0.082 C 
ATOM     35  C   UNL     1       1.692   2.055  -9.259  0.00  0.00    -0.017 C 
ENDBRANCH  30  34
ENDBRANCH  29  30
ENDBRANCH   1  29
TORSDOF 7
