REMARK  Name = ZINC36637713
REMARK  10 active torsions:
REMARK  status: ('A' for Active; 'I' for Inactive)
REMARK    1  A    between atoms: C_1  and  C_2
REMARK    2  A    between atoms: C_2  and  N_3
REMARK    3  A    between atoms: N_3  and  C_4
REMARK    4  A    between atoms: N_3  and  C_6
REMARK    5  A    between atoms: C_4  and  C_5
REMARK    6  A    between atoms: C_6  and  C_7
REMARK    7  A    between atoms: C_7  and  N_8
REMARK    8  A    between atoms: C_14  and  C_18
REMARK    9  A    between atoms: C_19  and  C_21
REMARK   10  A    between atoms: C_23  and  C_31
REMARK                            x       y       z     vdW  Elec       q    Type
REMARK                         _______ _______ _______ _____ _____    ______ ____
ROOT
ATOM      1  N   UNL     1      -1.309  -3.693  -1.570  0.00  0.00    -0.248 N 
ATOM      2  C   UNL     1      -1.417  -4.445  -0.414  0.00  0.00    +0.168 A 
ATOM      3  N   UNL     1      -1.334  -4.051   0.836  0.00  0.00    -0.224 NA
ATOM      4  C   UNL     1      -1.461  -4.904   1.875  0.00  0.00    +0.080 A 
ATOM      5  C   UNL     1      -1.393  -4.612   3.258  0.00  0.00    +0.029 A 
ATOM      6  C   UNL     1      -1.543  -5.603   4.191  0.00  0.00    +0.005 A 
ATOM      7  C   UNL     1      -1.766  -6.921   3.819  0.00  0.00    -0.049 A 
ATOM      8  C   UNL     1      -1.839  -7.243   2.476  0.00  0.00    +0.020 A 
ATOM      9  C   UNL     1      -1.689  -6.256   1.534  0.00  0.00    +0.041 A 
ATOM     10  S   UNL     1      -1.713  -6.199  -0.241  0.00  0.00    -0.052 S 
ATOM     11  C   UNL     1      -1.927  -7.991   4.868  0.00  0.00    +0.044 C 
ATOM     12  C   UNL     1      -1.431  -4.286  -2.774  0.00  0.00    +0.253 C 
ATOM     13  O   UNL     1      -1.727  -5.463  -2.845  0.00  0.00    -0.270 OA
ENDROOT
BRANCH  12  14
ATOM     14  C   UNL     1      -1.204  -3.506  -4.009  0.00  0.00    +0.048 A 
ATOM     15  C   UNL     1      -1.934  -2.357  -4.282  0.00  0.00    +0.042 A 
ATOM     16  C   UNL     1      -1.684  -1.647  -5.466  0.00  0.00    +0.072 A 
ATOM     17  N   UNL     1      -0.776  -2.032  -6.338  0.00  0.00    -0.247 NA
ATOM     18  C   UNL     1      -0.030  -3.122  -6.158  0.00  0.00    +0.072 A 
ATOM     19  C   UNL     1      -0.196  -3.909  -4.990  0.00  0.00    +0.013 A 
ATOM     20  C   UNL     1       0.593  -5.050  -4.802  0.00  0.00    +0.011 A 
ATOM     21  C   UNL     1       1.520  -5.390  -5.742  0.00  0.00    +0.001 A 
ATOM     22  C   UNL     1       1.692  -4.617  -6.888  0.00  0.00    +0.002 A 
ATOM     23  C   UNL     1       0.933  -3.508  -7.108  0.00  0.00    +0.028 A 
BRANCH  16  24
ATOM     24  C   UNL     1      -2.471  -0.422  -5.745  0.00  0.00    +0.000 A 
ATOM     25  C   UNL     1      -3.356   0.075  -4.789  0.00  0.00    +0.010 A 
ATOM     26  C   UNL     1      -4.085   1.215  -5.054  0.00  0.00    +0.001 A 
ATOM     27  C   UNL     1      -3.941   1.866  -6.267  0.00  0.00    +0.000 A 
ATOM     28  C   UNL     1      -3.064   1.378  -7.219  0.00  0.00    +0.001 A 
ATOM     29  C   UNL     1      -2.325   0.241  -6.963  0.00  0.00    +0.010 A 
ENDBRANCH  16  24
ENDBRANCH  12  14
BRANCH   1  30
ATOM     30  C   UNL     1      -1.062  -2.251  -1.486  0.00  0.00    +0.097 C 
BRANCH  30  31
ATOM     31  C   UNL     1       0.438  -1.981  -1.624  0.00  0.00    -0.059 C 
BRANCH  31  32
ATOM     32  N   UNL     1       0.696  -0.546  -1.444  0.00  0.00    +0.380 N 
ATOM     33  H   UNL     1       0.129  -0.019  -2.092  0.00  0.00    -0.082 HD
BRANCH  32  35
ATOM     34  C   UNL     1       0.509   1.358   0.083  0.00  0.00    -0.017 C 
ATOM     35  C   UNL     1       0.358  -0.157  -0.069  0.00  0.00    -0.082 C 
ENDBRANCH  32  35
BRANCH  32  36
ATOM     36  C   UNL     1       2.116  -0.269  -1.698  0.00  0.00    -0.082 C 
ATOM     37  C   UNL     1       2.434  -0.540  -3.169  0.00  0.00    -0.017 C 
ENDBRANCH  32  36
ENDBRANCH  31  32
ENDBRANCH  30  31
ENDBRANCH   1  30
TORSDOF 7
