REMARK  Name = ZINC35641463
REMARK  12 active torsions:
REMARK  status: ('A' for Active; 'I' for Inactive)
REMARK    1  A    between atoms: C_1  and  C_2
REMARK    2  A    between atoms: C_2  and  N_3
REMARK    3  A    between atoms: C_4  and  C_24
REMARK    4  A    between atoms: C_5  and  C_19
REMARK    5  A    between atoms: C_6  and  C_11
REMARK    6  A    between atoms: C_19  and  O_21
REMARK    7  A    between atoms: O_21  and  C_22
REMARK    8  A    between atoms: C_22  and  C_23
REMARK    9  A    between atoms: C_24  and  N_25
REMARK   10  A    between atoms: N_25  and  C_26
REMARK   11  A    between atoms: N_25  and  C_27
REMARK   12  A    between atoms: N_30  and  C_33
REMARK                            x       y       z     vdW  Elec       q    Type
REMARK                         _______ _______ _______ _____ _____    ______ ____
ROOT
ATOM      1  N   UNL     1      -1.335  -0.152   0.274  0.00  0.00    -0.258 N 
ATOM      2  C   UNL     1      -2.078  -0.446   1.382  0.00  0.00    +0.041 C 
ATOM      3  C   UNL     1      -3.251  -1.106   1.280  0.00  0.00    +0.080 C 
ATOM      4  C   UNL     1      -3.715  -1.509  -0.105  0.00  0.00    +0.145 C 
ATOM      5  N   UNL     1      -2.842  -1.145  -1.234  0.00  0.00    -0.288 N 
ATOM      6  C   UNL     1      -1.700  -0.479  -0.972  0.00  0.00    +0.307 C 
ATOM      7  O   UNL     1      -0.974  -0.170  -1.897  0.00  0.00    -0.252 OA
ATOM      8  H   UNL     1      -3.085  -1.375  -2.144  0.00  0.00    +0.151 HD
ENDROOT
BRANCH   4   9
ATOM      9  C   UNL     1      -5.066  -0.884  -0.343  0.00  0.00    -0.003 A 
ATOM     10  C   UNL     1      -5.157   0.360  -0.939  0.00  0.00    +0.007 A 
ATOM     11  C   UNL     1      -6.395   0.934  -1.157  0.00  0.00    +0.002 A 
ATOM     12  C   UNL     1      -7.544   0.265  -0.779  0.00  0.00    +0.021 A 
ATOM     13  C   UNL     1      -7.455  -0.980  -0.183  0.00  0.00    +0.060 A 
ATOM     14  C   UNL     1      -6.215  -1.558   0.030  0.00  0.00    +0.064 A 
ATOM     15 CL   UNL     1      -6.102  -3.123   0.771  0.00  0.00    -0.082 Cl
ATOM     16 CL   UNL     1      -8.898  -1.820   0.291  0.00  0.00    -0.082 Cl
ENDBRANCH   4   9
BRANCH   1  18
ATOM     17  C   UNL     1      -0.303   2.065   0.250  0.00  0.00    +0.025 C 
ATOM     18  C   UNL     1      -0.072   0.567   0.458  0.00  0.00    +0.111 C 
ENDBRANCH   1  18
BRANCH   3  19
ATOM     19  C   UNL     1      -4.021  -1.412   2.426  0.00  0.00    +0.339 C 
ATOM     20  O   UNL     1      -3.939  -2.513   2.938  0.00  0.00    -0.245 OA
BRANCH  19  21
ATOM     21  O   UNL     1      -4.845  -0.483   2.954  0.00  0.00    -0.462 OA
BRANCH  21  22
ATOM     22  C   UNL     1      -5.507  -0.820   4.174  0.00  0.00    +0.229 C 
ATOM     23  C   UNL     1      -6.483   0.297   4.550  0.00  0.00    +0.048 C 
ENDBRANCH  21  22
ENDBRANCH  19  21
ENDBRANCH   3  19
BRANCH   2  24
ATOM     24  C   UNL     1      -1.579  -0.026   2.741  0.00  0.00    +0.136 C 
BRANCH  24  25
ATOM     25  N   UNL     1      -1.567   1.440   2.827  0.00  0.00    -0.297 NA
ATOM     26  C   UNL     1      -2.933   1.973   2.923  0.00  0.00    +0.105 C 
BRANCH  25  27
ATOM     27  C   UNL     1      -0.744   1.894   3.955  0.00  0.00    +0.053 C 
ATOM     28  C   UNL     1      -1.386   1.444   5.271  0.00  0.00    +0.000 C 
ATOM     29  C   UNL     1      -0.567   1.988   6.444  0.00  0.00    -0.078 C 
ATOM     30  N   UNL     1      -0.539   3.455   6.388  0.00  0.00    +0.378 N 
ATOM     31  C   UNL     1       0.139   3.894   5.162  0.00  0.00    -0.078 C 
ATOM     32  C   UNL     1      -0.653   3.423   3.940  0.00  0.00    +0.000 C 
ATOM     33  C   UNL     1       0.181   3.975   7.558  0.00  0.00    -0.096 C 
ATOM     34  H   UNL     1      -1.485   3.808   6.393  0.00  0.00    -0.082 HD
ENDBRANCH  25  27
ENDBRANCH  24  25
ENDBRANCH   2  24
TORSDOF 8
