REMARK  Name = ZINC00378023
REMARK  9 active torsions:
REMARK  status: ('A' for Active; 'I' for Inactive)
REMARK    1  A    between atoms: C_1  and  C_2
REMARK    2  A    between atoms: C_2  and  C_3
REMARK    3  A    between atoms: C_7  and  C_21
REMARK    4  A    between atoms: C_8  and  C_9
REMARK    5  A    between atoms: C_9  and  C_11
REMARK    6  A    between atoms: C_9  and  O_17
REMARK    7  A    between atoms: O_17  and  C_18
REMARK    8  A    between atoms: C_18  and  C_20
REMARK    9  A    between atoms: C_21  and  C_22
REMARK                            x       y       z     vdW  Elec       q    Type
REMARK                         _______ _______ _______ _____ _____    ______ ____
ROOT
ATOM      1  C   UNL     1      -0.106   6.567  -1.243  0.00  0.00    +0.239 C 
ENDROOT
BRANCH   1   7
ATOM      2  C   UNL     1       1.379   4.718  -0.442  0.00  0.00    -0.040 A 
ATOM      3  C   UNL     1       1.577   3.519   0.217  0.00  0.00    +0.004 A 
ATOM      4  C   UNL     1       0.506   2.863   0.795  0.00  0.00    +0.001 A 
ATOM      5  C   UNL     1      -0.763   3.403   0.708  0.00  0.00    +0.004 A 
ATOM      6  C   UNL     1      -0.961   4.603   0.052  0.00  0.00    -0.040 A 
ATOM      7  C   UNL     1       0.110   5.260  -0.524  0.00  0.00    +0.004 A 
BRANCH   2   9
ATOM      8  C   UNL     1       3.352   6.148   0.015  0.00  0.00    +0.009 C 
ATOM      9  C   UNL     1       2.546   5.434  -1.071  0.00  0.00    +0.032 C 
ENDBRANCH   2   9
BRANCH   6  10
ATOM     10  C   UNL     1      -2.344   5.194  -0.037  0.00  0.00    +0.032 C 
ATOM     11  C   UNL     1      -2.996   4.768  -1.354  0.00  0.00    +0.009 C 
ENDBRANCH   6  10
ENDBRANCH   1   7
BRANCH   1  12
ATOM     12  C   UNL     1       0.301   7.707  -0.344  0.00  0.00    +0.015 A 
ATOM     13  C   UNL     1       1.344   8.547  -0.704  0.00  0.00    +0.010 A 
ATOM     14  C   UNL     1       1.683   9.582   0.153  0.00  0.00    +0.020 A 
ATOM     15  C   UNL     1       0.976   9.742   1.329  0.00  0.00    +0.111 A 
ATOM     16  N   UNL     1      -0.011   8.924   1.639  0.00  0.00    -0.263 NA
ATOM     17  C   UNL     1      -0.365   7.932   0.845  0.00  0.00    +0.118 A 
ENDBRANCH   1  12
BRANCH   1  18
ATOM     18  O   UNL     1      -1.509   6.702  -1.591  0.00  0.00    -0.452 OA
BRANCH  18  19
ATOM     19  C   UNL     1      -1.884   6.247  -2.797  0.00  0.00    +0.305 C 
ATOM     20  O   UNL     1      -1.120   5.583  -3.457  0.00  0.00    -0.251 OA
ATOM     21  C   UNL     1      -3.259   6.563  -3.327  0.00  0.00    +0.136 C 
ENDBRANCH  18  19
ENDBRANCH   1  18
TORSDOF 6
