REMARK  Name = ZINC39532450
REMARK  11 active torsions:
REMARK  status: ('A' for Active; 'I' for Inactive)
REMARK    1  A    between atoms: C_1  and  C_2
REMARK    2  A    between atoms: C_2  and  C_3
REMARK    3  A    between atoms: C_6  and  C_9
REMARK    4  A    between atoms: C_9  and  C_11
REMARK    5  A    between atoms: C_9  and  N_20
REMARK    6  A    between atoms: C_11  and  N_12
REMARK    7  A    between atoms: N_12  and  C_13
REMARK    8  A    between atoms: C_18  and  O_19
REMARK    9  A    between atoms: C_24  and  O_27
REMARK   10  A    between atoms: O_27  and  C_28
REMARK   11  A    between atoms: C_28  and  C_29
REMARK                            x       y       z     vdW  Elec       q    Type
REMARK                         _______ _______ _______ _____ _____    ______ ____
ROOT
ATOM      1  C   UNL     1       2.780  -1.932   4.634  0.00  0.00    -0.020 C 
ENDROOT
BRANCH   1   2
ATOM      2  N   UNL     1       1.837  -2.875   5.250  0.00  0.00    +0.389 N 
ATOM      3  C   UNL     1       2.362  -3.313   6.550  0.00  0.00    -0.062 C 
ATOM      4  C   UNL     1       1.371  -4.281   7.201  0.00  0.00    +0.065 C 
ATOM      5  N   UNL     1       1.171  -5.439   6.319  0.00  0.00    -0.295 NA
ATOM      6  C   UNL     1       0.669  -5.014   5.005  0.00  0.00    +0.169 C 
ATOM      7  C   UNL     1       1.666  -4.040   4.372  0.00  0.00    -0.029 C 
ATOM      8  H   UNL     1       2.022  -5.973   6.226  0.00  0.00    +0.124 HD
ATOM      9  H   UNL     1       0.946  -2.421   5.383  0.00  0.00    -0.081 HD
BRANCH   6  10
ATOM     10  O   UNL     1       0.517  -6.157   4.160  0.00  0.00    -0.364 OA
BRANCH  10  11
ATOM     11  C   UNL     1      -0.620  -6.963   4.473  0.00  0.00    +0.158 C 
ATOM     12  C   UNL     1      -0.683  -8.151   3.510  0.00  0.00    +0.034 C 
ENDBRANCH  10  11
ENDBRANCH   6  10
ENDBRANCH   1   2
BRANCH   1  16
ATOM     13  C   UNL     1       1.312  -0.754   0.799  0.00  0.00    -0.048 A 
ATOM     14  C   UNL     1       2.661  -0.996   0.978  0.00  0.00    +0.004 A 
ATOM     15  C   UNL     1       3.136  -1.377   2.219  0.00  0.00    +0.002 A 
ATOM     16  C   UNL     1       2.262  -1.516   3.281  0.00  0.00    -0.059 A 
ATOM     17  C   UNL     1       0.913  -1.272   3.103  0.00  0.00    +0.002 A 
ATOM     18  C   UNL     1       0.439  -0.887   1.863  0.00  0.00    +0.004 A 
BRANCH  13  20
ATOM     19  C   UNL     1       0.828   1.187  -0.666  0.00  0.00    +0.009 C 
ATOM     20  C   UNL     1       0.794  -0.339  -0.554  0.00  0.00    +0.032 C 
ENDBRANCH  13  20
ENDBRANCH   1  16
BRANCH   1  21
ATOM     21  C   UNL     1       2.923  -0.698   5.527  0.00  0.00    +0.091 C 
BRANCH  21  22
ATOM     22  N   UNL     1       3.924   0.205   4.954  0.00  0.00    -0.342 N 
ATOM     23  H   UNL     1       4.333  -0.003   4.099  0.00  0.00    +0.146 HD
BRANCH  22  24
ATOM     24  C   UNL     1       4.292   1.369   5.641  0.00  0.00    +0.069 A 
ATOM     25  C   UNL     1       3.713   1.665   6.866  0.00  0.00    +0.026 A 
ATOM     26  C   UNL     1       4.078   2.814   7.542  0.00  0.00    +0.002 A 
ATOM     27  C   UNL     1       5.018   3.670   7.000  0.00  0.00    +0.004 A 
ATOM     28  C   UNL     1       5.599   3.381   5.779  0.00  0.00    +0.047 A 
ATOM     29  C   UNL     1       5.243   2.229   5.098  0.00  0.00    +0.138 A 
BRANCH  29  30
ATOM     30  O   UNL     1       5.818   1.941   3.899  0.00  0.00    -0.505 OA
ATOM     31  H   UNL     1       5.344   2.304   3.138  0.00  0.00    +0.292 HD
ENDBRANCH  29  30
ENDBRANCH  22  24
ENDBRANCH  21  22
ENDBRANCH   1  21
TORSDOF 9
