REMARK  Name = ZINC39946689
REMARK  8 active torsions:
REMARK  status: ('A' for Active; 'I' for Inactive)
REMARK    1  A    between atoms: C_4  and  C_7
REMARK    2  A    between atoms: C_7  and  C_9
REMARK    3  A    between atoms: C_7  and  O_20
REMARK    4  A    between atoms: C_9  and  C_11
REMARK    5  A    between atoms: O_20  and  C_21
REMARK    6  A    between atoms: C_21  and  C_23
REMARK    7  A    between atoms: C_27  and  O_29
REMARK    8  A    between atoms: O_29  and  C_30
REMARK                            x       y       z     vdW  Elec       q    Type
REMARK                         _______ _______ _______ _____ _____    ______ ____
ROOT
ATOM      1  C   UNL     1       3.521  -0.555  -0.126  0.00  0.00    +0.277 C 
ENDROOT
BRANCH   1   5
ATOM      2  C   UNL     1      -0.296   1.362  -0.173  0.00  0.00    +0.000 A 
ATOM      3  C   UNL     1       0.860   2.121  -0.191  0.00  0.00    +0.000 A 
ATOM      4  C   UNL     1       2.095   1.501  -0.175  0.00  0.00    +0.008 A 
ATOM      5  C   UNL     1       2.175   0.121  -0.142  0.00  0.00    +0.000 A 
ATOM      6  C   UNL     1       1.020  -0.638  -0.124  0.00  0.00    +0.008 A 
ATOM      7  C   UNL     1      -0.216  -0.018  -0.141  0.00  0.00    +0.000 A 
ENDBRANCH   1   5
BRANCH   1   8
ATOM      8  C   UNL     1       3.860  -0.968   1.283  0.00  0.00    +0.206 C 
ATOM      9  O   UNL     1       3.783  -2.135   1.609  0.00  0.00    -0.288 OA
BRANCH   8  10
ATOM     10  C   UNL     1       4.265   0.002   2.224  0.00  0.00    +0.027 C 
ATOM     11  C   UNL     1       4.614  -0.209   3.546  0.00  0.00    +0.006 A 
ATOM     12  C   UNL     1       4.679  -1.371   4.350  0.00  0.00    +0.010 A 
ATOM     13  C   UNL     1       5.062  -1.284   5.644  0.00  0.00    +0.001 A 
ATOM     14  C   UNL     1       5.407  -0.064   6.247  0.00  0.00    +0.002 A 
ATOM     15  C   UNL     1       5.377   1.103   5.568  0.00  0.00    +0.026 A 
ATOM     16  C   UNL     1       4.972   1.097   4.153  0.00  0.00    +0.043 A 
ATOM     17  N   UNL     1       4.856   2.054   3.277  0.00  0.00    -0.380 N 
ATOM     18  C   UNL     1       4.417   1.490   1.997  0.00  0.00    +0.152 C 
ATOM     19  H   UNL     1       5.036   2.992   3.445  0.00  0.00    +0.160 HD
ENDBRANCH   8  10
ENDBRANCH   1   8
BRANCH   1  20
ATOM     20  O   UNL     1       3.483  -1.712  -0.965  0.00  0.00    -0.445 OA
BRANCH  20  21
ATOM     21  C   UNL     1       3.813  -1.540  -2.259  0.00  0.00    +0.340 C 
ATOM     22  O   UNL     1       4.125  -0.438  -2.665  0.00  0.00    -0.245 OA
BRANCH  21  23
ATOM     23  C   UNL     1       3.796  -2.691  -3.186  0.00  0.00    +0.062 A 
ATOM     24  C   UNL     1       3.433  -3.957  -2.723  0.00  0.00    +0.015 A 
ATOM     25  C   UNL     1       3.418  -5.030  -3.591  0.00  0.00    +0.004 A 
ATOM     26  C   UNL     1       3.763  -4.855  -4.918  0.00  0.00    +0.046 A 
ATOM     27  C   UNL     1       4.125  -3.600  -5.388  0.00  0.00    +0.129 A 
ATOM     28  C   UNL     1       4.138  -2.515  -4.527  0.00  0.00    +0.061 A 
BRANCH  27  29
ATOM     29  O   UNL     1       4.462  -3.434  -6.694  0.00  0.00    -0.456 OA
BRANCH  29  30
ATOM     30  C   UNL     1       5.752  -3.122  -6.985  0.00  0.00    +0.128 A 
ATOM     31  C   UNL     1       6.708  -3.110  -5.980  0.00  0.00    +0.046 A 
ATOM     32  C   UNL     1       8.019  -2.792  -6.279  0.00  0.00    +0.004 A 
ATOM     33  C   UNL     1       8.378  -2.485  -7.578  0.00  0.00    +0.000 A 
ATOM     34  C   UNL     1       7.427  -2.496  -8.582  0.00  0.00    +0.004 A 
ATOM     35  C   UNL     1       6.116  -2.819  -8.289  0.00  0.00    +0.046 A 
ENDBRANCH  29  30
ENDBRANCH  27  29
ENDBRANCH  21  23
ENDBRANCH  20  21
ENDBRANCH   1  20
TORSDOF 8
