REMARK  Name = ZINC07551603
REMARK  10 active torsions:
REMARK  status: ('A' for Active; 'I' for Inactive)
REMARK    1  A    between atoms: C_1  and  C_2
REMARK    2  A    between atoms: C_6  and  N_8
REMARK    3  A    between atoms: C_9  and  C_30
REMARK    4  A    between atoms: C_10  and  C_26
REMARK    5  A    between atoms: C_11  and  C_16
REMARK    6  A    between atoms: C_19  and  C_22
REMARK    7  A    between atoms: C_22  and  O_24
REMARK    8  A    between atoms: O_24  and  C_25
REMARK    9  A    between atoms: C_26  and  O_28
REMARK   10  A    between atoms: O_28  and  C_29
REMARK                            x       y       z     vdW  Elec       q    Type
REMARK                         _______ _______ _______ _____ _____    ______ ____
ROOT
ATOM      1  N   UNL     1      -0.057   5.248  -0.080  0.00  0.00    -0.255 N 
ATOM      2  C   UNL     1       1.122   5.903   0.133  0.00  0.00    +0.027 C 
ATOM      3  C   UNL     1       1.161   7.249   0.249  0.00  0.00    +0.078 C 
ATOM      4  C   UNL     1      -0.149   8.003   0.148  0.00  0.00    +0.141 C 
ATOM      5  N   UNL     1      -1.365   7.203  -0.076  0.00  0.00    -0.315 N 
ATOM      6  C   UNL     1      -1.242   5.864  -0.177  0.00  0.00    +0.142 C 
ATOM      7  S   UNL     1      -2.647   4.922  -0.439  0.00  0.00    -0.018 S 
ATOM      8  C   UNL     1       2.402   5.113   0.233  0.00  0.00    +0.062 C 
ATOM      9  H   UNL     1      -2.233   7.628  -0.150  0.00  0.00    +0.149 HD
ENDROOT
BRANCH   1  15
ATOM     10  C   UNL     1       0.387   1.245  -2.902  0.00  0.00    +0.044 C 
ATOM     11  C   UNL     1       0.187   1.887  -1.553  0.00  0.00    -0.049 A 
ATOM     12  C   UNL     1       0.035   1.096  -0.428  0.00  0.00    +0.003 A 
ATOM     13  C   UNL     1      -0.142   1.681   0.812  0.00  0.00    +0.002 A 
ATOM     14  C   UNL     1      -0.173   3.057   0.931  0.00  0.00    +0.024 A 
ATOM     15  C   UNL     1      -0.027   3.853  -0.197  0.00  0.00    +0.040 A 
ATOM     16  C   UNL     1       0.151   3.262  -1.442  0.00  0.00    +0.027 A 
ENDBRANCH   1  15
BRANCH   4  17
ATOM     17  C   UNL     1      -0.336   8.782   1.424  0.00  0.00    -0.023 A 
ATOM     18  C   UNL     1      -0.951   8.187   2.511  0.00  0.00    +0.006 A 
ATOM     19  C   UNL     1      -1.120   8.893   3.684  0.00  0.00    +0.015 A 
ATOM     20  C   UNL     1      -0.678  10.215   3.770  0.00  0.00    +0.059 A 
ATOM     21  C   UNL     1      -0.063  10.811   2.667  0.00  0.00    +0.015 A 
ATOM     22  C   UNL     1       0.104  10.092   1.502  0.00  0.00    +0.006 A 
BRANCH  20  23
ATOM     23  C   UNL     1      -0.862  10.979   5.021  0.00  0.00    +0.339 C 
ATOM     24  O   UNL     1      -0.477  12.129   5.092  0.00  0.00    -0.245 OA
BRANCH  23  25
ATOM     25  O   UNL     1      -1.456  10.400   6.082  0.00  0.00    -0.464 OA
ATOM     26  C   UNL     1      -1.603  11.211   7.278  0.00  0.00    +0.280 C 
ENDBRANCH  23  25
ENDBRANCH  20  23
ENDBRANCH   4  17
BRANCH   3  27
ATOM     27  C   UNL     1       2.382   7.929   0.465  0.00  0.00    +0.339 C 
ATOM     28  O   UNL     1       3.422   7.303   0.543  0.00  0.00    -0.245 OA
BRANCH  27  29
ATOM     29  O   UNL     1       2.393   9.273   0.583  0.00  0.00    -0.465 OA
ATOM     30  C   UNL     1       3.662   9.895   0.799  0.00  0.00    +0.280 C 
ENDBRANCH  27  29
ENDBRANCH   3  27
TORSDOF 6
