REMARK  Name = ZINC63110956
REMARK  11 active torsions:
REMARK  status: ('A' for Active; 'I' for Inactive)
REMARK    1  A    between atoms: C_1  and  C_2
REMARK    2  A    between atoms: N_4  and  C_5
REMARK    3  A    between atoms: C_5  and  C_7
REMARK    4  A    between atoms: C_5  and  C_17
REMARK    5  A    between atoms: C_7  and  C_8
REMARK    6  A    between atoms: N_19  and  C_20
REMARK    7  A    between atoms: C_20  and  C_21
REMARK    8  A    between atoms: C_21  and  C_23
REMARK    9  A    between atoms: C_21  and  N_30
REMARK   10  A    between atoms: N_30  and  C_31
REMARK   11  A    between atoms: N_30  and  C_32
REMARK                            x       y       z     vdW  Elec       q    Type
REMARK                         _______ _______ _______ _____ _____    ______ ____
ROOT
ATOM      1  C   UNL     1      -1.447  -1.981  -0.634  0.00  0.00    +0.163 C 
ENDROOT
BRANCH   1   5
ATOM      2  C   UNL     1      -0.332   1.672  -0.896  0.00  0.00    +0.109 C 
ATOM      3  C   UNL     1      -0.313   0.174  -0.735  0.00  0.00    +0.211 C 
ATOM      4  O   UNL     1       0.738  -0.404  -0.556  0.00  0.00    -0.276 OA
ATOM      5  N   UNL     1      -1.465  -0.524  -0.790  0.00  0.00    -0.304 N 
ATOM      6  H   UNL     1      -2.306  -0.062  -0.933  0.00  0.00    +0.149 HD
ENDBRANCH   1   5
BRANCH   1   7
ATOM      7  C   UNL     1      -0.598  -2.592  -1.719  0.00  0.00    +0.234 C 
ATOM      8  O   UNL     1       0.216  -1.912  -2.307  0.00  0.00    -0.274 OA
ATOM      9  N   UNL     1      -0.744  -3.894  -2.036  0.00  0.00    -0.315 N 
ATOM     10  H   UNL     1      -1.395  -4.438  -1.565  0.00  0.00    +0.149 HD
BRANCH   9  11
ATOM     11  C   UNL     1       0.081  -4.488  -3.091  0.00  0.00    +0.093 C 
BRANCH  11  12
ATOM     12  C   UNL     1      -0.190  -5.992  -3.163  0.00  0.00    -0.020 C 
BRANCH  12  13
ATOM     13  C   UNL     1      -1.610  -6.226  -3.608  0.00  0.00    -0.041 A 
ATOM     14  C   UNL     1      -2.606  -6.422  -2.669  0.00  0.00    +0.003 A 
ATOM     15  C   UNL     1      -3.909  -6.637  -3.077  0.00  0.00    +0.000 A 
ATOM     16  C   UNL     1      -4.218  -6.656  -4.425  0.00  0.00    +0.001 A 
ATOM     17  C   UNL     1      -3.223  -6.461  -5.364  0.00  0.00    +0.020 A 
ATOM     18  C   UNL     1      -1.920  -6.240  -4.957  0.00  0.00    +0.043 A 
ATOM     19 CL   UNL     1      -0.671  -5.988  -6.136  0.00  0.00    -0.083 Cl
ENDBRANCH  12  13
BRANCH  12  20
ATOM     20  N   UNL     1       0.013  -6.591  -1.837  0.00  0.00    +0.382 N 
ATOM     21  C   UNL     1      -0.204  -8.041  -1.916  0.00  0.00    -0.096 C 
ATOM     22  C   UNL     1       1.385  -6.324  -1.385  0.00  0.00    -0.096 C 
ATOM     23  H   UNL     1      -0.641  -6.188  -1.183  0.00  0.00    -0.082 HD
ENDBRANCH  12  20
ENDBRANCH  11  12
ENDBRANCH   9  11
ENDBRANCH   1   7
BRANCH   1  24
ATOM     24  C   UNL     1      -0.862  -2.340   0.734  0.00  0.00    +0.065 C 
BRANCH  24  25
ATOM     25  C   UNL     1      -1.776  -1.834   1.820  0.00  0.00    -0.039 C 
ATOM     26  C   UNL     1      -2.743  -2.531   2.459  0.00  0.00    -0.001 A 
ATOM     27  C   UNL     1      -3.216  -3.915   2.338  0.00  0.00    +0.010 A 
ATOM     28  C   UNL     1      -4.227  -4.335   3.133  0.00  0.00    +0.001 A 
ATOM     29  C   UNL     1      -4.833  -3.483   4.066  0.00  0.00    +0.002 A 
ATOM     30  C   UNL     1      -4.454  -2.198   4.235  0.00  0.00    +0.026 A 
ATOM     31  C   UNL     1      -3.400  -1.651   3.452  0.00  0.00    +0.043 A 
ATOM     32  N   UNL     1      -2.859  -0.457   3.428  0.00  0.00    -0.380 N 
ATOM     33  C   UNL     1      -1.794  -0.446   2.420  0.00  0.00    +0.144 C 
ATOM     34  H   UNL     1      -3.118   0.292   3.987  0.00  0.00    +0.160 HD
ENDBRANCH  24  25
ENDBRANCH   1  24
TORSDOF 8
