REMARK  Name = ZINC42357129
REMARK  4 active torsions:
REMARK  status: ('A' for Active; 'I' for Inactive)
REMARK    1  A    between atoms: C_3  and  C_19
REMARK    2  A    between atoms: C_4  and  N_8
REMARK    3  A    between atoms: N_11  and  C_12
REMARK    4  A    between atoms: C_12  and  C_13
REMARK                            x       y       z     vdW  Elec       q    Type
REMARK                         _______ _______ _______ _____ _____    ______ ____
ROOT
ATOM      1  N   UNL     1       3.563  -0.664  -0.024  0.00  0.00    -0.269 N 
ATOM      2  C   UNL     1       3.550  -2.009  -0.116  0.00  0.00    +0.304 C 
ATOM      3  O   UNL     1       2.499  -2.597  -0.281  0.00  0.00    -0.252 OA
ATOM      4  N   UNL     1       4.703  -2.701  -0.026  0.00  0.00    -0.295 N 
ATOM      5  H   UNL     1       4.407  -0.190   0.030  0.00  0.00    +0.156 HD
ATOM      6  H   UNL     1       5.542  -2.232   0.106  0.00  0.00    +0.151 HD
ENDROOT
BRANCH   1  10
ATOM      7  C   UNL     1      -0.029   1.458   0.027  0.00  0.00    +0.039 A 
ATOM      8  C   UNL     1       1.069   2.006  -0.596  0.00  0.00    +0.020 A 
ATOM      9  C   UNL     1       2.280   1.305  -0.621  0.00  0.00    +0.084 A 
ATOM     10  C   UNL     1       2.365   0.043  -0.006  0.00  0.00    +0.052 A 
ATOM     11  C   UNL     1       1.248  -0.493   0.617  0.00  0.00    +0.062 A 
ATOM     12  C   UNL     1       0.058   0.211   0.633  0.00  0.00    +0.125 A 
ATOM     13  F   UNL     1      -1.027  -0.316   1.241  0.00  0.00    -0.205 F 
BRANCH   9  14
ATOM     14  C   UNL     1       3.456   1.884  -1.285  0.00  0.00    +0.388 C 
ATOM     15  O   UNL     1       3.356   2.939  -1.896  0.00  0.00    -0.241 OA
ATOM     16  O   UNL     1       4.536   1.311  -1.226  0.00  0.00    -0.241 OA
ENDBRANCH   9  14
ENDBRANCH   1  10
BRANCH   4  17
ATOM     17  C   UNL     1       4.690  -4.163  -0.126  0.00  0.00    +0.144 C 
BRANCH  17  18
ATOM     18  C   UNL     1       6.096  -4.688   0.006  0.00  0.00    +0.007 A 
ATOM     19  C   UNL     1       6.970  -4.888  -1.008  0.00  0.00    +0.110 A 
ATOM     20  N   UNL     1       8.114  -5.365  -0.476  0.00  0.00    -0.284 N 
ATOM     21  H   UNL     1       8.918  -5.599  -0.967  0.00  0.00    +0.188 HD
ATOM     22  N   UNL     1       7.938  -5.462   0.910  0.00  0.00    -0.182 NA
ATOM     23  C   UNL     1       6.730  -5.051   1.198  0.00  0.00    +0.139 A 
ENDBRANCH  17  18
ENDBRANCH   4  17
TORSDOF 4
