REMARK  Name = ZINC01697813
REMARK  4 active torsions:
REMARK  status: ('A' for Active; 'I' for Inactive)
REMARK    1  A    between atoms: C_4  and  C_7
REMARK    2  A    between atoms: C_7  and  C_8
REMARK    3  A    between atoms: C_11  and  N_14
REMARK    4  A    between atoms: N_17  and  C_18
REMARK                            x       y       z     vdW  Elec       q    Type
REMARK                         _______ _______ _______ _____ _____    ______ ____
ROOT
ATOM      1  C   UNL     1       6.385   2.902   2.290  0.00  0.00    -0.011 C 
ATOM      2  C   UNL     1       6.521   2.458   0.832  0.00  0.00    +0.005 C 
ATOM      3  C   UNL     1       6.362   0.939   0.745  0.00  0.00    +0.022 C 
ATOM      4  C   UNL     1       4.982   0.540   1.273  0.00  0.00    +0.074 C 
ATOM      5  C   UNL     1       4.846   0.984   2.731  0.00  0.00    +0.022 C 
ATOM      6  C   UNL     1       5.006   2.503   2.818  0.00  0.00    +0.005 C 
ENDROOT
BRANCH   4   7
ATOM      7  N   UNL     1       3.944   1.187   0.467  0.00  0.00    -0.297 N 
ATOM      8  C   UNL     1       2.716   0.639   0.384  0.00  0.00    +0.300 C 
ATOM      9  O   UNL     1       2.469  -0.393   0.979  0.00  0.00    -0.253 OA
ATOM     10  N   UNL     1       1.761   1.234  -0.357  0.00  0.00    -0.297 N 
ATOM     11  H   UNL     1       4.141   2.010  -0.008  0.00  0.00    +0.151 HD
ATOM     12  H   UNL     1       1.958   2.057  -0.832  0.00  0.00    +0.151 HD
BRANCH  10  13
ATOM     13  C   UNL     1       0.425   0.638  -0.447  0.00  0.00    +0.074 C 
ATOM     14  C   UNL     1      -0.419   1.097   0.743  0.00  0.00    +0.022 C 
ATOM     15  C   UNL     1      -1.814   0.475   0.649  0.00  0.00    +0.002 C 
ATOM     16  C   UNL     1      -2.484   0.919  -0.653  0.00  0.00    +0.000 C 
ATOM     17  C   UNL     1      -1.639   0.459  -1.843  0.00  0.00    +0.002 C 
ATOM     18  C   UNL     1      -0.244   1.082  -1.749  0.00  0.00    +0.022 C 
ENDBRANCH  10  13
ENDBRANCH   4   7
BRANCH   1  19
ATOM     19  C   UNL     1       6.544   4.422   2.377  0.00  0.00    +0.007 C 
BRANCH  19  23
ATOM     20  C   UNL     1       7.823   6.244   6.088  0.00  0.00    +0.000 C 
ATOM     21  C   UNL     1       7.808   4.717   6.002  0.00  0.00    +0.000 C 
ATOM     22  C   UNL     1       7.799   4.289   4.533  0.00  0.00    +0.003 C 
ATOM     23  C   UNL     1       6.553   4.850   3.846  0.00  0.00    -0.011 C 
ATOM     24  C   UNL     1       6.567   6.377   3.932  0.00  0.00    +0.003 C 
ATOM     25  C   UNL     1       6.576   6.806   5.401  0.00  0.00    +0.000 C 
ENDBRANCH  19  23
ENDBRANCH   1  19
TORSDOF 4
