REMARK  Name = ZINC64129790
REMARK  8 active torsions:
REMARK  status: ('A' for Active; 'I' for Inactive)
REMARK    1  A    between atoms: C_1  and  C_2
REMARK    2  A    between atoms: C_5  and  C_26
REMARK    3  A    between atoms: C_6  and  S_8
REMARK    4  A    between atoms: S_8  and  C_11
REMARK    5  A    between atoms: C_11  and  C_12
REMARK    6  A    between atoms: C_12  and  N_13
REMARK    7  A    between atoms: N_16  and  C_19
REMARK    8  A    between atoms: C_19  and  C_20
REMARK                            x       y       z     vdW  Elec       q    Type
REMARK                         _______ _______ _______ _____ _____    ______ ____
ROOT
ATOM      1  N   UNL     1      -1.824  -6.867   4.275  0.00  0.00    -0.304 NA
ATOM      2  C   UNL     1      -1.659  -7.727   3.095  0.00  0.00    +0.066 C 
ATOM      3  C   UNL     1      -2.942  -8.528   2.868  0.00  0.00    -0.063 C 
ATOM      4  N   UNL     1      -3.225  -9.346   4.055  0.00  0.00    +0.382 N 
ATOM      5  C   UNL     1      -3.412  -8.472   5.221  0.00  0.00    -0.063 C 
ATOM      6  C   UNL     1      -2.132  -7.669   5.467  0.00  0.00    +0.066 C 
ATOM      7  H   UNL     1      -2.452  -9.972   4.225  0.00  0.00    -0.082 HD
ENDROOT
BRANCH   1   8
ATOM      8  C   UNL     1      -0.631  -6.037   4.493  0.00  0.00    +0.107 C 
BRANCH   8   9
ATOM      9  C   UNL     1      -0.485  -5.041   3.341  0.00  0.00    +0.187 C 
BRANCH   9  10
ATOM     10  S   UNL     1       0.988  -4.017   3.611  0.00  0.00    -0.002 S 
ATOM     11  O   UNL     1       2.164  -4.782   3.384  0.00  0.00    -0.169 OA
ATOM     12  O   UNL     1       0.841  -3.250   4.798  0.00  0.00    -0.169 OA
BRANCH  10  18
ATOM     13  C   UNL     1       3.062  -1.873  -0.681  0.00  0.00    +0.044 C 
ATOM     14  C   UNL     1       1.957  -1.889   0.343  0.00  0.00    -0.049 A 
ATOM     15  C   UNL     1       0.922  -0.977   0.258  0.00  0.00    +0.004 A 
ATOM     16  C   UNL     1      -0.092  -0.992   1.197  0.00  0.00    +0.005 A 
ATOM     17  C   UNL     1      -0.072  -1.921   2.221  0.00  0.00    -0.026 A 
ATOM     18  C   UNL     1       0.962  -2.834   2.305  0.00  0.00    +0.091 A 
ATOM     19  C   UNL     1       1.974  -2.821   1.363  0.00  0.00    +0.030 A 
ATOM     20  C   UNL     1      -1.177  -1.937   3.245  0.00  0.00    +0.046 C 
ENDBRANCH  10  18
ENDBRANCH   9  10
ENDBRANCH   8   9
ENDBRANCH   1   8
BRANCH   4  21
ATOM     21  C   UNL     1      -4.447 -10.129   3.830  0.00  0.00    -0.075 C 
BRANCH  21  22
ATOM     22  C   UNL     1      -4.201 -11.150   2.717  0.00  0.00    -0.028 C 
ATOM     23  C   UNL     1      -3.121 -12.138   3.162  0.00  0.00    +0.002 C 
ATOM     24  C   UNL     1      -2.875 -13.159   2.050  0.00  0.00    +0.000 C 
ATOM     25  C   UNL     1      -4.171 -13.918   1.758  0.00  0.00    +0.000 C 
ATOM     26  C   UNL     1      -5.251 -12.930   1.313  0.00  0.00    +0.000 C 
ATOM     27  C   UNL     1      -5.497 -11.909   2.426  0.00  0.00    +0.002 C 
ENDBRANCH  21  22
ENDBRANCH   4  21
TORSDOF 6
