REMARK  Name = ZINC54945675
REMARK  10 active torsions:
REMARK  status: ('A' for Active; 'I' for Inactive)
REMARK    1  A    between atoms: C_1  and  C_2
REMARK    2  A    between atoms: C_7  and  N_8
REMARK    3  A    between atoms: C_9  and  C_11
REMARK    4  A    between atoms: N_13  and  C_14
REMARK    5  A    between atoms: C_14  and  C_15
REMARK    6  A    between atoms: C_15  and  C_16
REMARK    7  A    between atoms: C_15  and  C_17
REMARK    8  A    between atoms: C_15  and  N_18
REMARK    9  A    between atoms: C_20  and  C_27
REMARK   10  A    between atoms: C_23  and  C_26
REMARK                            x       y       z     vdW  Elec       q    Type
REMARK                         _______ _______ _______ _____ _____    ______ ____
ROOT
ATOM      1  C   UNL     1       1.637   1.671   6.267  0.00  0.00    +0.299 C 
ATOM      2  O   UNL     1       0.792   1.906   5.429  0.00  0.00    -0.265 OA
ATOM      3  N   UNL     1       1.467   0.647   7.127  0.00  0.00    -0.309 N 
ATOM      4  H   UNL     1       2.142   0.459   7.797  0.00  0.00    +0.149 HD
ENDROOT
BRANCH   1   6
ATOM      5  N   UNL     1       3.037   3.539   5.486  0.00  0.00    -0.278 N 
ATOM      6  C   UNL     1       2.867   2.515   6.346  0.00  0.00    +0.303 C 
ATOM      7  O   UNL     1       3.712   2.280   7.185  0.00  0.00    -0.265 OA
ATOM      8  H   UNL     1       2.336   3.764   4.854  0.00  0.00    +0.155 HD
BRANCH   5  15
ATOM      9  C   UNL     1       4.041   4.529   3.015  0.00  0.00    +0.045 C 
ATOM     10  C   UNL     1       4.750   4.779   4.321  0.00  0.00    -0.029 A 
ATOM     11  C   UNL     1       5.920   5.513   4.344  0.00  0.00    +0.005 A 
ATOM     12  C   UNL     1       6.571   5.742   5.542  0.00  0.00    +0.000 A 
ATOM     13  C   UNL     1       6.053   5.238   6.721  0.00  0.00    +0.002 A 
ATOM     14  C   UNL     1       4.884   4.504   6.706  0.00  0.00    +0.023 A 
ATOM     15  C   UNL     1       4.224   4.277   5.505  0.00  0.00    +0.037 A 
ENDBRANCH   5  15
ENDBRANCH   1   6
BRANCH   3  16
ATOM     16  C   UNL     1       0.261  -0.181   7.050  0.00  0.00    +0.092 C 
BRANCH  16  17
ATOM     17  C   UNL     1       0.256  -1.183   8.206  0.00  0.00    -0.055 C 
ATOM     18  C   UNL     1       0.244  -0.428   9.536  0.00  0.00    -0.008 C 
ATOM     19  C   UNL     1      -0.990  -2.066   8.110  0.00  0.00    -0.008 C 
BRANCH  17  20
ATOM     20  N   UNL     1       1.458  -2.024   8.130  0.00  0.00    +0.384 N 
ATOM     21  C   UNL     1       1.525  -2.663   6.811  0.00  0.00    -0.075 C 
ATOM     22  C   UNL     1       2.817  -3.475   6.698  0.00  0.00    -0.031 C 
ATOM     23  C   UNL     1       2.835  -4.550   7.788  0.00  0.00    +0.003 C 
ATOM     24  C   UNL     1       2.690  -3.877   9.156  0.00  0.00    -0.031 C 
ATOM     25  C   UNL     1       1.403  -3.050   9.178  0.00  0.00    -0.075 C 
ATOM     26  C   UNL     1       2.629  -4.948  10.248  0.00  0.00    +0.005 C 
ATOM     27  C   UNL     1       2.884  -4.141   5.322  0.00  0.00    +0.005 C 
ATOM     28  H   UNL     1       2.277  -1.450   8.266  0.00  0.00    -0.081 HD
ENDBRANCH  17  20
ENDBRANCH  16  17
ENDBRANCH   3  16
TORSDOF 5
