REMARK  Name = ZINC39951176
REMARK  5 active torsions:
REMARK  status: ('A' for Active; 'I' for Inactive)
REMARK    1  A    between atoms: C_1  and  C_2
REMARK    2  A    between atoms: C_2  and  C_3
REMARK    3  A    between atoms: C_3  and  C_4
REMARK    4  A    between atoms: C_9  and  C_25
REMARK    5  A    between atoms: C_25  and  C_26
REMARK                            x       y       z     vdW  Elec       q    Type
REMARK                         _______ _______ _______ _____ _____    ______ ____
ROOT
ATOM      1  C   UNL     1      -1.394  -2.067   0.022  0.00  0.00    +0.028 C 
ATOM      2  C   UNL     1      -2.811  -2.613   0.026  0.00  0.00    -0.059 C 
ATOM      3  N   UNL     1      -2.986  -4.001   0.331  0.00  0.00    +0.401 N 
ATOM      4  C   UNL     1      -2.931  -4.952  -0.753  0.00  0.00    -0.074 C 
ATOM      5  C   UNL     1      -1.926  -4.675  -1.815  0.00  0.00    -0.003 C 
ATOM      6  C   UNL     1      -0.633  -4.079  -1.352  0.00  0.00    +0.040 C 
ATOM      7  C   UNL     1      -0.691  -2.587  -1.226  0.00  0.00    +0.146 C 
ATOM      8  O   UNL     1      -0.224  -1.850  -2.061  0.00  0.00    -0.296 OA
ATOM      9  C   UNL     1      -0.146  -4.693  -0.041  0.00  0.00    +0.098 C 
ATOM     10  N   UNL     1      -0.730  -4.097   1.150  0.00  0.00    -0.299 NA
ATOM     11  C   UNL     1      -0.585  -2.620   1.206  0.00  0.00    +0.096 C 
ATOM     12  C   UNL     1      -2.116  -4.471   1.413  0.00  0.00    +0.095 C 
ATOM     13  C   UNL     1      -2.576  -3.941   2.736  0.00  0.00    -0.014 A 
ATOM     14  C   UNL     1      -2.695  -2.653   3.211  0.00  0.00    +0.006 A 
ATOM     15  C   UNL     1      -3.159  -2.502   4.513  0.00  0.00    +0.000 A 
ATOM     16  C   UNL     1      -3.485  -3.594   5.292  0.00  0.00    +0.002 A 
ATOM     17  C   UNL     1      -3.369  -4.892   4.820  0.00  0.00    +0.023 A 
ATOM     18  C   UNL     1      -2.905  -5.058   3.514  0.00  0.00    +0.037 A 
ATOM     19  N   UNL     1      -2.696  -6.222   2.796  0.00  0.00    -0.285 N 
ATOM     20  C   UNL     1      -2.235  -5.975   1.553  0.00  0.00    +0.225 C 
ATOM     21  O   UNL     1      -1.965  -6.801   0.707  0.00  0.00    -0.275 OA
ATOM     22  H   UNL     1      -2.862  -7.111   3.146  0.00  0.00    +0.155 HD
ATOM     23  H   UNL     1      -3.924  -4.083   0.693  0.00  0.00    -0.078 HD
ENDROOT
BRANCH   6  24
ATOM     24  C   UNL     1       0.423  -4.404  -2.410  0.00  0.00    +0.012 C 
ATOM     25  C   UNL     1       0.652  -5.916  -2.454  0.00  0.00    +0.005 C 
ENDBRANCH   6  24
BRANCH   1  26
ATOM     26  C   UNL     1      -1.404  -0.537   0.040  0.00  0.00    +0.013 C 
BRANCH  26  28
ATOM     27  C   UNL     1       0.025   1.513   0.050  0.00  0.00    +0.004 C 
ATOM     28  C   UNL     1       0.035  -0.017   0.031  0.00  0.00    -0.002 C 
ENDBRANCH  26  28
ENDBRANCH   1  26
TORSDOF 3
