REMARK  Name = ZINC15606069
REMARK  10 active torsions:
REMARK  status: ('A' for Active; 'I' for Inactive)
REMARK    1  A    between atoms: C_1  and  O_2
REMARK    2  A    between atoms: O_2  and  C_3
REMARK    3  A    between atoms: C_3  and  C_4
REMARK    4  A    between atoms: C_4  and  C_5
REMARK    5  A    between atoms: C_5  and  N_6
REMARK    6  A    between atoms: N_6  and  C_7
REMARK    7  A    between atoms: C_8  and  N_23
REMARK    8  A    between atoms: N_9  and  C_16
REMARK    9  A    between atoms: C_16  and  C_17
REMARK   10  A    between atoms: C_24  and  C_26
REMARK                            x       y       z     vdW  Elec       q    Type
REMARK                         _______ _______ _______ _____ _____    ______ ____
ROOT
ATOM      1  N   UNL     1      -2.548  -2.151   3.519  0.00  0.00    -0.264 N 
ATOM      2  C   UNL     1      -1.387  -2.460   2.904  0.00  0.00    +0.227 C 
ATOM      3  O   UNL     1      -0.493  -2.991   3.528  0.00  0.00    -0.275 OA
ENDROOT
BRANCH   2   4
ATOM      4  C   UNL     1      -1.203  -2.146   1.442  0.00  0.00    +0.117 C 
ATOM      5  C   UNL     1      -0.328  -3.220   0.789  0.00  0.00    +0.055 C 
ATOM      6  C   UNL     1       0.102  -2.761  -0.581  0.00  0.00    -0.004 A 
ATOM      7  C   UNL     1       0.577  -3.702  -1.480  0.00  0.00    +0.027 A 
ATOM      8  C   UNL     1       0.987  -3.316  -2.742  0.00  0.00    +0.041 A 
ATOM      9  C   UNL     1       0.925  -1.984  -3.111  0.00  0.00    +0.023 A 
ATOM     10  C   UNL     1       0.451  -1.044  -2.220  0.00  0.00    +0.047 A 
ATOM     11  C   UNL     1       0.035  -1.429  -0.950  0.00  0.00    +0.124 A 
ATOM     12  O   UNL     1      -0.429  -0.474  -0.102  0.00  0.00    -0.491 OA
ATOM     13  C   UNL     1      -0.497  -0.792   1.289  0.00  0.00    +0.242 C 
ATOM     14 CL   UNL     1       1.581  -4.502  -3.862  0.00  0.00    -0.084 Cl
ENDBRANCH   2   4
BRANCH   1  15
ATOM     15  C   UNL     1      -3.549  -1.443   2.821  0.00  0.00    +0.140 A 
ATOM     16  C   UNL     1      -3.814  -0.122   3.122  0.00  0.00    +0.128 A 
ATOM     17  N   UNL     1      -4.800   0.540   2.428  0.00  0.00    -0.276 N 
ATOM     18  C   UNL     1      -5.491  -0.089   1.461  0.00  0.00    +0.331 A 
ATOM     19  O   UNL     1      -6.356   0.515   0.856  0.00  0.00    -0.246 OA
ATOM     20  N   UNL     1      -5.243  -1.374   1.150  0.00  0.00    -0.273 N 
ATOM     21  H   UNL     1      -5.771  -1.818   0.426  0.00  0.00    +0.173 HD
ATOM     22  C   UNL     1      -4.292  -2.069   1.803  0.00  0.00    +0.277 A 
ATOM     23  O   UNL     1      -4.075  -3.234   1.513  0.00  0.00    -0.266 OA
BRANCH  16  24
ATOM     24  N   UNL     1      -3.104   0.522   4.107  0.00  0.00    -0.343 N 
ATOM     25  H   UNL     1      -3.235   1.471   4.257  0.00  0.00    +0.144 HD
ATOM     26  H   UNL     1      -2.473   0.028   4.652  0.00  0.00    +0.144 HD
ENDBRANCH  16  24
BRANCH  17  27
ATOM     27  C   UNL     1      -5.095   1.940   2.741  0.00  0.00    +0.163 C 
BRANCH  27  28
ATOM     28  C   UNL     1      -6.159   2.004   3.806  0.00  0.00    -0.028 A 
ATOM     29  C   UNL     1      -5.800   2.023   5.141  0.00  0.00    +0.005 A 
ATOM     30  C   UNL     1      -6.775   2.087   6.119  0.00  0.00    +0.000 A 
ATOM     31  C   UNL     1      -8.110   2.127   5.761  0.00  0.00    +0.000 A 
ATOM     32  C   UNL     1      -8.469   2.102   4.427  0.00  0.00    +0.000 A 
ATOM     33  C   UNL     1      -7.494   2.039   3.449  0.00  0.00    +0.005 A 
ENDBRANCH  27  28
ENDBRANCH  17  27
ENDBRANCH   1  15
BRANCH   1  34
ATOM     34  C   UNL     1      -2.768  -2.550   4.911  0.00  0.00    +0.116 C 
BRANCH  34  35
ATOM     35  C   UNL     1      -3.309  -3.981   4.951  0.00  0.00    +0.047 C 
BRANCH  35  36
ATOM     36  C   UNL     1      -3.575  -4.385   6.403  0.00  0.00    +0.161 C 
BRANCH  36  38
ATOM     37  C   UNL     1      -4.362  -6.199   7.757  0.00  0.00    +0.193 C 
ATOM     38  O   UNL     1      -4.079  -5.722   6.441  0.00  0.00    -0.383 OA
ENDBRANCH  36  38
ENDBRANCH  35  36
ENDBRANCH  34  35
ENDBRANCH   1  34
TORSDOF 9
