REMARK  Name = ZINC19913461
REMARK  4 active torsions:
REMARK  status: ('A' for Active; 'I' for Inactive)
REMARK    1  A    between atoms: C_4  and  C_7
REMARK    2  A    between atoms: C_10  and  C_34
REMARK    3  A    between atoms: N_12  and  C_13
REMARK    4  A    between atoms: C_16  and  C_19
REMARK                            x       y       z     vdW  Elec       q    Type
REMARK                         _______ _______ _______ _____ _____    ______ ____
ROOT
ATOM      1  C   UNL     1       3.322  -1.958  -2.225  0.00  0.00    +0.052 A 
ATOM      2  C   UNL     1       3.099  -0.775  -2.921  0.00  0.00    +0.025 A 
ATOM      3  C   UNL     1       2.811  -0.813  -4.270  0.00  0.00    +0.009 A 
ATOM      4  C   UNL     1       2.742  -2.027  -4.930  0.00  0.00    -0.007 A 
ATOM      5  C   UNL     1       2.962  -3.206  -4.242  0.00  0.00    +0.009 A 
ATOM      6  C   UNL     1       3.258  -3.175  -2.893  0.00  0.00    +0.025 A 
ENDROOT
BRANCH   4   7
ATOM      7  C   UNL     1       2.426  -2.064  -6.403  0.00  0.00    +0.209 C 
ATOM      8  N   UNL     1       3.245  -3.097  -7.063  0.00  0.00    -0.294 N 
ATOM      9  C   UNL     1       2.823  -4.416  -6.972  0.00  0.00    +0.159 C 
ATOM     10  N   UNL     1       1.500  -4.670  -7.337  0.00  0.00    -0.259 N 
ATOM     11  C   UNL     1       0.597  -3.655  -7.034  0.00  0.00    +0.205 A 
ATOM     12  N   UNL     1       1.015  -2.415  -6.600  0.00  0.00    -0.288 N 
ATOM     13  C   UNL     1      -0.103  -1.655  -6.407  0.00  0.00    +0.072 A 
ATOM     14  C   UNL     1      -0.295  -0.344  -5.988  0.00  0.00    +0.028 A 
ATOM     15  C   UNL     1      -1.602   0.107  -5.903  0.00  0.00    +0.002 A 
ATOM     16  C   UNL     1      -2.679  -0.702  -6.219  0.00  0.00    +0.002 A 
ATOM     17  C   UNL     1      -2.516  -2.010  -6.639  0.00  0.00    +0.030 A 
ATOM     18  C   UNL     1      -1.204  -2.487  -6.732  0.00  0.00    +0.091 A 
ATOM     19  N   UNL     1      -0.706  -3.688  -7.103  0.00  0.00    -0.214 NA
ATOM     20  N   UNL     1       3.619  -5.365  -6.569  0.00  0.00    -0.375 N 
ATOM     21  H   UNL     1       1.230  -5.494  -7.771  0.00  0.00    +0.158 HD
ATOM     22  H   UNL     1       4.534  -5.159  -6.322  0.00  0.00    +0.158 HD
ATOM     23  H   UNL     1       4.054  -2.863  -7.545  0.00  0.00    +0.151 HD
ATOM     24  H   UNL     1       3.296  -6.279  -6.515  0.00  0.00    +0.158 HD
ENDBRANCH   4   7
BRANCH   1  29
ATOM     25  C   UNL     1       3.711  -0.707  -0.038  0.00  0.00    +0.134 C 
ATOM     26  C   UNL     1       4.051  -1.244   1.367  0.00  0.00    +0.087 C 
ATOM     27  C   UNL     1       4.109  -2.743   1.180  0.00  0.00    +0.069 C 
ATOM     28  N   UNL     1       3.860  -3.033  -0.051  0.00  0.00    -0.183 NA
ATOM     29  N   UNL     1       3.614  -1.923  -0.861  0.00  0.00    -0.216 N 
BRANCH  25  33
ATOM     30  C   UNL     1      -0.017   1.378   0.010  0.00  0.00    +0.000 A 
ATOM     31  C   UNL     1       1.171   2.086   0.002  0.00  0.00    +0.000 A 
ATOM     32  C   UNL     1       2.377   1.411  -0.013  0.00  0.00    +0.005 A 
ATOM     33  C   UNL     1       2.396   0.029  -0.020  0.00  0.00    -0.025 A 
ATOM     34  C   UNL     1       1.208  -0.679  -0.012  0.00  0.00    +0.005 A 
ATOM     35  C   UNL     1       0.002  -0.004   0.002  0.00  0.00    +0.000 A 
ENDBRANCH  25  33
BRANCH  27  36
ATOM     36  C   UNL     1       4.404  -3.722   2.242  0.00  0.00    -0.002 A 
ATOM     37  C   UNL     1       4.653  -3.289   3.547  0.00  0.00    +0.010 A 
ATOM     38  C   UNL     1       4.928  -4.211   4.535  0.00  0.00    +0.001 A 
ATOM     39  C   UNL     1       4.958  -5.561   4.237  0.00  0.00    +0.000 A 
ATOM     40  C   UNL     1       4.712  -5.998   2.947  0.00  0.00    +0.001 A 
ATOM     41  C   UNL     1       4.429  -5.088   1.950  0.00  0.00    +0.010 A 
ENDBRANCH  27  36
ENDBRANCH   1  29
TORSDOF 4
