REMARK  Name = ZINC23251373
REMARK  8 active torsions:
REMARK  status: ('A' for Active; 'I' for Inactive)
REMARK    1  A    between atoms: C_1  and  C_2
REMARK    2  A    between atoms: C_2  and  C_3
REMARK    3  A    between atoms: C_3  and  N_4
REMARK    4  A    between atoms: C_7  and  C_9
REMARK    5  A    between atoms: C_18  and  N_22
REMARK    6  A    between atoms: N_22  and  C_23
REMARK    7  A    between atoms: C_23  and  C_24
REMARK    8  A    between atoms: C_24  and  N_29
REMARK                            x       y       z     vdW  Elec       q    Type
REMARK                         _______ _______ _______ _____ _____    ______ ____
ROOT
ATOM      1  N   UNL     1       0.500   0.015  -2.165  0.00  0.00    -0.267 N 
ATOM      2  C   UNL     1       1.390  -0.903  -1.756  0.00  0.00    +0.043 A 
ATOM      3  C   UNL     1       0.849  -2.122  -1.998  0.00  0.00    +0.004 A 
ATOM      4  C   UNL     1      -0.411  -1.878  -2.570  0.00  0.00    +0.151 A 
ATOM      5  N   UNL     1      -0.550  -0.565  -2.634  0.00  0.00    -0.166 NA
ATOM      6  C   UNL     1       1.521  -3.432  -1.692  0.00  0.00    +0.023 C 
ATOM      7  C   UNL     1       3.015  -3.165  -1.464  0.00  0.00    -0.067 C 
ATOM      8  C   UNL     1       3.182  -2.009  -0.473  0.00  0.00    -0.009 C 
ATOM      9  C   UNL     1       2.748  -0.695  -1.136  0.00  0.00    +0.054 C 
ENDROOT
BRANCH   4  10
ATOM     10  C   UNL     1      -1.392  -2.892  -3.010  0.00  0.00    +0.267 C 
ATOM     11  O   UNL     1      -1.187  -4.070  -2.793  0.00  0.00    -0.268 OA
ATOM     12  N   UNL     1      -2.514  -2.510  -3.652  0.00  0.00    -0.296 N 
ATOM     13  C   UNL     1      -2.704  -1.111  -4.059  0.00  0.00    +0.108 C 
ATOM     14  C   UNL     1      -3.026  -1.073  -5.556  0.00  0.00    +0.019 C 
ATOM     15  C   UNL     1      -4.226  -1.978  -5.840  0.00  0.00    +0.003 C 
ATOM     16  C   UNL     1      -3.881  -3.420  -5.457  0.00  0.00    +0.019 C 
ATOM     17  C   UNL     1      -3.567  -3.486  -3.963  0.00  0.00    +0.108 C 
ENDBRANCH   4  10
BRANCH   7  18
ATOM     18  N   UNL     1       3.651  -4.372  -0.919  0.00  0.00    +0.382 N 
ATOM     19  H   UNL     1       3.272  -4.568  -0.004  0.00  0.00    -0.085 HD
ATOM     20  H   UNL     1       3.471  -5.152  -1.532  0.00  0.00    -0.085 HD
BRANCH  18  21
ATOM     21  C   UNL     1       5.100  -4.156  -0.812  0.00  0.00    -0.060 C 
BRANCH  21  22
ATOM     22  C   UNL     1       5.783  -5.467  -0.416  0.00  0.00    +0.007 C 
ATOM     23  C   UNL     1       5.394  -5.851   1.026  0.00  0.00    +0.020 C 
ATOM     24  C   UNL     1       6.688  -6.463   1.618  0.00  0.00    +0.002 C 
ATOM     25  C   UNL     1       7.798  -5.572   1.008  0.00  0.00    +0.002 C 
ATOM     26  C   UNL     1       7.311  -5.290  -0.428  0.00  0.00    +0.020 C 
BRANCH  22  27
ATOM     27  N   UNL     1       5.393  -6.537  -1.345  0.00  0.00    -0.294 NA
ATOM     28  C   UNL     1       6.046  -7.806  -0.990  0.00  0.00    +0.113 C 
ATOM     29  C   UNL     1       5.567  -8.904  -1.943  0.00  0.00    +0.175 C 
ATOM     30  O   UNL     1       5.843  -8.511  -3.291  0.00  0.00    -0.377 OA
ATOM     31  C   UNL     1       5.223  -7.280  -3.670  0.00  0.00    +0.175 C 
ATOM     32  C   UNL     1       5.698  -6.166  -2.734  0.00  0.00    +0.113 C 
ENDBRANCH  22  27
ENDBRANCH  21  22
ENDBRANCH  18  21
ENDBRANCH   7  18
BRANCH   1  33
ATOM     33  C   UNL     1       0.693   1.466  -2.085  0.00  0.00    +0.143 C 
BRANCH  33  35
ATOM     34  C   UNL     1       0.370   3.490  -0.656  0.00  0.00    +0.005 C 
ATOM     35  C   UNL     1       0.169   1.976  -0.741  0.00  0.00    +0.020 C 
ENDBRANCH  33  35
ENDBRANCH   1  33
TORSDOF 7
