REMARK  Name = ZINC63529259
REMARK  9 active torsions:
REMARK  status: ('A' for Active; 'I' for Inactive)
REMARK    1  A    between atoms: C_1  and  O_2
REMARK    2  A    between atoms: O_2  and  C_3
REMARK    3  A    between atoms: C_9  and  C_12
REMARK    4  A    between atoms: C_12  and  C_13
REMARK    5  A    between atoms: C_13  and  N_14
REMARK    6  A    between atoms: C_15  and  C_28
REMARK    7  A    between atoms: N_19  and  C_22
REMARK    8  A    between atoms: C_28  and  C_29
REMARK    9  A    between atoms: N_31  and  C_32
REMARK                            x       y       z     vdW  Elec       q    Type
REMARK                         _______ _______ _______ _____ _____    ______ ____
ROOT
ATOM      1  N   UNL     1       1.751  -6.882   0.050  0.00  0.00    -0.300 N 
ATOM      2  C   UNL     1       1.959  -8.252   0.551  0.00  0.00    +0.171 C 
ATOM      3  C   UNL     1       1.588  -9.124  -0.632  0.00  0.00    +0.246 C 
ATOM      4  O   UNL     1       1.606 -10.335  -0.683  0.00  0.00    -0.273 OA
ATOM      5  N   UNL     1       1.234  -8.273  -1.615  0.00  0.00    -0.220 N 
ATOM      6  C   UNL     1       1.323  -6.998  -1.220  0.00  0.00    +0.147 C 
ATOM      7  S   UNL     1       0.940  -5.663  -2.221  0.00  0.00    -0.018 S 
ENDROOT
BRANCH   5   8
ATOM      8  C   UNL     1       0.818  -8.675  -2.892  0.00  0.00    +0.043 A 
ATOM      9  C   UNL     1       1.491  -8.218  -4.018  0.00  0.00    +0.024 A 
ATOM     10  C   UNL     1       1.079  -8.616  -5.275  0.00  0.00    +0.002 A 
ATOM     11  C   UNL     1      -0.002  -9.467  -5.413  0.00  0.00    +0.000 A 
ATOM     12  C   UNL     1      -0.674  -9.923  -4.294  0.00  0.00    +0.002 A 
ATOM     13  C   UNL     1      -0.263  -9.534  -3.034  0.00  0.00    +0.024 A 
ENDBRANCH   5   8
BRANCH   1  14
ATOM     14  C   UNL     1       1.962  -5.637   0.792  0.00  0.00    +0.112 C 
BRANCH  14  15
ATOM     15  C   UNL     1       0.692  -5.285   1.570  0.00  0.00    +0.052 C 
BRANCH  15  22
ATOM     16  C   UNL     1      -0.060  -0.805   0.894  0.00  0.00    +0.121 A 
ATOM     17  C   UNL     1       0.328   0.019   1.964  0.00  0.00    +0.047 A 
ATOM     18  C   UNL     1       0.878  -0.470   3.096  0.00  0.00    +0.029 A 
ATOM     19  C   UNL     1       1.087  -1.914   3.239  0.00  0.00    +0.043 A 
ATOM     20  N   UNL     1       1.590  -2.635   4.210  0.00  0.00    -0.380 N 
ATOM     21  C   UNL     1       1.557  -4.046   3.810  0.00  0.00    +0.144 C 
ATOM     22  C   UNL     1       0.947  -4.071   2.426  0.00  0.00    -0.040 C 
ATOM     23  C   UNL     1       0.677  -2.784   2.112  0.00  0.00    +0.002 A 
ATOM     24  C   UNL     1       0.085  -2.151   0.928  0.00  0.00    +0.055 A 
ATOM     25  H   UNL     1       1.928  -2.293   5.052  0.00  0.00    +0.160 HD
BRANCH  16  27
ATOM     26  C   UNL     1      -0.742   1.191  -0.204  0.00  0.00    +0.277 C 
ATOM     27  O   UNL     1      -0.607  -0.232  -0.211  0.00  0.00    -0.495 OA
ENDBRANCH  16  27
ENDBRANCH  15  22
ENDBRANCH  14  15
ENDBRANCH   1  14
BRANCH   2  28
ATOM     28  C   UNL     1       1.040  -8.535   1.741  0.00  0.00    +0.128 C 
BRANCH  28  29
ATOM     29  C   UNL     1       1.368  -9.888   2.318  0.00  0.00    +0.219 C 
ATOM     30  O   UNL     1       2.314 -10.516   1.892  0.00  0.00    -0.275 OA
ATOM     31  N   UNL     1       0.609 -10.401   3.307  0.00  0.00    -0.285 N 
ATOM     32  H   UNL     1      -0.185  -9.930   3.603  0.00  0.00    +0.155 HD
BRANCH  31  33
ATOM     33  C   UNL     1       0.967 -11.614   3.905  0.00  0.00    +0.033 A 
ATOM     34  C   UNL     1      -0.017 -12.493   4.340  0.00  0.00    +0.023 A 
ATOM     35  C   UNL     1       0.339 -13.689   4.930  0.00  0.00    +0.002 A 
ATOM     36  C   UNL     1       1.674 -14.013   5.090  0.00  0.00    +0.000 A 
ATOM     37  C   UNL     1       2.656 -13.140   4.659  0.00  0.00    +0.002 A 
ATOM     38  C   UNL     1       2.307 -11.945   4.062  0.00  0.00    +0.023 A 
ENDBRANCH  31  33
ENDBRANCH  28  29
ENDBRANCH   2  28
TORSDOF 8
