REMARK  Name = ZINC46833892
REMARK  8 active torsions:
REMARK  status: ('A' for Active; 'I' for Inactive)
REMARK    1  A    between atoms: C_1  and  C_2
REMARK    2  A    between atoms: C_5  and  C_27
REMARK    3  A    between atoms: C_6  and  N_8
REMARK    4  A    between atoms: C_9  and  C_11
REMARK    5  A    between atoms: C_11  and  C_13
REMARK    6  A    between atoms: C_11  and  N_14
REMARK    7  A    between atoms: N_14  and  C_15
REMARK    8  A    between atoms: C_22  and  C_24
REMARK                            x       y       z     vdW  Elec       q    Type
REMARK                         _______ _______ _______ _____ _____    ______ ____
ROOT
ATOM      1  C   UNL     1       0.280  -2.900   4.854  0.00  0.00    +0.154 C 
ATOM      2  C   UNL     1       1.543  -3.763   4.810  0.00  0.00    +0.038 C 
ENDROOT
BRANCH   1   4
ATOM      3  N   UNL     1       0.052  -2.797   2.393  0.00  0.00    -0.284 N 
ATOM      4  C   UNL     1       0.150  -2.135   3.562  0.00  0.00    +0.237 C 
ATOM      5  O   UNL     1       0.134  -0.922   3.575  0.00  0.00    -0.273 OA
ATOM      6  H   UNL     1      -0.016  -3.765   2.388  0.00  0.00    +0.155 HD
BRANCH   3  12
ATOM      7  C   UNL     1       1.264   1.227  -0.158  0.00  0.00    +0.044 C 
ATOM      8  C   UNL     1       0.628  -0.137  -0.079  0.00  0.00    -0.049 A 
ATOM      9  C   UNL     1       0.039  -0.690  -1.201  0.00  0.00    +0.004 A 
ATOM     10  C   UNL     1      -0.546  -1.941  -1.133  0.00  0.00    +0.005 A 
ATOM     11  C   UNL     1      -0.543  -2.643   0.057  0.00  0.00    -0.029 A 
ATOM     12  C   UNL     1       0.048  -2.090   1.185  0.00  0.00    +0.037 A 
ATOM     13  C   UNL     1       0.639  -0.835   1.112  0.00  0.00    +0.027 A 
ATOM     14  C   UNL     1      -1.181  -4.006   0.131  0.00  0.00    +0.045 C 
ENDBRANCH   3  12
ENDBRANCH   1   4
BRANCH   1  15
ATOM     15  N   UNL     1       0.370  -1.959   5.972  0.00  0.00    -0.333 N 
ATOM     16  H   UNL     1       0.700  -1.059   5.824  0.00  0.00    +0.147 HD
BRANCH  15  17
ATOM     17  C   UNL     1      -0.021  -2.358   7.255  0.00  0.00    +0.030 A 
ATOM     18  C   UNL     1      -0.489  -3.653   7.467  0.00  0.00    +0.026 A 
ATOM     19  C   UNL     1      -0.876  -4.058   8.726  0.00  0.00    +0.050 A 
ATOM     20  C   UNL     1      -0.801  -3.173   9.792  0.00  0.00    +0.155 A 
ATOM     21  C   UNL     1      -0.330  -1.868   9.587  0.00  0.00    +0.111 A 
ATOM     22  C   UNL     1       0.065  -1.467   8.309  0.00  0.00    +0.054 A 
ATOM     23  N   UNL     1      -0.371  -1.247  10.797  0.00  0.00    -0.213 NA
ATOM     24  C   UNL     1      -0.825  -2.083  11.681  0.00  0.00    +0.200 A 
ATOM     25  O   UNL     1      -1.097  -3.265  11.108  0.00  0.00    -0.439 OA
BRANCH  24  26
ATOM     26  C   UNL     1      -1.017  -1.770  13.143  0.00  0.00    +0.075 C 
ATOM     27  C   UNL     1      -1.369  -2.933  14.074  0.00  0.00    +0.013 C 
ATOM     28  C   UNL     1      -2.432  -1.893  13.712  0.00  0.00    +0.013 C 
ENDBRANCH  24  26
ENDBRANCH  15  17
ENDBRANCH   1  15
TORSDOF 5
