REMARK  Name = ZINC52124233
REMARK  10 active torsions:
REMARK  status: ('A' for Active; 'I' for Inactive)
REMARK    1  A    between atoms: C_1  and  C_2
REMARK    2  A    between atoms: C_2  and  N_3
REMARK    3  A    between atoms: N_3  and  C_4
REMARK    4  A    between atoms: N_3  and  C_6
REMARK    5  A    between atoms: C_4  and  C_5
REMARK    6  A    between atoms: C_6  and  C_7
REMARK    7  A    between atoms: C_7  and  C_9
REMARK    8  A    between atoms: C_7  and  N_10
REMARK    9  A    between atoms: C_18  and  C_19
REMARK   10  A    between atoms: C_19  and  C_20
REMARK                            x       y       z     vdW  Elec       q    Type
REMARK                         _______ _______ _______ _____ _____    ______ ____
ROOT
ATOM      1  N   UNL     1      -0.825  -4.157  -0.208  0.00  0.00    -0.326 N 
ATOM      2  C   UNL     1      -0.221  -4.744   0.886  0.00  0.00    +0.072 A 
ATOM      3  C   UNL     1       0.554  -4.266   1.934  0.00  0.00    +0.066 A 
ATOM      4  C   UNL     1       1.019  -5.142   2.895  0.00  0.00    +0.125 A 
ATOM      5  C   UNL     1       0.715  -6.496   2.818  0.00  0.00    +0.040 A 
ATOM      6  C   UNL     1      -0.046  -6.981   1.793  0.00  0.00    +0.033 A 
ATOM      7  C   UNL     1      -0.527  -6.113   0.810  0.00  0.00    +0.089 A 
ATOM      8  N   UNL     1      -1.286  -6.287  -0.303  0.00  0.00    -0.232 NA
ATOM      9  C   UNL     1      -1.464  -5.143  -0.894  0.00  0.00    +0.112 A 
ATOM     10  F   UNL     1       1.773  -4.679   3.916  0.00  0.00    -0.205 F 
ENDROOT
BRANCH   1  11
ATOM     11  C   UNL     1      -0.789  -2.735  -0.561  0.00  0.00    +0.069 C 
ATOM     12  C   UNL     1      -1.398  -1.912   0.576  0.00  0.00    +0.029 C 
BRANCH  11  13
ATOM     13  C   UNL     1       0.661  -2.301  -0.784  0.00  0.00    -0.054 C 
BRANCH  13  14
ATOM     14  N   UNL     1       0.690  -0.903  -1.232  0.00  0.00    +0.381 N 
ATOM     15  H   UNL     1       0.189  -0.327  -0.572  0.00  0.00    -0.082 HD
BRANCH  14  17
ATOM     16  C   UNL     1       2.700  -0.412   0.078  0.00  0.00    -0.017 C 
ATOM     17  C   UNL     1       2.083  -0.446  -1.322  0.00  0.00    -0.082 C 
ENDBRANCH  14  17
BRANCH  14  18
ATOM     18  C   UNL     1       0.055  -0.799  -2.553  0.00  0.00    -0.082 C 
ATOM     19  C   UNL     1      -0.056   0.674  -2.951  0.00  0.00    -0.017 C 
ENDBRANCH  14  18
ENDBRANCH  13  14
ENDBRANCH  11  13
ENDBRANCH   1  11
BRANCH   9  20
ATOM     20  C   UNL     1      -2.260  -4.938  -2.158  0.00  0.00    +0.090 C 
BRANCH  20  21
ATOM     21  C   UNL     1      -1.340  -5.094  -3.371  0.00  0.00    +0.116 C 
ATOM     22 CL   UNL     1      -2.292  -4.850  -4.882  0.00  0.00    -0.125 Cl
ENDBRANCH  20  21
ENDBRANCH   9  20
TORSDOF 7
