REMARK  Name = ZINC01107133
REMARK  7 active torsions:
REMARK  status: ('A' for Active; 'I' for Inactive)
REMARK    1  A    between atoms: C_7  and  C_11
REMARK    2  A    between atoms: C_11  and  C_12
REMARK    3  A    between atoms: C_12  and  N_13
REMARK    4  A    between atoms: N_13  and  S_14
REMARK    5  A    between atoms: S_14  and  C_17
REMARK    6  A    between atoms: C_21  and  S_23
REMARK    7  A    between atoms: S_23  and  C_26
REMARK                            x       y       z     vdW  Elec       q    Type
REMARK                         _______ _______ _______ _____ _____    ______ ____
ROOT
ATOM      1  S   UNL     1      -3.828  -2.110  -2.756  0.00  0.00    +0.058 S 
ATOM      2  O   UNL     1      -4.841  -3.058  -2.451  0.00  0.00    -0.153 OA
ATOM      3  O   UNL     1      -4.125  -0.776  -3.147  0.00  0.00    -0.153 OA
ENDROOT
BRANCH   1   4
ATOM      4  C   UNL     1      -2.857  -2.808  -4.050  0.00  0.00    +0.107 A 
ATOM      5  C   UNL     1      -2.136  -1.985  -4.895  0.00  0.00    +0.028 A 
ATOM      6  C   UNL     1      -1.371  -2.533  -5.907  0.00  0.00    +0.004 A 
ATOM      7  C   UNL     1      -1.333  -3.905  -6.079  0.00  0.00    +0.027 A 
ATOM      8  C   UNL     1      -2.057  -4.727  -5.237  0.00  0.00    +0.095 A 
ATOM      9  C   UNL     1      -2.820  -4.179  -4.223  0.00  0.00    +0.056 A 
BRANCH   8  10
ATOM     10  S   UNL     1      -2.009  -6.475  -5.457  0.00  0.00    +0.025 S 
ATOM     11  O   UNL     1      -0.793  -6.766  -6.133  0.00  0.00    -0.164 OA
ATOM     12  O   UNL     1      -2.340  -7.051  -4.201  0.00  0.00    -0.164 OA
BRANCH  10  13
ATOM     13  C   UNL     1      -3.314  -6.897  -6.564  0.00  0.00    +0.094 A 
ATOM     14  C   UNL     1      -4.567  -7.205  -6.069  0.00  0.00    +0.029 A 
ATOM     15  C   UNL     1      -5.592  -7.531  -6.937  0.00  0.00    +0.022 A 
ATOM     16  C   UNL     1      -5.361  -7.559  -8.301  0.00  0.00    +0.041 A 
ATOM     17  C   UNL     1      -4.105  -7.256  -8.795  0.00  0.00    +0.022 A 
ATOM     18  C   UNL     1      -3.082  -6.925  -7.927  0.00  0.00    +0.029 A 
ATOM     19 CL   UNL     1      -6.646  -7.974  -9.391  0.00  0.00    -0.084 Cl
ENDBRANCH  10  13
ENDBRANCH   8  10
ENDBRANCH   1   4
BRANCH   1  20
ATOM     20  N   UNL     1      -2.859  -2.006  -1.417  0.00  0.00    -0.190 NA
ATOM     21  H   UNL     1      -3.063  -2.532  -0.629  0.00  0.00    +0.148 HD
BRANCH  20  22
ATOM     22  C   UNL     1      -1.693  -1.118  -1.424  0.00  0.00    +0.110 C 
BRANCH  22  23
ATOM     23  C   UNL     1      -1.197  -0.917   0.009  0.00  0.00    +0.054 C 
BRANCH  23  30
ATOM     24  C   UNL     1      -0.716   3.746   0.030  0.00  0.00    +0.001 A 
ATOM     25  C   UNL     1       0.611   4.153   0.019  0.00  0.00    +0.002 A 
ATOM     26  C   UNL     1       1.630   3.226   0.004  0.00  0.00    +0.026 A 
ATOM     27  C   UNL     1       1.329   1.868  -0.001  0.00  0.00    +0.047 A 
ATOM     28  C   UNL     1      -0.018   1.461   0.010  0.00  0.00    +0.003 A 
ATOM     29  C   UNL     1      -1.035   2.417   0.030  0.00  0.00    +0.010 A 
ATOM     30  C   UNL     1       0.002  -0.004   0.002  0.00  0.00    -0.021 A 
ATOM     31  C   UNL     1       1.291  -0.379  -0.012  0.00  0.00    +0.087 A 
ATOM     32  N   UNL     1       2.098   0.726  -0.014  0.00  0.00    -0.360 N 
ATOM     33  H   UNL     1       3.068   0.708  -0.024  0.00  0.00    +0.165 HD
ENDBRANCH  23  30
ENDBRANCH  22  23
ENDBRANCH  20  22
ENDBRANCH   1  20
TORSDOF 7
