REMARK  Name = ZINC06537097
REMARK  4 active torsions:
REMARK  status: ('A' for Active; 'I' for Inactive)
REMARK    1  A    between atoms: C_4  and  N_9
REMARK    2  A    between atoms: C_5  and  C_6
REMARK    3  A    between atoms: C_10  and  C_12
REMARK    4  A    between atoms: C_21  and  C_23
REMARK                            x       y       z     vdW  Elec       q    Type
REMARK                         _______ _______ _______ _____ _____    ______ ____
ROOT
ATOM      1  N   UNL     1      -0.096   1.009   0.138  0.00  0.00    -0.279 N 
ATOM      2  C   UNL     1      -1.280   1.651   0.079  0.00  0.00    +0.222 C 
ATOM      3  O   UNL     1      -1.313   2.863   0.077  0.00  0.00    -0.275 OA
ATOM      4  H   UNL     1      -0.070   0.039   0.140  0.00  0.00    +0.155 HD
ENDROOT
BRANCH   2   5
ATOM      5  C   UNL     1      -2.562   0.862   0.017  0.00  0.00    +0.092 C 
ATOM      6  C   UNL     1      -3.784   1.821  -0.129  0.00  0.00    +0.002 C 
ATOM      7  C   UNL     1      -5.028   0.899   0.058  0.00  0.00    +0.004 C 
ATOM      8  C   UNL     1      -5.062   0.026  -1.218  0.00  0.00    +0.004 C 
ATOM      9  C   UNL     1      -3.835   0.502  -2.054  0.00  0.00    +0.004 C 
ATOM     10  C   UNL     1      -3.806   2.027  -1.684  0.00  0.00    +0.008 C 
ATOM     11  C   UNL     1      -2.597  -0.011  -1.258  0.00  0.00    +0.117 C 
BRANCH  11  12
ATOM     12  C   UNL     1      -2.770  -1.464  -0.896  0.00  0.00    +0.360 C 
ATOM     13  O   UNL     1      -3.244  -1.767   0.173  0.00  0.00    -0.246 OA
ATOM     14  O   UNL     1      -2.398  -2.420  -1.762  0.00  0.00    -0.246 OA
ENDBRANCH  11  12
ENDBRANCH   2   5
BRANCH   1  18
ATOM     15  C   UNL     1       3.439   2.247   0.293  0.00  0.00    +0.022 A 
ATOM     16  C   UNL     1       3.067   3.539   0.277  0.00  0.00    +0.048 A 
ATOM     17  S   UNL     1       1.290   3.453   0.198  0.00  0.00    -0.081 S 
ATOM     18  C   UNL     1       1.084   1.734   0.190  0.00  0.00    +0.084 A 
ATOM     19  C   UNL     1       2.388   1.258   0.254  0.00  0.00    +0.065 A 
BRANCH  19  20
ATOM     20  C   UNL     1       2.682  -0.178   0.276  0.00  0.00    +0.244 C 
ATOM     21  O   UNL     1       1.773  -0.986   0.237  0.00  0.00    -0.270 OA
ATOM     22  N   UNL     1       3.960  -0.604   0.338  0.00  0.00    -0.325 N 
ATOM     23  H   UNL     1       4.684   0.040   0.368  0.00  0.00    +0.145 HD
ATOM     24  H   UNL     1       4.154  -1.554   0.352  0.00  0.00    +0.145 HD
ENDBRANCH  19  20
ENDBRANCH   1  18
TORSDOF 4
