REMARK  Name = ZINC13024258
REMARK  13 active torsions:
REMARK  status: ('A' for Active; 'I' for Inactive)
REMARK    1  A    between atoms: C_1  and  C_2
REMARK    2  A    between atoms: C_2  and  C_3
REMARK    3  A    between atoms: C_3  and  C_4
REMARK    4  A    between atoms: C_3  and  C_5
REMARK    5  A    between atoms: C_3  and  N_6
REMARK    6  A    between atoms: C_7  and  C_9
REMARK    7  A    between atoms: C_9  and  C_11
REMARK    8  A    between atoms: C_9  and  N_18
REMARK    9  A    between atoms: N_18  and  C_19
REMARK   10  A    between atoms: C_22  and  C_25
REMARK   11  A    between atoms: C_25  and  C_27
REMARK   12  A    between atoms: C_28  and  C_30
REMARK   13  A    between atoms: C_30  and  N_31
REMARK                            x       y       z     vdW  Elec       q    Type
REMARK                         _______ _______ _______ _____ _____    ______ ____
ROOT
ATOM      1  N   UNL     1      -5.844   3.209  -1.788  0.00  0.00    -0.254 N 
ATOM      2  C   UNL     1      -4.616   3.686  -2.074  0.00  0.00    +0.242 C 
ATOM      3  O   UNL     1      -4.266   3.805  -3.229  0.00  0.00    -0.273 OA
ENDROOT
BRANCH   1   4
ATOM      4  C   UNL     1      -6.661   2.731  -2.811  0.00  0.00    +0.038 A 
ATOM      5  C   UNL     1      -7.986   2.398  -2.542  0.00  0.00    +0.024 A 
ATOM      6  C   UNL     1      -8.794   1.933  -3.546  0.00  0.00    +0.013 A 
ATOM      7  C   UNL     1      -8.283   1.782  -4.841  0.00  0.00    +0.017 A 
ATOM      8  C   UNL     1      -6.948   2.113  -5.106  0.00  0.00    +0.013 A 
ATOM      9  C   UNL     1      -6.148   2.583  -4.097  0.00  0.00    +0.024 A 
BRANCH   7  10
ATOM     10  C   UNL     1      -9.145   1.278  -5.919  0.00  0.00    +0.160 C 
ATOM     11  O   UNL     1      -8.700   1.149  -7.040  0.00  0.00    -0.292 OA
ATOM     12  C   UNL     1     -10.581   0.923  -5.632  0.00  0.00    +0.091 C 
ENDBRANCH   7  10
ENDBRANCH   1   4
BRANCH   1  13
ATOM     13  C   UNL     1      -6.319   3.192  -0.403  0.00  0.00    +0.200 C 
BRANCH  13  14
ATOM     14  C   UNL     1      -7.463   4.162  -0.253  0.00  0.00    +0.017 A 
ATOM     15  C   UNL     1      -8.119   4.636  -1.373  0.00  0.00    +0.009 A 
ATOM     16  C   UNL     1      -9.169   5.525  -1.236  0.00  0.00    +0.001 A 
ATOM     17  C   UNL     1      -9.564   5.940   0.022  0.00  0.00    +0.003 A 
ATOM     18  C   UNL     1      -8.910   5.468   1.144  0.00  0.00    +0.039 A 
ATOM     19  C   UNL     1      -7.861   4.573   1.008  0.00  0.00    +0.129 A 
ATOM     20  F   UNL     1      -7.225   4.106   2.104  0.00  0.00    -0.205 F 
ENDBRANCH  13  14
BRANCH  13  22
ATOM     21  N   UNL     1      -7.133   1.513   1.221  0.00  0.00    -0.308 N 
ATOM     22  C   UNL     1      -6.787   1.804  -0.049  0.00  0.00    +0.239 C 
ATOM     23  O   UNL     1      -6.853   0.949  -0.906  0.00  0.00    -0.273 OA
ATOM     24  H   UNL     1      -7.080   2.197   1.907  0.00  0.00    +0.149 HD
BRANCH  21  25
ATOM     25  C   UNL     1      -7.587   0.164   1.565  0.00  0.00    +0.029 C 
ATOM     26  C   UNL     1      -8.840  -0.174   0.755  0.00  0.00    +0.031 C 
ATOM     27  C   UNL     1      -6.483  -0.844   1.243  0.00  0.00    +0.031 C 
BRANCH  25  29
ATOM     28  C   UNL     1      -8.389  -1.308   3.418  0.00  0.00    +0.006 C 
ATOM     29  C   UNL     1      -7.914   0.102   3.059  0.00  0.00    +0.022 C 
ENDBRANCH  25  29
ENDBRANCH  21  25
ENDBRANCH  13  22
ENDBRANCH   1  13
BRANCH   2  30
ATOM     30  C   UNL     1      -3.679   4.071  -0.959  0.00  0.00    +0.242 C 
BRANCH  30  31
ATOM     31  N   UNL     1      -2.378   4.443  -1.520  0.00  0.00    -0.235 N 
ATOM     32  C   UNL     1      -1.314   3.605  -1.756  0.00  0.00    +0.090 A 
ATOM     33  C   UNL     1      -1.097   2.243  -1.576  0.00  0.00    +0.029 A 
ATOM     34  C   UNL     1       0.108   1.696  -1.915  0.00  0.00    +0.002 A 
ATOM     35  C   UNL     1       1.118   2.486  -2.450  0.00  0.00    +0.002 A 
ATOM     36  C   UNL     1       0.929   3.824  -2.641  0.00  0.00    +0.032 A 
ATOM     37  C   UNL     1      -0.296   4.411  -2.296  0.00  0.00    +0.113 A 
ATOM     38  N   UNL     1      -0.767   5.672  -2.366  0.00  0.00    -0.129 NA
ATOM     39  N   UNL     1      -1.973   5.724  -1.923  0.00  0.00    -0.064 NA
ENDBRANCH  30  31
ENDBRANCH   2  30
TORSDOF 9
