REMARK  Name = ZINC36094703
REMARK  10 active torsions:
REMARK  status: ('A' for Active; 'I' for Inactive)
REMARK    1  A    between atoms: C_1  and  C_2
REMARK    2  A    between atoms: C_2  and  C_3
REMARK    3  A    between atoms: C_3  and  C_5
REMARK    4  A    between atoms: C_3  and  N_6
REMARK    5  A    between atoms: N_6  and  C_7
REMARK    6  A    between atoms: C_7  and  C_8
REMARK    7  A    between atoms: C_18  and  C_20
REMARK    8  A    between atoms: C_20  and  O_21
REMARK    9  A    between atoms: O_21  and  C_22
REMARK   10  A    between atoms: C_26  and  C_28
REMARK                            x       y       z     vdW  Elec       q    Type
REMARK                         _______ _______ _______ _____ _____    ______ ____
ROOT
ATOM      1  C   UNL     1      -4.162  -0.181   2.534  0.00  0.00    +0.199 C 
ATOM      2  O   UNL     1      -3.524   0.373   3.404  0.00  0.00    -0.278 OA
ATOM      3  N   UNL     1      -5.468  -0.455   2.727  0.00  0.00    -0.292 N 
ATOM      4  C   UNL     1      -6.250  -1.131   1.682  0.00  0.00    +0.113 C 
ATOM      5  C   UNL     1      -6.689  -2.502   2.219  0.00  0.00    +0.061 C 
ATOM      6  C   UNL     1      -7.156  -2.337   3.628  0.00  0.00    -0.004 A 
ATOM      7  C   UNL     1      -6.934  -1.287   4.465  0.00  0.00    -0.014 A 
ATOM      8  C   UNL     1      -7.476  -1.382   5.746  0.00  0.00    +0.013 A 
ATOM      9  C   UNL     1      -8.187  -2.477   6.100  0.00  0.00    +0.046 A 
ATOM     10  S   UNL     1      -8.125  -3.455   4.606  0.00  0.00    -0.101 S 
ATOM     11  C   UNL     1      -6.128  -0.086   3.987  0.00  0.00    +0.144 C 
ENDROOT
BRANCH   1  12
ATOM     12  C   UNL     1      -3.495  -0.564   1.238  0.00  0.00    +0.015 C 
BRANCH  12  13
ATOM     13  N   UNL     1      -2.083  -0.161   1.276  0.00  0.00    +0.386 N 
ATOM     14  H   UNL     1      -1.621  -0.627   2.043  0.00  0.00    -0.085 HD
ATOM     15  H   UNL     1      -2.022   0.838   1.404  0.00  0.00    -0.085 HD
BRANCH  13  16
ATOM     16  C   UNL     1      -1.433  -0.534   0.013  0.00  0.00    -0.075 C 
ATOM     17  C   UNL     1      -1.416  -2.058  -0.121  0.00  0.00    -0.014 C 
BRANCH  16  19
ATOM     18  C   UNL     1      -0.019   1.526   0.010  0.00  0.00    +0.002 C 
ATOM     19  C   UNL     1       0.002  -0.004   0.002  0.00  0.00    -0.019 C 
ENDBRANCH  16  19
ENDBRANCH  13  16
ENDBRANCH  12  13
ENDBRANCH   1  12
BRANCH  11  20
ATOM     20  C   UNL     1      -7.065   1.101   3.753  0.00  0.00    +0.256 C 
BRANCH  20  21
ATOM     21  O   UNL     1      -8.123   0.707   2.877  0.00  0.00    -0.490 OA
BRANCH  21  22
ATOM     22  C   UNL     1      -9.049   1.652   2.564  0.00  0.00    +0.121 A 
ATOM     23  C   UNL     1      -8.938   2.933   3.087  0.00  0.00    +0.047 A 
ATOM     24  C   UNL     1      -9.880   3.891   2.768  0.00  0.00    +0.024 A 
ATOM     25  C   UNL     1     -10.934   3.575   1.930  0.00  0.00    +0.044 A 
ATOM     26  C   UNL     1     -11.047   2.298   1.409  0.00  0.00    -0.029 A 
ATOM     27  C   UNL     1     -10.103   1.338   1.719  0.00  0.00    +0.050 A 
ATOM     28  C   UNL     1     -12.196   1.956   0.496  0.00  0.00    +0.045 C 
ATOM     29 CL   UNL     1     -12.118   4.781   1.532  0.00  0.00    -0.083 Cl
ENDBRANCH  21  22
ENDBRANCH  20  21
ENDBRANCH  11  20
TORSDOF 7
