REMARK  Name = ZINC67383013
REMARK  9 active torsions:
REMARK  status: ('A' for Active; 'I' for Inactive)
REMARK    1  A    between atoms: C_1  and  C_2
REMARK    2  A    between atoms: C_2  and  C_4
REMARK    3  A    between atoms: C_2  and  N_10
REMARK    4  A    between atoms: C_4  and  C_5
REMARK    5  A    between atoms: N_10  and  C_11
REMARK    6  A    between atoms: C_14  and  C_20
REMARK    7  A    between atoms: C_16  and  N_17
REMARK    8  A    between atoms: C_20  and  C_22
REMARK    9  A    between atoms: N_26  and  C_27
REMARK                            x       y       z     vdW  Elec       q    Type
REMARK                         _______ _______ _______ _____ _____    ______ ____
ROOT
ATOM      1  C   UNL     1       2.078  -0.922   1.175  0.00  0.00    +0.058 A 
ATOM      2  C   UNL     1       2.715  -0.699  -0.043  0.00  0.00    +0.026 A 
ATOM      3  C   UNL     1       4.069  -0.526  -0.089  0.00  0.00    +0.014 A 
ATOM      4  C   UNL     1       4.821  -0.574   1.089  0.00  0.00    +0.028 A 
ATOM      5  C   UNL     1       4.183  -0.797   2.314  0.00  0.00    +0.046 A 
ATOM      6  C   UNL     1       2.818  -0.964   2.354  0.00  0.00    +0.148 A 
ENDROOT
BRANCH   6   7
ATOM      7  N   UNL     1       2.137  -1.196   3.648  0.00  0.00    +0.058 N 
ATOM      8  O   UNL     1       1.056  -0.698   3.859  0.00  0.00    -0.126 OA
ATOM      9  O   UNL     1       2.662  -1.883   4.493  0.00  0.00    -0.126 OA
ENDBRANCH   6   7
BRANCH   1  10
ATOM     10  N   UNL     1       0.700  -1.097   1.214  0.00  0.00    -0.339 N 
ATOM     11  H   UNL     1       0.266  -1.347   2.045  0.00  0.00    +0.146 HD
BRANCH  10  13
ATOM     12  C   UNL     1      -0.439   0.580  -0.154  0.00  0.00    +0.028 C 
ATOM     13  C   UNL     1      -0.099  -0.904   0.001  0.00  0.00    +0.072 C 
BRANCH  13  14
ATOM     14  C   UNL     1      -1.391  -1.715   0.107  0.00  0.00    +0.064 C 
BRANCH  14  15
ATOM     15  C   UNL     1      -1.061  -3.185   0.136  0.00  0.00    -0.008 A 
ATOM     16  C   UNL     1      -0.816  -3.984   1.204  0.00  0.00    +0.011 A 
ATOM     17  C   UNL     1      -0.531  -5.319   0.990  0.00  0.00    +0.008 A 
ATOM     18  C   UNL     1      -0.505  -5.791  -0.280  0.00  0.00    +0.045 A 
ATOM     19  S   UNL     1      -0.898  -4.329  -1.225  0.00  0.00    -0.102 S 
ENDBRANCH  14  15
ENDBRANCH  13  14
ENDBRANCH  10  13
ENDBRANCH   1  10
BRANCH   4  20
ATOM     20  C   UNL     1       6.283  -0.388   1.041  0.00  0.00    +0.228 C 
ATOM     21  O   UNL     1       6.822  -0.072  -0.004  0.00  0.00    -0.283 OA
BRANCH  20  22
ATOM     22  C   UNL     1       7.091  -0.587   2.256  0.00  0.00    +0.181 A 
ATOM     23  N   UNL     1       6.623  -0.829   3.463  0.00  0.00    -0.233 NA
ATOM     24  C   UNL     1       7.643  -0.952   4.308  0.00  0.00    +0.131 A 
ATOM     25  C   UNL     1       8.796  -0.782   3.614  0.00  0.00    +0.107 A 
ATOM     26  N   UNL     1       8.457  -0.558   2.323  0.00  0.00    -0.331 N 
ATOM     27  C   UNL     1       9.378  -0.325   1.208  0.00  0.00    +0.150 C 
ENDBRANCH  20  22
ENDBRANCH   4  20
TORSDOF 7
