REMARK  Name = ZINC39632058
REMARK  13 active torsions:
REMARK  status: ('A' for Active; 'I' for Inactive)
REMARK    1  A    between atoms: C_1  and  C_2
REMARK    2  A    between atoms: C_3  and  C_13
REMARK    3  A    between atoms: C_4  and  C_7
REMARK    4  A    between atoms: C_17  and  C_26
REMARK    5  A    between atoms: N_28  and  C_29
REMARK    6  A    between atoms: C_29  and  C_31
REMARK    7  A    between atoms: C_29  and  C_32
REMARK    8  A    between atoms: C_32  and  C_33
REMARK    9  A    between atoms: C_33  and  C_34
REMARK   10  A    between atoms: C_34  and  C_35
REMARK   11  A    between atoms: C_35  and  C_36
REMARK   12  A    between atoms: C_35  and  C_37
REMARK   13  A    between atoms: C_35  and  O_38
REMARK                            x       y       z     vdW  Elec       q    Type
REMARK                         _______ _______ _______ _____ _____    ______ ____
ROOT
ATOM      1  C   UNL     1      -1.954   0.109  -0.338  0.00  0.00    +0.252 C 
ATOM      2  O   UNL     1      -2.697   0.215  -1.295  0.00  0.00    -0.270 OA
ATOM      3  N   UNL     1      -2.448   0.201   0.912  0.00  0.00    -0.296 N 
ATOM      4  C   UNL     1      -1.695   0.205   2.189  0.00  0.00    +0.121 C 
ATOM      5  C   UNL     1      -2.421   1.247   3.068  0.00  0.00    +0.100 C 
ATOM      6  C   UNL     1      -3.847   1.318   2.495  0.00  0.00    -0.004 C 
ATOM      7  C   UNL     1      -3.867   0.328   1.322  0.00  0.00    +0.115 C 
ATOM      8  C   UNL     1      -4.146   2.728   1.994  0.00  0.00    -0.010 C 
ATOM      9  C   UNL     1      -5.588   2.787   1.482  0.00  0.00    -0.082 C 
ATOM     10  N   UNL     1      -6.509   2.426   2.566  0.00  0.00    +0.379 N 
ATOM     11  C   UNL     1      -6.276   1.038   2.980  0.00  0.00    -0.082 C 
ATOM     12  C   UNL     1      -4.863   0.904   3.555  0.00  0.00    -0.010 C 
ATOM     13  H   UNL     1      -6.357   3.040   3.353  0.00  0.00    -0.086 HD
ATOM     14  H   UNL     1      -7.460   2.526   2.245  0.00  0.00    -0.086 HD
ENDROOT
BRANCH   1  17
ATOM     15  C   UNL     1       0.193   2.314  -0.884  0.00  0.00    +0.090 C 
ATOM     16  C   UNL     1       0.435   0.830  -0.785  0.00  0.00    +0.147 A 
ATOM     17  C   UNL     1      -0.514  -0.121  -0.546  0.00  0.00    +0.106 A 
ATOM     18  C   UNL     1       0.178  -1.418  -0.536  0.00  0.00    +0.126 A 
ATOM     19  N   UNL     1       1.444  -1.176  -0.760  0.00  0.00    -0.077 NA
ATOM     20  O   UNL     1       1.614   0.218  -0.922  0.00  0.00    -0.359 OA
BRANCH  18  21
ATOM     21  C   UNL     1      -0.441  -2.748  -0.314  0.00  0.00    +0.004 A 
ATOM     22  C   UNL     1      -1.512  -2.882   0.567  0.00  0.00    +0.010 A 
ATOM     23  C   UNL     1      -2.085  -4.122   0.769  0.00  0.00    +0.001 A 
ATOM     24  C   UNL     1      -1.597  -5.229   0.100  0.00  0.00    +0.000 A 
ATOM     25  C   UNL     1      -0.533  -5.102  -0.776  0.00  0.00    +0.001 A 
ATOM     26  C   UNL     1       0.043  -3.866  -0.990  0.00  0.00    +0.010 A 
ENDBRANCH  18  21
ENDBRANCH   1  17
BRANCH   5  27
ATOM     27  C   UNL     1      -1.743   2.588   2.960  0.00  0.00    +0.218 C 
ATOM     28  O   UNL     1      -1.125   2.877   1.957  0.00  0.00    -0.275 OA
ATOM     29  N   UNL     1      -1.823   3.468   3.978  0.00  0.00    -0.312 N 
ATOM     30  H   UNL     1      -2.256   3.212   4.808  0.00  0.00    +0.149 HD
BRANCH  29  31
ATOM     31  C   UNL     1      -1.254   4.810   3.833  0.00  0.00    +0.070 C 
ATOM     32  C   UNL     1      -2.293   5.738   3.200  0.00  0.00    +0.028 C 
BRANCH  31  33
ATOM     33  C   UNL     1      -0.861   5.349   5.210  0.00  0.00    +0.022 C 
BRANCH  33  34
ATOM     34  C   UNL     1       0.255   4.483   5.797  0.00  0.00    +0.005 C 
BRANCH  34  35
ATOM     35  C   UNL     1       0.568   4.949   7.220  0.00  0.00    +0.034 C 
BRANCH  35  36
ATOM     36  C   UNL     1       1.764   4.164   7.763  0.00  0.00    +0.061 C 
ATOM     37  C   UNL     1       1.997   4.539   9.228  0.00  0.00    +0.041 C 
ATOM     38  C   UNL     1       1.480   2.664   7.659  0.00  0.00    +0.041 C 
BRANCH  36  39
ATOM     39  O   UNL     1       2.929   4.482   6.999  0.00  0.00    -0.389 OA
ATOM     40  H   UNL     1       3.169   5.419   7.019  0.00  0.00    +0.210 HD
ENDBRANCH  36  39
ENDBRANCH  35  36
ENDBRANCH  34  35
ENDBRANCH  33  34
ENDBRANCH  31  33
ENDBRANCH  29  31
ENDBRANCH   5  27
TORSDOF 9
