REMARK  Name = ZINC64711411
REMARK  8 active torsions:
REMARK  status: ('A' for Active; 'I' for Inactive)
REMARK    1  A    between atoms: C_1  and  C_2
REMARK    2  A    between atoms: C_6  and  S_14
REMARK    3  A    between atoms: N_7  and  C_8
REMARK    4  A    between atoms: S_14  and  C_15
REMARK    5  A    between atoms: C_15  and  C_16
REMARK    6  A    between atoms: N_18  and  C_19
REMARK    7  A    between atoms: C_19  and  C_20
REMARK    8  A    between atoms: C_20  and  C_21
REMARK                            x       y       z     vdW  Elec       q    Type
REMARK                         _______ _______ _______ _____ _____    ______ ____
ROOT
ATOM      1  C   UNL     1      -1.426  -3.655   5.106  0.00  0.00    +0.223 C 
ATOM      2  O   UNL     1      -0.372  -3.656   5.706  0.00  0.00    -0.275 OA
ATOM      3  N   UNL     1      -2.483  -4.330   5.599  0.00  0.00    -0.314 N 
ATOM      4  H   UNL     1      -3.326  -4.330   5.119  0.00  0.00    +0.149 HD
ENDROOT
BRANCH   1   5
ATOM      5  C   UNL     1      -1.554  -2.899   3.808  0.00  0.00    +0.172 C 
BRANCH   5   6
ATOM      6  S   UNL     1       0.027  -2.102   3.415  0.00  0.00    -0.080 S 
BRANCH   6  11
ATOM      7  C   UNL     1      -0.019   1.526   0.010  0.00  0.00    +0.051 C 
ATOM      8  C   UNL     1       0.002  -0.004   0.002  0.00  0.00    +0.174 C 
ATOM      9  N   UNL     1      -1.367  -0.540   0.094  0.00  0.00    -0.247 N 
ATOM     10  N   UNL     1      -1.415  -1.287   1.277  0.00  0.00    -0.163 NA
ATOM     11  C   UNL     1      -0.281  -1.270   1.893  0.00  0.00    +0.176 C 
ATOM     12  N   UNL     1       0.668  -0.518   1.210  0.00  0.00    -0.286 N 
ATOM     13  H   UNL     1      -2.090  -0.403  -0.538  0.00  0.00    +0.170 HD
BRANCH  12  14
ATOM     14  C   UNL     1       2.057  -0.283   1.612  0.00  0.00    +0.077 C 
ATOM     15  C   UNL     1       2.083   0.417   2.972  0.00  0.00    +0.022 C 
ATOM     16  C   UNL     1       3.533   0.664   3.392  0.00  0.00    +0.002 C 
ATOM     17  C   UNL     1       4.269  -0.674   3.493  0.00  0.00    +0.000 C 
ATOM     18  C   UNL     1       4.244  -1.374   2.133  0.00  0.00    +0.002 C 
ATOM     19  C   UNL     1       2.793  -1.620   1.713  0.00  0.00    +0.022 C 
ENDBRANCH  12  14
ENDBRANCH   6  11
ENDBRANCH   5   6
ENDBRANCH   1   5
BRANCH   3  20
ATOM     20  C   UNL     1      -2.360  -5.065   6.860  0.00  0.00    +0.108 C 
BRANCH  20  21
ATOM     21  C   UNL     1      -3.693  -5.738   7.191  0.00  0.00    +0.052 C 
BRANCH  21  22
ATOM     22  C   UNL     1      -3.566  -6.494   8.489  0.00  0.00    -0.040 C 
ATOM     23  C   UNL     1      -3.900  -6.053   9.723  0.00  0.00    -0.001 A 
ATOM     24  C   UNL     1      -4.460  -4.786  10.209  0.00  0.00    +0.010 A 
ATOM     25  C   UNL     1      -4.691  -4.636  11.533  0.00  0.00    +0.001 A 
ATOM     26  C   UNL     1      -4.410  -5.657  12.451  0.00  0.00    +0.002 A 
ATOM     27  C   UNL     1      -3.895  -6.849  12.081  0.00  0.00    +0.026 A 
ATOM     28  C   UNL     1      -3.612  -7.116  10.713  0.00  0.00    +0.043 A 
ATOM     29  N   UNL     1      -3.119  -8.173  10.113  0.00  0.00    -0.380 N 
ATOM     30  C   UNL     1      -3.044  -7.902   8.673  0.00  0.00    +0.144 C 
ATOM     31  H   UNL     1      -2.853  -8.998  10.549  0.00  0.00    +0.160 HD
ENDBRANCH  21  22
ENDBRANCH  20  21
ENDBRANCH   3  20
TORSDOF 7
