REMARK  Name = ZINC12339131
REMARK  3 active torsions:
REMARK  status: ('A' for Active; 'I' for Inactive)
REMARK    1  A    between atoms: C_8  and  C_10
REMARK    2  A    between atoms: N_12  and  N_13
REMARK    3  A    between atoms: C_14  and  C_15
REMARK                            x       y       z     vdW  Elec       q    Type
REMARK                         _______ _______ _______ _____ _____    ______ ____
ROOT
ATOM      1  C   UNL     1       3.122   6.439   0.040  0.00  0.00    +0.271 C 
ATOM      2  O   UNL     1       4.266   6.162   0.349  0.00  0.00    -0.268 OA
ATOM      3  N   UNL     1       2.770   7.725  -0.158  0.00  0.00    -0.202 N 
ATOM      4  H   UNL     1       1.844   7.953  -0.335  0.00  0.00    +0.178 HD
ENDROOT
BRANCH   1  12
ATOM      5  C   UNL     1       0.043   1.055  -0.399  0.00  0.00    +0.001 A 
ATOM      6  C   UNL     1      -1.163   1.706  -0.630  0.00  0.00    +0.001 A 
ATOM      7  C   UNL     1      -1.197   3.086  -0.658  0.00  0.00    +0.016 A 
ATOM      8  C   UNL     1      -0.032   3.797  -0.466  0.00  0.00    +0.021 A 
ATOM      9  C   UNL     1       1.211   3.161  -0.234  0.00  0.00    +0.008 A 
ATOM     10  C   UNL     1       1.198   1.743  -0.208  0.00  0.00    +0.010 A 
ATOM     11  C   UNL     1       2.307   4.026  -0.057  0.00  0.00    +0.068 A 
ATOM     12  C   UNL     1       2.125   5.373  -0.116  0.00  0.00    +0.095 A 
ATOM     13  S   UNL     1       0.374   5.525  -0.428  0.00  0.00    -0.082 S 
ATOM     14 CL   UNL     1       3.890   3.374   0.234  0.00  0.00    -0.082 Cl
ENDBRANCH   1  12
BRANCH   3  15
ATOM     15  N   UNL     1       3.742   8.733  -0.108  0.00  0.00    -0.187 NA
ATOM     16  C   UNL     1       3.389   9.980  -0.181  0.00  0.00    +0.141 C 
BRANCH  16  17
ATOM     17  C   UNL     1       1.960  10.343  -0.166  0.00  0.00    +0.031 A 
ATOM     18  C   UNL     1       1.420  11.113  -1.201  0.00  0.00    +0.051 A 
ATOM     19  C   UNL     1       0.080  11.445  -1.182  0.00  0.00    +0.021 A 
ATOM     20  C   UNL     1      -0.726  11.027  -0.138  0.00  0.00    +0.003 A 
ATOM     21  C   UNL     1      -0.198  10.269   0.892  0.00  0.00    +0.021 A 
ATOM     22  C   UNL     1       1.139   9.924   0.885  0.00  0.00    +0.051 A 
ATOM     23 CL   UNL     1       1.799   8.974   2.179  0.00  0.00    -0.083 Cl
ATOM     24 CL   UNL     1       2.430  11.644  -2.509  0.00  0.00    -0.083 Cl
ENDBRANCH  16  17
ENDBRANCH   3  15
TORSDOF 3
