REMARK  Name = ZINC16636861
REMARK  6 active torsions:
REMARK  status: ('A' for Active; 'I' for Inactive)
REMARK    1  A    between atoms: C_1  and  C_2
REMARK    2  A    between atoms: C_2  and  C_3
REMARK    3  A    between atoms: C_9  and  C_18
REMARK    4  A    between atoms: C_10  and  C_16
REMARK    5  A    between atoms: C_11  and  N_15
REMARK    6  A    between atoms: C_12  and  C_13
REMARK                            x       y       z     vdW  Elec       q    Type
REMARK                         _______ _______ _______ _____ _____    ______ ____
ROOT
ATOM      1  C   UNL     1      -3.370   1.680  -3.649  0.00  0.00    -0.007 C 
ATOM      2  C   UNL     1      -4.044   0.303  -3.662  0.00  0.00    +0.008 C 
ATOM      3  C   UNL     1      -5.000   0.225  -2.474  0.00  0.00    +0.037 C 
ATOM      4  C   UNL     1      -4.298   0.618  -1.200  0.00  0.00    -0.024 A 
ATOM      5  C   UNL     1      -3.116   1.316  -1.193  0.00  0.00    -0.034 A 
ATOM      6  C   UNL     1      -2.514   1.662   0.023  0.00  0.00    +0.006 A 
ATOM      7  C   UNL     1      -3.103   1.297   1.244  0.00  0.00    +0.082 A 
ATOM      8  C   UNL     1      -4.311   0.585   1.238  0.00  0.00    +0.061 A 
ATOM      9  C   UNL     1      -4.901   0.246   0.013  0.00  0.00    +0.077 A 
ATOM     10  C   UNL     1      -2.414   1.735  -2.459  0.00  0.00    +0.039 C 
ENDROOT
BRANCH   6  11
ATOM     11  C   UNL     1      -1.239   2.415   0.021  0.00  0.00    +0.002 A 
ATOM     12  C   UNL     1      -1.250   3.810   0.034  0.00  0.00    +0.011 A 
ATOM     13  C   UNL     1      -0.059   4.507   0.026  0.00  0.00    +0.021 A 
ATOM     14  C   UNL     1       1.146   3.824   0.011  0.00  0.00    +0.042 A 
ATOM     15  C   UNL     1       1.164   2.440   0.004  0.00  0.00    +0.040 A 
ATOM     16  C   UNL     1      -0.021   1.732   0.012  0.00  0.00    +0.050 A 
ATOM     17 CL   UNL     1       0.002  -0.004   0.002  0.00  0.00    -0.083 Cl
ATOM     18 CL   UNL     1       2.640   4.708   0.002  0.00  0.00    -0.083 Cl
ENDBRANCH   6  11
BRANCH   8  19
ATOM     19  N   UNL     1      -4.912   0.217   2.429  0.00  0.00    -0.356 N 
ATOM     20  H   UNL     1      -5.746  -0.278   2.419  0.00  0.00    +0.142 HD
ATOM     21  H   UNL     1      -4.500   0.455   3.274  0.00  0.00    +0.142 HD
ENDBRANCH   8  19
BRANCH   1  23
ATOM     22  C   UNL     1      -3.565   1.953  -6.125  0.00  0.00    +0.004 C 
ATOM     23  C   UNL     1      -2.589   1.884  -4.948  0.00  0.00    +0.000 C 
ENDBRANCH   1  23
BRANCH   9  24
ATOM     24  C   UNL     1      -6.131  -0.488  -0.002  0.00  0.00    +0.101 C 
ATOM     25  N   UNL     1      -7.106  -1.070  -0.014  0.00  0.00    -0.191 NA
ENDBRANCH   9  24
BRANCH   7  26
ATOM     26  C   UNL     1      -2.480   1.652   2.483  0.00  0.00    +0.102 C 
ATOM     27  N   UNL     1      -1.986   1.935   3.466  0.00  0.00    -0.191 NA
ENDBRANCH   7  26
TORSDOF 5
