REMARK  Name = ZINC02555820
REMARK  5 active torsions:
REMARK  status: ('A' for Active; 'I' for Inactive)
REMARK    1  A    between atoms: C_1  and  C_2
REMARK    2  A    between atoms: C_3  and  C_13
REMARK    3  A    between atoms: C_5  and  C_7
REMARK    4  A    between atoms: N_15  and  N_16
REMARK    5  A    between atoms: N_19  and  C_20
REMARK                            x       y       z     vdW  Elec       q    Type
REMARK                         _______ _______ _______ _____ _____    ______ ____
ROOT
ATOM      1  C   UNL     1       1.488   3.404   0.006  0.00  0.00    +0.269 C 
ATOM      2  O   UNL     1       0.571   4.204   0.018  0.00  0.00    -0.268 OA
ATOM      3  N   UNL     1       2.763   3.839  -0.004  0.00  0.00    -0.229 N 
ATOM      4  H   UNL     1       3.493   3.201  -0.014  0.00  0.00    +0.173 HD
ENDROOT
BRANCH   1   7
ATOM      5  C   UNL     1      -1.316   2.062   0.020  0.00  0.00    +0.067 C 
ATOM      6  C   UNL     1      -0.016   1.301   0.009  0.00  0.00    +0.058 A 
ATOM      7  C   UNL     1       1.204   1.965   0.001  0.00  0.00    +0.098 A 
ATOM      8  S   UNL     1       2.333   0.580  -0.017  0.00  0.00    -0.062 S 
ATOM      9  C   UNL     1       1.141  -0.683  -0.013  0.00  0.00    +0.109 A 
ATOM     10  N   UNL     1       0.002  -0.004   0.002  0.00  0.00    -0.243 NA
BRANCH   9  11
ATOM     11  C   UNL     1       1.344  -2.147  -0.022  0.00  0.00    +0.007 A 
ATOM     12  C   UNL     1       0.245  -3.008  -0.010  0.00  0.00    +0.010 A 
ATOM     13  C   UNL     1       0.442  -4.373  -0.024  0.00  0.00    +0.001 A 
ATOM     14  C   UNL     1       1.726  -4.890  -0.038  0.00  0.00    +0.000 A 
ATOM     15  C   UNL     1       2.819  -4.043  -0.045  0.00  0.00    +0.001 A 
ATOM     16  C   UNL     1       2.636  -2.675  -0.037  0.00  0.00    +0.010 A 
ENDBRANCH   9  11
ENDBRANCH   1   7
BRANCH   3  17
ATOM     17  N   UNL     1       3.034   5.214   0.000  0.00  0.00    -0.218 N 
ATOM     18  C   UNL     1       4.309   5.650  -0.009  0.00  0.00    +0.321 C 
ATOM     19  O   UNL     1       4.544   6.843  -0.005  0.00  0.00    -0.251 OA
ATOM     20  N   UNL     1       5.324   4.763  -0.023  0.00  0.00    -0.257 N 
ATOM     21  H   UNL     1       2.303   5.852   0.011  0.00  0.00    +0.174 HD
ATOM     22  H   UNL     1       5.136   3.811  -0.026  0.00  0.00    +0.157 HD
BRANCH  20  23
ATOM     23  C   UNL     1       6.645   5.215  -0.034  0.00  0.00    +0.132 C 
ATOM     24  C   UNL     1       7.641   4.345  -0.047  0.00  0.00    +0.139 C 
ATOM     25 CL   UNL     1       7.305   2.642  -0.053  0.00  0.00    -0.068 Cl
ATOM     26 CL   UNL     1       9.283   4.906  -0.060  0.00  0.00    -0.068 Cl
ATOM     27 CL   UNL     1       6.981   6.918  -0.028  0.00  0.00    -0.064 Cl
ENDBRANCH  20  23
ENDBRANCH   3  17
TORSDOF 4
