REMARK  Name = ZINC13988481
REMARK  9 active torsions:
REMARK  status: ('A' for Active; 'I' for Inactive)
REMARK    1  A    between atoms: C_4  and  C_7
REMARK    2  A    between atoms: C_7  and  O_8
REMARK    3  A    between atoms: O_8  and  C_9
REMARK    4  A    between atoms: C_9  and  C_11
REMARK    5  A    between atoms: C_11  and  C_12
REMARK    6  A    between atoms: N_19  and  C_20
REMARK    7  A    between atoms: C_20  and  N_22
REMARK    8  A    between atoms: C_23  and  C_25
REMARK    9  A    between atoms: C_26  and  C_27
REMARK                            x       y       z     vdW  Elec       q    Type
REMARK                         _______ _______ _______ _____ _____    ______ ____
ROOT
ATOM      1  C   UNL     1       0.101   0.032   0.001  0.00  0.00    +0.171 C 
ATOM      2  C   UNL     1       0.173   1.530  -0.121  0.00  0.00    +0.234 C 
ATOM      3  O   UNL     1      -0.863   2.160  -0.123  0.00  0.00    -0.274 OA
ATOM      4  N   UNL     1       1.323   2.196  -0.233  0.00  0.00    -0.312 N 
ATOM      5  C   UNL     1       2.634   1.570  -0.342  0.00  0.00    +0.123 C 
ATOM      6  C   UNL     1       2.603   0.145   0.216  0.00  0.00    +0.126 C 
ATOM      7  N   UNL     1       1.417  -0.536  -0.329  0.00  0.00    -0.299 N 
ATOM      8  H   UNL     1       1.284   3.165  -0.242  0.00  0.00    +0.149 HD
ENDROOT
BRANCH   7   9
ATOM      9  C   UNL     1       1.532  -1.636  -1.100  0.00  0.00    +0.140 C 
ATOM     10  S   UNL     1       3.068  -2.353  -1.343  0.00  0.00    -0.018 S 
BRANCH   9  11
ATOM     11  N   UNL     1       0.439  -2.172  -1.678  0.00  0.00    -0.264 N 
ATOM     12  C   UNL     1       0.567  -3.207  -2.531  0.00  0.00    +0.242 C 
ATOM     13  O   UNL     1       1.670  -3.658  -2.780  0.00  0.00    -0.270 OA
ATOM     14  H   UNL     1      -0.440  -1.812  -1.480  0.00  0.00    +0.157 HD
BRANCH  12  15
ATOM     15  C   UNL     1      -0.618  -3.788  -3.158  0.00  0.00    +0.068 C 
ATOM     16  C   UNL     1      -0.490  -4.827  -4.014  0.00  0.00    +0.013 C 
BRANCH  16  17
ATOM     17  C   UNL     1      -1.679  -5.410  -4.643  0.00  0.00    -0.017 A 
ATOM     18  C   UNL     1      -2.949  -4.910  -4.365  0.00  0.00    +0.008 A 
ATOM     19  C   UNL     1      -4.071  -5.460  -4.967  0.00  0.00    +0.001 A 
ATOM     20  C   UNL     1      -3.981  -6.507  -5.833  0.00  0.00    +0.008 A 
ATOM     21  C   UNL     1      -2.734  -7.067  -6.156  0.00  0.00    -0.017 A 
ATOM     22  C   UNL     1      -1.559  -6.534  -5.572  0.00  0.00    -0.011 A 
ATOM     23  C   UNL     1      -0.314  -7.088  -5.891  0.00  0.00    +0.009 A 
ATOM     24  C   UNL     1      -0.246  -8.136  -6.762  0.00  0.00    +0.001 A 
ATOM     25  C   UNL     1      -1.400  -8.663  -7.338  0.00  0.00    +0.001 A 
ATOM     26  C   UNL     1      -2.626  -8.147  -7.050  0.00  0.00    +0.008 A 
ENDBRANCH  16  17
ENDBRANCH  12  15
ENDBRANCH   9  11
ENDBRANCH   7   9
BRANCH   1  27
ATOM     27  C   UNL     1      -0.276  -0.348   1.434  0.00  0.00    +0.152 C 
BRANCH  27  28
ATOM     28  C   UNL     1      -0.501  -1.836   1.517  0.00  0.00    +0.310 C 
ATOM     29  O   UNL     1      -0.287  -2.534   0.553  0.00  0.00    -0.251 OA
BRANCH  28  30
ATOM     30  O   UNL     1      -0.938  -2.386   2.660  0.00  0.00    -0.460 OA
BRANCH  30  31
ATOM     31  C   UNL     1      -1.132  -3.825   2.667  0.00  0.00    +0.267 C 
BRANCH  31  35
ATOM     32  C   UNL     1      -2.520  -5.055   6.515  0.00  0.00    +0.000 A 
ATOM     33  C   UNL     1      -3.428  -4.706   5.532  0.00  0.00    +0.000 A 
ATOM     34  C   UNL     1      -2.978  -4.307   4.287  0.00  0.00    +0.007 A 
ATOM     35  C   UNL     1      -1.622  -4.259   4.025  0.00  0.00    -0.010 A 
ATOM     36  C   UNL     1      -0.715  -4.614   5.006  0.00  0.00    +0.007 A 
ATOM     37  C   UNL     1      -1.164  -5.007   6.253  0.00  0.00    +0.000 A 
ENDBRANCH  31  35
ENDBRANCH  30  31
ENDBRANCH  28  30
ENDBRANCH  27  28
ENDBRANCH   1  27
TORSDOF 9
