REMARK  Name = ZINC66249583
REMARK  3 active torsions:
REMARK  status: ('A' for Active; 'I' for Inactive)
REMARK    1  A    between atoms: C_1  and  C_2
REMARK    2  A    between atoms: N_11  and  S_12
REMARK    3  A    between atoms: S_12  and  C_15
REMARK                            x       y       z     vdW  Elec       q    Type
REMARK                         _______ _______ _______ _____ _____    ______ ____
ROOT
ATOM      1  S   UNL     1      -0.545  -7.000   1.782  0.00  0.00    +0.101 S 
ATOM      2  O   UNL     1      -1.846  -6.676   2.253  0.00  0.00    -0.146 OA
ATOM      3  O   UNL     1      -0.250  -7.141   0.399  0.00  0.00    -0.146 OA
ENDROOT
BRANCH   1  13
ATOM      4  C   UNL     1      -0.019   1.526   0.010  0.00  0.00    +0.008 C 
ATOM      5  C   UNL     1       0.002  -0.004   0.002  0.00  0.00    -0.009 C 
ATOM      6  C   UNL     1      -1.433  -0.538   0.023  0.00  0.00    +0.010 C 
ATOM      7  C   UNL     1      -1.429  -2.047  -0.222  0.00  0.00    +0.054 C 
ATOM      8  C   UNL     1      -0.472  -2.708   0.768  0.00  0.00    +0.028 A 
ATOM      9  C   UNL     1       0.463  -1.982   1.390  0.00  0.00    +0.013 A 
ATOM     10  S   UNL     1       1.312  -3.155   2.415  0.00  0.00    -0.053 S 
ATOM     11  C   UNL     1       0.359  -4.596   1.957  0.00  0.00    +0.192 A 
ATOM     12  N   UNL     1      -0.529  -4.055   1.058  0.00  0.00    -0.336 N 
ATOM     13  N   UNL     1       0.475  -5.835   2.367  0.00  0.00    -0.103 NA
ATOM     14  C   UNL     1       0.736  -0.517   1.250  0.00  0.00    +0.047 C 
ATOM     15  H   UNL     1      -1.192  -4.618   0.629  0.00  0.00    +0.168 HD
ENDBRANCH   1  13
BRANCH   1  16
ATOM     16  C   UNL     1      -0.095  -8.521   2.550  0.00  0.00    +0.116 A 
ATOM     17  C   UNL     1       0.853  -9.336   1.961  0.00  0.00    +0.033 A 
ATOM     18  C   UNL     1       1.212 -10.531   2.559  0.00  0.00    +0.051 A 
ATOM     19  C   UNL     1       0.617 -10.908   3.751  0.00  0.00    +0.162 A 
ATOM     20  C   UNL     1      -0.334 -10.089   4.342  0.00  0.00    +0.164 A 
ATOM     21  C   UNL     1      -0.688  -8.892   3.744  0.00  0.00    +0.078 A 
ATOM     22  O   UNL     1      -0.914 -10.469   5.518  0.00  0.00    -0.488 OA
ATOM     23  C   UNL     1      -1.779 -11.604   5.450  0.00  0.00    +0.232 C 
ATOM     24  C   UNL     1      -0.984 -12.896   5.553  0.00  0.00    +0.082 C 
ATOM     25  C   UNL     1      -0.046 -13.095   4.373  0.00  0.00    +0.232 C 
ATOM     26  O   UNL     1       0.963 -12.083   4.352  0.00  0.00    -0.488 OA
ENDBRANCH   1  16
TORSDOF 2
