REMARK  Name = ZINC15572746
REMARK  7 active torsions:
REMARK  status: ('A' for Active; 'I' for Inactive)
REMARK    1  A    between atoms: C_1  and  C_2
REMARK    2  A    between atoms: C_2  and  C_3
REMARK    3  A    between atoms: C_2  and  C_4
REMARK    4  A    between atoms: C_7  and  C_10
REMARK    5  A    between atoms: C_10  and  C_26
REMARK    6  A    between atoms: N_13  and  C_17
REMARK    7  A    between atoms: C_17  and  C_18
REMARK                            x       y       z     vdW  Elec       q    Type
REMARK                         _______ _______ _______ _____ _____    ______ ____
ROOT
ATOM      1  C   UNL     1       2.451   3.937  -0.001  0.00  0.00    +0.135 C 
ATOM      2  C   UNL     1       2.287   5.262   0.717  0.00  0.00    +0.251 C 
ATOM      3  O   UNL     1       1.542   6.170   0.417  0.00  0.00    -0.272 OA
ATOM      4  N   UNL     1       3.143   5.221   1.757  0.00  0.00    -0.217 N 
ATOM      5  C   UNL     1       3.818   4.066   1.796  0.00  0.00    +0.310 C 
ATOM      6  O   UNL     1       4.646   3.796   2.643  0.00  0.00    -0.252 OA
ATOM      7  N   UNL     1       3.476   3.237   0.792  0.00  0.00    -0.281 N 
ATOM      8  C   UNL     1       2.934   4.158  -1.436  0.00  0.00    +0.047 C 
ATOM      9  H   UNL     1       3.835   2.352   0.625  0.00  0.00    +0.152 HD
ENDROOT
BRANCH   1  13
ATOM     10  C   UNL     1      -1.219   1.751   0.017  0.00  0.00    -0.045 A 
ATOM     11  C   UNL     1      -0.013   1.076   0.008  0.00  0.00    +0.004 A 
ATOM     12  C   UNL     1       1.175   1.783   0.000  0.00  0.00    +0.006 A 
ATOM     13  C   UNL     1       1.156   3.165   0.008  0.00  0.00    -0.015 A 
ATOM     14  C   UNL     1      -0.050   3.840   0.022  0.00  0.00    +0.006 A 
ATOM     15  C   UNL     1      -1.238   3.133   0.030  0.00  0.00    +0.004 A 
BRANCH  10  17
ATOM     16  C   UNL     1      -3.315   1.331   1.274  0.00  0.00    +0.012 C 
ATOM     17  C   UNL     1      -2.514   0.980   0.019  0.00  0.00    +0.013 C 
ATOM     18  C   UNL     1      -3.327   1.345  -1.224  0.00  0.00    +0.012 C 
ENDBRANCH  10  17
ENDBRANCH   1  13
BRANCH   4  19
ATOM     19  C   UNL     1       3.313   6.306   2.726  0.00  0.00    +0.194 C 
BRANCH  19  20
ATOM     20  C   UNL     1       2.355   6.111   3.873  0.00  0.00    +0.154 A 
ATOM     21  N   UNL     1       1.149   6.648   3.822  0.00  0.00    -0.198 NA
ATOM     22  C   UNL     1       0.297   6.474   4.830  0.00  0.00    +0.217 A 
ATOM     23  N   UNL     1       0.666   5.767   5.893  0.00  0.00    -0.181 NA
ATOM     24  C   UNL     1       1.881   5.232   5.943  0.00  0.00    +0.217 A 
ATOM     25  N   UNL     1       2.724   5.407   4.928  0.00  0.00    -0.198 NA
ATOM     26  N   UNL     1       2.268   4.497   7.044  0.00  0.00    -0.327 N 
ATOM     27  N   UNL     1      -0.964   7.031   4.774  0.00  0.00    -0.327 N 
ATOM     28  H   UNL     1       3.155   4.106   7.080  0.00  0.00    +0.145 HD
ATOM     29  H   UNL     1       1.653   4.370   7.783  0.00  0.00    +0.145 HD
ATOM     30  H   UNL     1      -1.582   6.906   5.511  0.00  0.00    +0.145 HD
ATOM     31  H   UNL     1      -1.232   7.547   3.998  0.00  0.00    +0.145 HD
ENDBRANCH  19  20
ENDBRANCH   4  19
TORSDOF 4
