REMARK  Name = ZINC59831428
REMARK  12 active torsions:
REMARK  status: ('A' for Active; 'I' for Inactive)
REMARK    1  A    between atoms: C_1  and  C_2
REMARK    2  A    between atoms: C_3  and  C_11
REMARK    3  A    between atoms: C_4  and  C_10
REMARK    4  A    between atoms: N_5  and  C_7
REMARK    5  A    between atoms: C_7  and  C_8
REMARK    6  A    between atoms: N_12  and  N_13
REMARK    7  A    between atoms: C_16  and  S_19
REMARK    8  A    between atoms: S_19  and  C_20
REMARK    9  A    between atoms: C_20  and  C_21
REMARK   10  A    between atoms: C_21  and  C_22
REMARK   11  A    between atoms: N_24  and  C_25
REMARK   12  A    between atoms: C_29  and  N_31
REMARK                            x       y       z     vdW  Elec       q    Type
REMARK                         _______ _______ _______ _____ _____    ______ ____
ROOT
ATOM      1  N   UNL     1      -0.089   1.349  -4.091  0.00  0.00    -0.205 N 
ATOM      2  C   UNL     1      -0.101   2.699  -4.385  0.00  0.00    +0.232 A 
ATOM      3  N   UNL     1      -0.119   3.682  -3.509  0.00  0.00    -0.186 NA
ATOM      4  C   UNL     1      -0.125   4.856  -4.150  0.00  0.00    +0.210 A 
ATOM      5  N   UNL     1      -0.110   4.636  -5.443  0.00  0.00    -0.144 NA
ATOM      6  N   UNL     1      -0.089   3.243  -5.621  0.00  0.00    -0.245 N 
ATOM      7  H   UNL     1      -0.070   0.696  -4.808  0.00  0.00    +0.177 HD
ATOM      8  H   UNL     1      -0.071   2.765  -6.465  0.00  0.00    +0.192 HD
ENDROOT
BRANCH   1  10
ATOM      9  C   UNL     1      -0.092  -0.345  -2.480  0.00  0.00    +0.141 C 
ATOM     10  N   UNL     1      -0.103   0.922  -2.756  0.00  0.00    -0.187 NA
BRANCH   9  13
ATOM     11  C   UNL     1      -0.153   1.540   0.069  0.00  0.00    +0.068 C 
ATOM     12  C   UNL     1      -0.135   0.033   0.069  0.00  0.00    +0.069 A 
ATOM     13  C   UNL     1      -0.108  -0.795  -1.074  0.00  0.00    +0.038 A 
ATOM     14  C   UNL     1      -0.098  -2.100  -0.634  0.00  0.00    +0.045 A 
ATOM     15  N   UNL     1      -0.118  -2.071   0.714  0.00  0.00    -0.264 N 
ATOM     16  N   UNL     1      -0.135  -0.734   1.126  0.00  0.00    -0.175 NA
ATOM     17  C   UNL     1      -0.070  -3.334  -1.499  0.00  0.00    +0.066 C 
BRANCH  15  18
ATOM     18  C   UNL     1      -0.117  -3.240   1.597  0.00  0.00    +0.170 C 
BRANCH  18  19
ATOM     19  C   UNL     1       1.304  -3.623   1.921  0.00  0.00    -0.012 C 
ATOM     20  C   UNL     1       1.687  -3.722   3.170  0.00  0.00    +0.006 C 
ENDBRANCH  18  19
ENDBRANCH  15  18
ENDBRANCH   9  13
ENDBRANCH   1  10
BRANCH   4  21
ATOM     21  S   UNL     1      -0.150   6.442  -3.382  0.00  0.00    -0.084 S 
BRANCH  21  22
ATOM     22  C   UNL     1      -0.147   7.604  -4.774  0.00  0.00    +0.086 C 
BRANCH  22  23
ATOM     23  C   UNL     1      -0.168   9.038  -4.242  0.00  0.00    +0.107 C 
BRANCH  23  24
ATOM     24  C   UNL     1      -0.166  10.004  -5.399  0.00  0.00    +0.218 C 
ATOM     25  O   UNL     1      -0.150   9.586  -6.537  0.00  0.00    -0.275 OA
ATOM     26  N   UNL     1      -0.183  11.331  -5.169  0.00  0.00    -0.285 N 
ATOM     27  H   UNL     1      -0.261  11.665  -4.261  0.00  0.00    +0.155 HD
BRANCH  26  28
ATOM     28  C   UNL     1      -0.087  12.228  -6.239  0.00  0.00    +0.035 A 
ATOM     29  C   UNL     1      -0.681  11.923  -7.457  0.00  0.00    +0.023 A 
ATOM     30  C   UNL     1      -0.587  12.808  -8.513  0.00  0.00    +0.004 A 
ATOM     31  C   UNL     1       0.097  13.999  -8.362  0.00  0.00    +0.023 A 
ATOM     32  C   UNL     1       0.693  14.310  -7.147  0.00  0.00    +0.038 A 
ATOM     33  C   UNL     1       0.596  13.425  -6.082  0.00  0.00    +0.046 A 
BRANCH  32  34
ATOM     34  N   UNL     1       1.386  15.516  -6.995  0.00  0.00    -0.271 N 
ATOM     35  C   UNL     1       1.439  16.574  -8.010  0.00  0.00    +0.114 C 
ATOM     36  C   UNL     1       1.916  17.839  -7.262  0.00  0.00    +0.029 C 
ATOM     37  C   UNL     1       2.696  17.228  -6.075  0.00  0.00    +0.098 C 
ATOM     38  C   UNL     1       2.083  15.857  -5.897  0.00  0.00    +0.220 C 
ATOM     39  O   UNL     1       2.206  15.164  -4.909  0.00  0.00    -0.275 OA
ENDBRANCH  32  34
ENDBRANCH  26  28
ENDBRANCH  23  24
ENDBRANCH  22  23
ENDBRANCH  21  22
ENDBRANCH   4  21
TORSDOF 10
