REMARK  Name = ZINC64920281
REMARK  8 active torsions:
REMARK  status: ('A' for Active; 'I' for Inactive)
REMARK    1  A    between atoms: C_1  and  C_2
REMARK    2  A    between atoms: C_2  and  C_3
REMARK    3  A    between atoms: C_2  and  C_4
REMARK    4  A    between atoms: C_7  and  N_10
REMARK    5  A    between atoms: N_10  and  S_11
REMARK    6  A    between atoms: S_11  and  C_14
REMARK    7  A    between atoms: C_17  and  C_19
REMARK    8  A    between atoms: C_22  and  C_24
REMARK                            x       y       z     vdW  Elec       q    Type
REMARK                         _______ _______ _______ _____ _____    ______ ____
ROOT
ATOM      1  S   UNL     1       1.966  -2.857   5.685  0.00  0.00    +0.098 S 
ATOM      2  O   UNL     1       0.945  -2.067   6.279  0.00  0.00    -0.148 OA
ATOM      3  O   UNL     1       1.689  -4.078   5.012  0.00  0.00    -0.148 OA
ENDROOT
BRANCH   1   4
ATOM      4  C   UNL     1       3.118  -3.236   6.963  0.00  0.00    +0.148 A 
ATOM      5  C   UNL     1       3.356  -2.569   8.122  0.00  0.00    +0.037 A 
ATOM      6  C   UNL     1       4.311  -3.045   8.989  0.00  0.00    +0.023 A 
ATOM      7  C   UNL     1       4.998  -4.194   8.644  0.00  0.00    +0.077 A 
ATOM      8  S   UNL     1       4.265  -4.600   7.068  0.00  0.00    -0.063 S 
BRANCH   7   9
ATOM      9  C   UNL     1       6.054  -4.900   9.385  0.00  0.00    +0.255 A 
ATOM     10  N   UNL     1       6.551  -4.558  10.554  0.00  0.00    -0.107 NA
ATOM     11  N   UNL     1       7.456  -5.406  10.895  0.00  0.00    -0.112 NA
ATOM     12  C   UNL     1       7.574  -6.315   9.968  0.00  0.00    +0.221 A 
ATOM     13  O   UNL     1       6.691  -6.024   8.996  0.00  0.00    -0.419 OA
BRANCH  12  14
ATOM     14  C   UNL     1       8.525  -7.484   9.986  0.00  0.00    +0.077 C 
ATOM     15  C   UNL     1       9.296  -7.748  11.280  0.00  0.00    +0.013 C 
ATOM     16  C   UNL     1      10.022  -7.177  10.060  0.00  0.00    +0.013 C 
ENDBRANCH  12  14
ENDBRANCH   7   9
ENDBRANCH   1   4
BRANCH   1  17
ATOM     17  N   UNL     1       2.745  -1.883   4.596  0.00  0.00    -0.097 NA
BRANCH  17  21
ATOM     18  C   UNL     1       0.731  -0.503   1.223  0.00  0.00    -0.045 A 
ATOM     19  C   UNL     1       2.050  -0.147   1.432  0.00  0.00    +0.006 A 
ATOM     20  C   UNL     1       2.721  -0.603   2.550  0.00  0.00    +0.027 A 
ATOM     21  C   UNL     1       2.069  -1.420   3.465  0.00  0.00    +0.074 A 
ATOM     22  C   UNL     1       0.744  -1.776   3.251  0.00  0.00    +0.027 A 
ATOM     23  C   UNL     1       0.077  -1.312   2.134  0.00  0.00    +0.006 A 
BRANCH  18  25
ATOM     24  C   UNL     1      -0.019   1.526   0.010  0.00  0.00    +0.012 C 
ATOM     25  C   UNL     1       0.002  -0.004   0.002  0.00  0.00    +0.013 C 
ATOM     26  C   UNL     1       0.718  -0.497  -1.257  0.00  0.00    +0.012 C 
ENDBRANCH  18  25
ENDBRANCH  17  21
ENDBRANCH   1  17
TORSDOF 6
