REMARK  Name = ZINC08993070
REMARK  3 active torsions:
REMARK  status: ('A' for Active; 'I' for Inactive)
REMARK    1  A    between atoms: C_1  and  C_2
REMARK    2  A    between atoms: N_17  and  C_18
REMARK    3  A    between atoms: C_21  and  N_24
REMARK                            x       y       z     vdW  Elec       q    Type
REMARK                         _______ _______ _______ _____ _____    ______ ____
ROOT
ATOM      1  C   UNL     1      -1.844   6.883   3.459  0.00  0.00    +0.007 C 
ATOM      2  C   UNL     1      -1.988   5.491   2.840  0.00  0.00    -0.014 C 
ATOM      3  C   UNL     1      -0.682   4.714   3.022  0.00  0.00    +0.007 C 
ATOM      4  C   UNL     1      -0.826   3.324   2.401  0.00  0.00    +0.046 C 
ATOM      5  C   UNL     1      -1.132   3.461   0.907  0.00  0.00    +0.106 C 
ATOM      6  C   UNL     1      -2.439   4.236   0.727  0.00  0.00    +0.046 C 
ATOM      7  C   UNL     1      -2.296   5.627   1.347  0.00  0.00    +0.007 C 
ATOM      8  N   UNL     1      -1.278   2.124   0.319  0.00  0.00    -0.322 N 
ATOM      9  C   UNL     1      -0.134   1.378   0.058  0.00  0.00    +0.041 A 
ATOM     10  C   UNL     1      -0.147  -0.006   0.070  0.00  0.00    +0.024 A 
ATOM     11  C   UNL     1       1.009  -0.704  -0.220  0.00  0.00    +0.002 A 
ATOM     12  C   UNL     1       2.182  -0.030  -0.521  0.00  0.00    +0.001 A 
ATOM     13  C   UNL     1       2.214   1.349  -0.533  0.00  0.00    +0.015 A 
ATOM     14  C   UNL     1       1.056   2.065  -0.239  0.00  0.00    +0.058 A 
ATOM     15  C   UNL     1       1.043   3.538  -0.218  0.00  0.00    +0.254 C 
ATOM     16  O   UNL     1       2.004   4.165  -0.622  0.00  0.00    -0.270 OA
ATOM     17  N   UNL     1      -0.042   4.185   0.252  0.00  0.00    -0.246 N 
ATOM     18  H   UNL     1      -2.157   1.767   0.117  0.00  0.00    +0.148 HD
ENDROOT
BRANCH  17  19
ATOM     19  C   UNL     1      -0.128   5.576   0.110  0.00  0.00    +0.039 A 
ATOM     20  C   UNL     1      -0.915   6.124  -0.893  0.00  0.00    +0.025 A 
ATOM     21  C   UNL     1      -1.004   7.495  -1.030  0.00  0.00    +0.025 A 
ATOM     22  C   UNL     1      -0.297   8.326  -0.170  0.00  0.00    +0.030 A 
ATOM     23  C   UNL     1       0.495   7.778   0.830  0.00  0.00    +0.025 A 
ATOM     24  C   UNL     1       0.579   6.407   0.970  0.00  0.00    +0.025 A 
BRANCH  22  25
ATOM     25  N   UNL     1      -0.383   9.715  -0.312  0.00  0.00    -0.326 N 
ATOM     26  C   UNL     1      -0.832  10.346   0.937  0.00  0.00    +0.133 C 
ATOM     27  C   UNL     1      -0.854  11.866   0.756  0.00  0.00    +0.178 C 
ATOM     28  O   UNL     1      -1.696  12.197  -0.351  0.00  0.00    -0.377 OA
ATOM     29  C   UNL     1      -1.288  11.600  -1.585  0.00  0.00    +0.178 C 
ATOM     30  C   UNL     1      -1.270  10.077  -1.427  0.00  0.00    +0.133 C 
ENDBRANCH  22  25
ENDBRANCH  17  19
TORSDOF 2
