REMARK  Name = ZINC06273964
REMARK  12 active torsions:
REMARK  status: ('A' for Active; 'I' for Inactive)
REMARK    1  A    between atoms: C_1  and  C_2
REMARK    2  A    between atoms: C_2  and  C_3
REMARK    3  A    between atoms: C_3  and  C_4
REMARK    4  A    between atoms: C_4  and  C_5
REMARK    5  A    between atoms: C_6  and  C_18
REMARK    6  A    between atoms: C_7  and  C_15
REMARK    7  A    between atoms: C_8  and  C_14
REMARK    8  A    between atoms: N_9  and  C_10
REMARK    9  A    between atoms: C_10  and  C_11
REMARK   10  A    between atoms: C_11  and  C_12
REMARK   11  A    between atoms: C_12  and  O_13
REMARK   12  A    between atoms: C_21  and  C_24
REMARK                            x       y       z     vdW  Elec       q    Type
REMARK                         _______ _______ _______ _____ _____    ______ ____
ROOT
ATOM      1  C   UNL     1      -1.240   5.254  -0.655  0.00  0.00    +0.027 A 
ATOM      2  C   UNL     1      -1.219   3.988  -1.148  0.00  0.00    +0.015 A 
ATOM      3  C   UNL     1      -1.207   3.095   0.025  0.00  0.00    +0.065 A 
ATOM      4  C   UNL     1      -1.213   3.911   1.120  0.00  0.00    +0.029 A 
ATOM      5  N   UNL     1      -1.232   5.192   0.705  0.00  0.00    -0.347 N 
ATOM      6  C   UNL     1      -1.199   3.453   2.556  0.00  0.00    +0.064 C 
ENDROOT
BRANCH   2   7
ATOM      7  C   UNL     1      -1.212   3.587  -2.574  0.00  0.00    -0.015 A 
ATOM      8  C   UNL     1      -0.122   3.911  -3.384  0.00  0.00    +0.010 A 
ATOM      9  C   UNL     1      -0.113   3.535  -4.703  0.00  0.00    +0.019 A 
ATOM     10  C   UNL     1      -1.200   2.838  -5.239  0.00  0.00    +0.052 A 
ATOM     11  C   UNL     1      -2.293   2.520  -4.428  0.00  0.00    +0.019 A 
ATOM     12  C   UNL     1      -2.298   2.892  -3.108  0.00  0.00    +0.010 A 
BRANCH  10  13
ATOM     13  C   UNL     1      -1.194   2.451  -6.617  0.00  0.00    +0.099 C 
ATOM     14  N   UNL     1      -1.188   2.144  -7.711  0.00  0.00    -0.191 NA
ENDBRANCH  10  13
ENDBRANCH   2   7
BRANCH   3  15
ATOM     15  C   UNL     1      -1.187   1.624   0.017  0.00  0.00    +0.244 C 
ATOM     16  O   UNL     1      -2.232   1.001   0.018  0.00  0.00    -0.270 OA
ATOM     17  N   UNL     1      -0.011   0.966   0.007  0.00  0.00    -0.325 N 
ATOM     18  H   UNL     1       0.002  -0.004   0.002  0.00  0.00    +0.145 HD
ATOM     19  H   UNL     1       0.822   1.462   0.002  0.00  0.00    +0.145 HD
ENDBRANCH   3  15
BRANCH   1  20
ATOM     20  C   UNL     1      -1.262   6.517  -1.477  0.00  0.00    +0.054 C 
BRANCH  20  21
ATOM     21  C   UNL     1       0.174   6.965  -1.762  0.00  0.00    +0.006 C 
BRANCH  21  23
ATOM     22  C   UNL     1       1.587   8.694  -2.882  0.00  0.00    +0.004 C 
ATOM     23  C   UNL     1       0.152   8.247  -2.596  0.00  0.00    -0.003 C 
ENDBRANCH  21  23
ENDBRANCH  20  21
ENDBRANCH   1  20
BRANCH   5  24
ATOM     24  C   UNL     1      -1.244   6.357   1.593  0.00  0.00    +0.124 C 
BRANCH  24  25
ATOM     25  C   UNL     1       0.194   6.783   1.895  0.00  0.00    +0.049 C 
BRANCH  25  26
ATOM     26  C   UNL     1       0.182   7.999   2.823  0.00  0.00    +0.157 C 
BRANCH  26  27
ATOM     27  O   UNL     1       1.525   8.397   3.105  0.00  0.00    -0.395 OA
ATOM     28  H   UNL     1       1.594   9.164   3.689  0.00  0.00    +0.209 HD
ENDBRANCH  26  27
ENDBRANCH  25  26
ENDBRANCH  24  25
ENDBRANCH   5  24
TORSDOF 10
