REMARK  Name = ZINC36601900
REMARK  15 active torsions:
REMARK  status: ('A' for Active; 'I' for Inactive)
REMARK    1  A    between atoms: C_1  and  C_2
REMARK    2  A    between atoms: C_5  and  S_8
REMARK    3  A    between atoms: S_8  and  C_11
REMARK    4  A    between atoms: C_11  and  N_12
REMARK    5  A    between atoms: C_13  and  C_15
REMARK    6  A    between atoms: C_15  and  C_17
REMARK    7  A    between atoms: C_15  and  N_26
REMARK    8  A    between atoms: C_20  and  O_25
REMARK    9  A    between atoms: C_21  and  O_23
REMARK   10  A    between atoms: O_23  and  C_24
REMARK   11  A    between atoms: N_26  and  C_27
REMARK   12  A    between atoms: C_27  and  C_28
REMARK   13  A    between atoms: C_31  and  C_33
REMARK   14  A    between atoms: C_34  and  C_36
REMARK   15  A    between atoms: C_36  and  C_38
REMARK                            x       y       z     vdW  Elec       q    Type
REMARK                         _______ _______ _______ _____ _____    ______ ____
ROOT
ATOM      1  C   UNL     1       1.858  -5.533   4.183  0.00  0.00    +0.193 C 
ENDROOT
BRANCH   1   2
ATOM      2  C   UNL     1       0.901  -4.404   4.468  0.00  0.00    -0.015 A 
ATOM      3  C   UNL     1       0.109  -4.441   5.601  0.00  0.00    +0.010 A 
ATOM      4  C   UNL     1      -0.771  -3.409   5.867  0.00  0.00    +0.049 A 
ATOM      5  C   UNL     1      -0.860  -2.333   4.998  0.00  0.00    +0.158 A 
ATOM      6  C   UNL     1      -0.062  -2.296   3.858  0.00  0.00    +0.162 A 
ATOM      7  C   UNL     1       0.821  -3.332   3.600  0.00  0.00    +0.055 A 
BRANCH   6   8
ATOM      8  O   UNL     1      -0.145  -1.242   3.002  0.00  0.00    -0.491 OA
ATOM      9  C   UNL     1       0.703  -1.271   1.853  0.00  0.00    +0.277 C 
ENDBRANCH   6   8
BRANCH   5  10
ATOM     10  O   UNL     1      -1.725  -1.316   5.258  0.00  0.00    -0.503 OA
ATOM     11  H   UNL     1      -1.345  -0.603   5.788  0.00  0.00    +0.292 HD
ENDBRANCH   5  10
ENDBRANCH   1   2
BRANCH   1  13
ATOM     12  N   UNL     1       0.800  -6.092   2.018  0.00  0.00    -0.294 N 
ATOM     13  C   UNL     1       1.215  -6.508   3.231  0.00  0.00    +0.239 C 
ATOM     14  O   UNL     1       1.071  -7.668   3.555  0.00  0.00    -0.273 OA
ATOM     15  H   UNL     1       0.999  -5.190   1.721  0.00  0.00    +0.150 HD
BRANCH  12  16
ATOM     16  C   UNL     1       0.051  -7.001   1.148  0.00  0.00    +0.278 C 
BRANCH  16  17
ATOM     17  S   UNL     1      -1.728  -6.723   1.372  0.00  0.00    +0.013 S 
ATOM     18  O   UNL     1      -2.051  -6.713   2.756  0.00  0.00    -0.168 OA
ATOM     19  O   UNL     1      -2.467  -7.525   0.462  0.00  0.00    -0.168 OA
BRANCH  17  24
ATOM     20  C   UNL     1      -2.659  -1.053  -0.467  0.00  0.00    +0.044 C 
ATOM     21  C   UNL     1      -2.426  -2.469  -0.007  0.00  0.00    -0.050 A 
ATOM     22  C   UNL     1      -2.520  -3.512  -0.909  0.00  0.00    +0.005 A 
ATOM     23  C   UNL     1      -2.307  -4.811  -0.488  0.00  0.00    +0.027 A 
ATOM     24  C   UNL     1      -1.999  -5.067   0.835  0.00  0.00    +0.090 A 
ATOM     25  C   UNL     1      -1.904  -4.024   1.737  0.00  0.00    +0.027 A 
ATOM     26  C   UNL     1      -2.113  -2.724   1.315  0.00  0.00    +0.005 A 
ENDBRANCH  17  24
ENDBRANCH  16  17
ENDBRANCH  12  16
ENDBRANCH   1  13
BRANCH   1  27
ATOM     27  N   UNL     1       2.191  -6.219   5.434  0.00  0.00    -0.275 N 
ATOM     28  C   UNL     1       3.326  -5.910   6.090  0.00  0.00    +0.243 C 
ATOM     29  O   UNL     1       3.670  -6.568   7.054  0.00  0.00    -0.270 OA
BRANCH  28  30
ATOM     30  C   UNL     1       4.151  -4.778   5.642  0.00  0.00    +0.004 C 
ATOM     31  C   UNL     1       5.419  -4.975   5.292  0.00  0.00    +0.017 C 
ATOM     32  C   UNL     1       3.558  -3.393   5.578  0.00  0.00    +0.048 C 
ENDBRANCH  28  30
BRANCH  27  33
ATOM     33  C   UNL     1       1.288  -7.241   5.971  0.00  0.00    +0.183 C 
BRANCH  33  34
ATOM     34  C   UNL     1       2.029  -8.547   6.100  0.00  0.00    +0.122 A 
ATOM     35  C   UNL     1       2.710  -8.962   7.183  0.00  0.00    +0.046 A 
ATOM     36  C   UNL     1       3.243 -10.233   6.870  0.00  0.00    +0.045 A 
ATOM     37  C   UNL     1       2.856 -10.519   5.614  0.00  0.00    +0.102 A 
ATOM     38  O   UNL     1       2.116  -9.497   5.155  0.00  0.00    -0.463 OA
ATOM     39  C   UNL     1       3.191 -11.777   4.854  0.00  0.00    +0.086 C 
ENDBRANCH  33  34
ENDBRANCH  27  33
ENDBRANCH   1  27
TORSDOF 11
