REMARK  Name = ZINC50769214
REMARK  6 active torsions:
REMARK  status: ('A' for Active; 'I' for Inactive)
REMARK    1  A    between atoms: C_1  and  C_2
REMARK    2  A    between atoms: C_5  and  C_8
REMARK    3  A    between atoms: C_8  and  C_9
REMARK    4  A    between atoms: C_16  and  C_18
REMARK    5  A    between atoms: C_18  and  C_20
REMARK    6  A    between atoms: C_18  and  N_21
REMARK                            x       y       z     vdW  Elec       q    Type
REMARK                         _______ _______ _______ _____ _____    ______ ____
ROOT
ATOM      1  C   UNL     1       1.486  -4.673  -0.824  0.00  0.00    +0.011 C 
ATOM      2  C   UNL     1       2.220  -3.901   0.276  0.00  0.00    +0.007 C 
ATOM      3  C   UNL     1       3.685  -4.341   0.319  0.00  0.00    +0.019 C 
ATOM      4  C   UNL     1       3.756  -5.835   0.648  0.00  0.00    +0.108 C 
ATOM      5  N   UNL     1       2.933  -6.572  -0.321  0.00  0.00    -0.300 N 
ATOM      6  C   UNL     1       1.532  -6.172  -0.508  0.00  0.00    +0.111 C 
ATOM      7  C   UNL     1       3.454  -7.597  -1.025  0.00  0.00    +0.236 C 
ATOM      8  O   UNL     1       2.742  -8.257  -1.752  0.00  0.00    -0.274 OA
ENDROOT
BRANCH   7   9
ATOM      9  C   UNL     1       4.921  -7.922  -0.910  0.00  0.00    +0.157 C 
ATOM     10  C   UNL     1       5.156  -8.787   0.330  0.00  0.00    +0.038 C 
BRANCH   9  11
ATOM     11  N   UNL     1       5.355  -8.651  -2.104  0.00  0.00    -0.289 N 
ATOM     12  C   UNL     1       6.648  -8.616  -2.482  0.00  0.00    +0.298 C 
ATOM     13  O   UNL     1       7.455  -7.978  -1.833  0.00  0.00    -0.253 OA
ATOM     14  N   UNL     1       7.048  -9.287  -3.581  0.00  0.00    -0.313 N 
ATOM     15  H   UNL     1       4.712  -9.160  -2.622  0.00  0.00    +0.151 HD
ATOM     16  H   UNL     1       6.404  -9.796  -4.099  0.00  0.00    +0.146 HD
ATOM     17  H   UNL     1       7.978  -9.261  -3.853  0.00  0.00    +0.146 HD
ENDBRANCH   9  11
ENDBRANCH   7   9
BRANCH   1  18
ATOM     18  C   UNL     1       0.029  -4.210  -0.888  0.00  0.00    +0.040 C 
BRANCH  18  23
ATOM     19  C   UNL     1      -0.163   1.327  -2.531  0.00  0.00    +0.044 C 
ATOM     20  C   UNL     1      -0.113  -0.117  -2.103  0.00  0.00    -0.050 A 
ATOM     21  C   UNL     1      -0.147  -1.121  -3.052  0.00  0.00    +0.003 A 
ATOM     22  C   UNL     1      -0.101  -2.446  -2.659  0.00  0.00    +0.004 A 
ATOM     23  C   UNL     1      -0.020  -2.766  -1.317  0.00  0.00    -0.047 A 
ATOM     24  C   UNL     1       0.015  -1.761  -0.367  0.00  0.00    +0.004 A 
ATOM     25  C   UNL     1      -0.027  -0.437  -0.761  0.00  0.00    +0.003 A 
ENDBRANCH  18  23
ENDBRANCH   1  18
TORSDOF 4
