REMARK  Name = ZINC38583141
REMARK  5 active torsions:
REMARK  status: ('A' for Active; 'I' for Inactive)
REMARK    1  A    between atoms: C_1  and  C_2
REMARK    2  A    between atoms: C_2  and  C_34
REMARK    3  A    between atoms: N_7  and  N_8
REMARK    4  A    between atoms: C_9  and  C_11
REMARK    5  A    between atoms: C_28  and  C_30
REMARK                            x       y       z     vdW  Elec       q    Type
REMARK                         _______ _______ _______ _____ _____    ______ ____
ROOT
ATOM      1  C   UNL     1      -0.019   1.526   0.010  0.00  0.00    +0.011 C 
ATOM      2  C   UNL     1       0.002  -0.004   0.002  0.00  0.00    -0.024 C 
ATOM      3  C   UNL     1      -1.430  -0.531   0.009  0.00  0.00    +0.062 C 
ATOM      4  C   UNL     1      -2.142  -0.167   1.281  0.00  0.00    +0.051 C 
ATOM      5  C   UNL     1      -1.424   0.092   2.451  0.00  0.00    +0.025 C 
ATOM      6  C   UNL     1       0.044   0.070   2.458  0.00  0.00    +0.069 C 
ATOM      7  N   UNL     1       0.718   0.534   3.467  0.00  0.00    -0.184 NA
ATOM      8  C   UNL     1       0.744  -0.512   1.245  0.00  0.00    +0.064 C 
ATOM      9  C   UNL     1      -2.185   0.341   3.601  0.00  0.00    +0.000 C 
ATOM     10  C   UNL     1      -1.988   1.030   4.760  0.00  0.00    +0.004 A 
ATOM     11  C   UNL     1      -0.824   1.581   5.349  0.00  0.00    +0.010 A 
ATOM     12  C   UNL     1      -0.988   2.264   6.518  0.00  0.00    +0.001 A 
ATOM     13  C   UNL     1      -2.224   2.436   7.138  0.00  0.00    +0.002 A 
ATOM     14  C   UNL     1      -3.387   1.920   6.650  0.00  0.00    +0.026 A 
ATOM     15  C   UNL     1      -3.303   1.173   5.443  0.00  0.00    +0.044 A 
ATOM     16  N   UNL     1      -4.236   0.525   4.790  0.00  0.00    -0.372 N 
ATOM     17  C   UNL     1      -3.613  -0.193   3.692  0.00  0.00    +0.165 C 
ATOM     18  C   UNL     1      -4.230  -0.006   2.341  0.00  0.00    +0.148 C 
ATOM     19  N   UNL     1      -3.478  -0.032   1.280  0.00  0.00    -0.249 NA
ATOM     20  C   UNL     1       0.720  -0.497  -1.256  0.00  0.00    +0.011 C 
ATOM     21  H   UNL     1      -5.183   0.525   5.003  0.00  0.00    +0.161 HD
ENDROOT
BRANCH   7  22
ATOM     22  N   UNL     1       2.119   0.501   3.447  0.00  0.00    -0.203 N 
ATOM     23  C   UNL     1       2.819   0.982   4.494  0.00  0.00    +0.263 C 
ATOM     24  O   UNL     1       2.235   1.443   5.455  0.00  0.00    -0.268 OA
ATOM     25  H   UNL     1       2.585   0.133   2.680  0.00  0.00    +0.178 HD
BRANCH  23  26
ATOM     26  C   UNL     1       4.299   0.947   4.473  0.00  0.00    +0.041 A 
ATOM     27  C   UNL     1       4.990   0.425   3.375  0.00  0.00    +0.033 A 
ATOM     28  C   UNL     1       6.371   0.413   3.398  0.00  0.00    +0.111 A 
ATOM     29  N   UNL     1       7.036   0.883   4.435  0.00  0.00    -0.263 NA
ATOM     30  C   UNL     1       6.423   1.383   5.490  0.00  0.00    +0.111 A 
ATOM     31  C   UNL     1       5.045   1.440   5.549  0.00  0.00    +0.033 A 
ENDBRANCH  23  26
ENDBRANCH   7  22
BRANCH  18  32
ATOM     32  C   UNL     1      -5.716   0.211   2.211  0.00  0.00    +0.433 C 
ATOM     33  F   UNL     1      -6.048   0.359   0.860  0.00  0.00    -0.165 F 
ATOM     34  F   UNL     1      -6.396  -0.890   2.741  0.00  0.00    -0.165 F 
ATOM     35  F   UNL     1      -6.081   1.367   2.910  0.00  0.00    -0.165 F 
ENDBRANCH  18  32
TORSDOF 3
