REMARK  Name = ZINC18123205
REMARK  3 active torsions:
REMARK  status: ('A' for Active; 'I' for Inactive)
REMARK    1  A    between atoms: C_1  and  C_2
REMARK    2  A    between atoms: C_7  and  C_8
REMARK    3  A    between atoms: N_16  and  C_19
REMARK                            x       y       z     vdW  Elec       q    Type
REMARK                         _______ _______ _______ _____ _____    ______ ____
ROOT
ATOM      1  C   UNL     1       0.289   0.061   2.415  0.00  0.00    +0.163 C 
ATOM      2  C   UNL     1       1.733   0.530   2.700  0.00  0.00    +0.125 C 
ATOM      3  C   UNL     1       1.879   0.373   4.241  0.00  0.00    +0.138 C 
ATOM      4  C   UNL     1       2.029   1.798   4.723  0.00  0.00    +0.234 C 
ATOM      5  O   UNL     1       2.171   2.134   5.880  0.00  0.00    -0.274 OA
ATOM      6  N   UNL     1       1.981   2.629   3.677  0.00  0.00    -0.210 N 
ATOM      7  C   UNL     1       1.822   2.022   2.476  0.00  0.00    +0.233 C 
ATOM      8  O   UNL     1       1.758   2.574   1.398  0.00  0.00    -0.274 OA
ATOM      9  C   UNL     1       0.521  -0.197   4.678  0.00  0.00    +0.206 C 
ATOM     10  O   UNL     1      -0.049  -0.809   3.519  0.00  0.00    -0.348 OA
ATOM     11  C   UNL     1       0.682  -1.174   5.808  0.00  0.00    +0.204 C 
ATOM     12  O   UNL     1       1.343  -2.190   5.794  0.00  0.00    -0.288 OA
ATOM     13  C   UNL     1      -0.118  -0.662   6.938  0.00  0.00    +0.031 A 
ATOM     14  C   UNL     1      -0.318  -1.177   8.220  0.00  0.00    +0.012 A 
ATOM     15  C   UNL     1      -1.126  -0.506   9.118  0.00  0.00    +0.001 A 
ATOM     16  C   UNL     1      -1.744   0.678   8.756  0.00  0.00    +0.001 A 
ATOM     17  C   UNL     1      -1.558   1.206   7.493  0.00  0.00    +0.012 A 
ATOM     18  C   UNL     1      -0.744   0.546   6.570  0.00  0.00    +0.031 A 
ATOM     19  C   UNL     1      -0.386   0.892   5.181  0.00  0.00    +0.204 C 
ATOM     20  O   UNL     1      -0.752   1.869   4.564  0.00  0.00    -0.288 OA
ENDROOT
BRANCH   1  27
ATOM     21  C   UNL     1      -0.283   1.460  -0.047  0.00  0.00    +0.044 C 
ATOM     22  C   UNL     1      -0.042  -0.028  -0.064  0.00  0.00    -0.045 A 
ATOM     23  C   UNL     1      -0.088  -0.722  -1.259  0.00  0.00    +0.004 A 
ATOM     24  C   UNL     1       0.133  -2.086  -1.274  0.00  0.00    +0.000 A 
ATOM     25  C   UNL     1       0.402  -2.756  -0.095  0.00  0.00    +0.000 A 
ATOM     26  C   UNL     1       0.449  -2.062   1.099  0.00  0.00    +0.006 A 
ATOM     27  C   UNL     1       0.232  -0.697   1.114  0.00  0.00    -0.015 A 
ENDBRANCH   1  27
BRANCH   6  28
ATOM     28  C   UNL     1       2.094   4.021   3.808  0.00  0.00    +0.044 A 
ATOM     29  C   UNL     1       1.002   4.835   3.541  0.00  0.00    +0.025 A 
ATOM     30  C   UNL     1       1.116   6.205   3.671  0.00  0.00    +0.017 A 
ATOM     31  C   UNL     1       2.317   6.767   4.068  0.00  0.00    +0.018 A 
ATOM     32  C   UNL     1       3.407   5.957   4.335  0.00  0.00    +0.017 A 
ATOM     33  C   UNL     1       3.296   4.586   4.212  0.00  0.00    +0.025 A 
ATOM     34 BR   UNL     1       2.469   8.643   4.245  0.00  0.00    -0.050 Br
ENDBRANCH   6  28
TORSDOF 2
