REMARK  Name = ZINC04346813
REMARK  5 active torsions:
REMARK  status: ('A' for Active; 'I' for Inactive)
REMARK    1  A    between atoms: C_1  and  C_2
REMARK    2  A    between atoms: C_5  and  C_9
REMARK    3  A    between atoms: C_6  and  C_8
REMARK    4  A    between atoms: N_14  and  C_17
REMARK    5  A    between atoms: N_23  and  C_27
REMARK                            x       y       z     vdW  Elec       q    Type
REMARK                         _______ _______ _______ _____ _____    ______ ____
ROOT
ATOM      1  C   UNL     1       2.234   0.665  -0.045  0.00  0.00    +0.142 C 
ATOM      2  C   UNL     1       2.699   0.452   1.381  0.00  0.00    +0.058 C 
ATOM      3  C   UNL     1       2.723  -0.812   1.850  0.00  0.00    +0.042 C 
ATOM      4  C   UNL     1       3.220  -0.728   3.276  0.00  0.00    +0.159 C 
ATOM      5  N   UNL     1       3.456   0.705   3.510  0.00  0.00    -0.289 N 
ATOM      6  C   UNL     1       3.137   1.352   2.374  0.00  0.00    +0.247 C 
ATOM      7  O   UNL     1       3.216   2.557   2.223  0.00  0.00    -0.270 OA
ATOM      8  N   UNL     1       2.340  -1.865   1.069  0.00  0.00    -0.260 N 
ATOM      9  C   UNL     1       1.920  -1.734  -0.196  0.00  0.00    +0.307 C 
ATOM     10  O   UNL     1       1.600  -2.730  -0.816  0.00  0.00    -0.252 OA
ATOM     11  N   UNL     1       1.843  -0.534  -0.805  0.00  0.00    -0.288 N 
ATOM     12  C   UNL     1       2.392  -3.210   1.646  0.00  0.00    +0.139 C 
ATOM     13  H   UNL     1       1.537  -0.462  -1.723  0.00  0.00    +0.151 HD
ENDROOT
BRANCH   1  18
ATOM     14  C   UNL     1      -2.297   4.250   0.075  0.00  0.00    +0.044 C 
ATOM     15  C   UNL     1      -1.115   3.315   0.044  0.00  0.00    -0.050 A 
ATOM     16  C   UNL     1      -0.724   2.657   1.195  0.00  0.00    +0.004 A 
ATOM     17  C   UNL     1       0.363   1.803   1.167  0.00  0.00    +0.006 A 
ATOM     18  C   UNL     1       1.052   1.600  -0.014  0.00  0.00    -0.020 A 
ATOM     19  C   UNL     1       0.659   2.256  -1.165  0.00  0.00    -0.045 A 
ATOM     20  C   UNL     1      -0.425   3.113  -1.137  0.00  0.00    +0.007 A 
ATOM     21  C   UNL     1       1.411   2.035  -2.452  0.00  0.00    +0.044 C 
ENDBRANCH   1  18
BRANCH   5  22
ATOM     22  C   UNL     1       3.946   1.314   4.748  0.00  0.00    +0.077 C 
ATOM     23  C   UNL     1       2.907   2.306   5.275  0.00  0.00    +0.022 C 
ATOM     24  C   UNL     1       3.419   2.942   6.569  0.00  0.00    +0.002 C 
ATOM     25  C   UNL     1       4.731   3.679   6.291  0.00  0.00    +0.000 C 
ATOM     26  C   UNL     1       5.770   2.687   5.764  0.00  0.00    +0.002 C 
ATOM     27  C   UNL     1       5.258   2.051   4.470  0.00  0.00    +0.022 C 
ENDBRANCH   5  22
TORSDOF 2
