REMARK  Name = ZINC04347530
REMARK  7 active torsions:
REMARK  status: ('A' for Active; 'I' for Inactive)
REMARK    1  A    between atoms: C_1  and  C_2
REMARK    2  A    between atoms: C_2  and  C_3
REMARK    3  A    between atoms: C_2  and  C_4
REMARK    4  A    between atoms: C_2  and  C_5
REMARK    5  A    between atoms: C_8  and  C_10
REMARK    6  A    between atoms: C_13  and  C_16
REMARK    7  A    between atoms: N_17  and  N_18
REMARK                            x       y       z     vdW  Elec       q    Type
REMARK                         _______ _______ _______ _____ _____    ______ ____
ROOT
ATOM      1  C   UNL     1       5.077   9.164   0.002  0.00  0.00    +0.007 A 
ATOM      2  C   UNL     1       3.888   9.898   0.016  0.00  0.00    +0.011 A 
ATOM      3  C   UNL     1       2.681   9.248   0.023  0.00  0.00    +0.010 A 
ATOM      4  C   UNL     1       2.640   7.850   0.017  0.00  0.00    -0.005 A 
ATOM      5  C   UNL     1       3.831   7.116   0.008  0.00  0.00    +0.010 A 
ATOM      6  C   UNL     1       5.037   7.767  -0.005  0.00  0.00    +0.011 A 
ENDROOT
BRANCH   1  10
ATOM      7  C   UNL     1       8.660  10.142  -0.025  0.00  0.00    +0.054 A 
ATOM      8  C   UNL     1       8.504  11.493  -0.017  0.00  0.00    +0.071 A 
ATOM      9  S   UNL     1       6.720  11.620  -0.007  0.00  0.00    -0.075 S 
ATOM     10  C   UNL     1       6.377   9.865  -0.006  0.00  0.00    +0.109 A 
ATOM     11  N   UNL     1       7.605   9.363  -0.019  0.00  0.00    -0.243 NA
BRANCH   7  13
ATOM     12  C   UNL     1      10.670   9.675   1.349  0.00  0.00    +0.017 C 
ATOM     13  C   UNL     1      10.042   9.542  -0.040  0.00  0.00    +0.005 C 
ATOM     14  C   UNL     1       9.951   8.063  -0.420  0.00  0.00    +0.017 C 
ATOM     15  C   UNL     1      10.907  10.279  -1.064  0.00  0.00    +0.017 C 
ENDBRANCH   7  13
ENDBRANCH   1  10
BRANCH   4  16
ATOM     16  C   UNL     1       1.344   7.150   0.025  0.00  0.00    +0.138 C 
ATOM     17  N   UNL     1       1.306   5.852   0.019  0.00  0.00    -0.189 NA
BRANCH  17  18
ATOM     18  N   UNL     1       0.073   5.187   0.027  0.00  0.00    -0.221 N 
ATOM     19  C   UNL     1       0.033   3.798   0.021  0.00  0.00    +0.138 A 
ATOM     20  C   UNL     1      -1.195   3.144   0.029  0.00  0.00    +0.045 A 
ATOM     21  C   UNL     1      -1.221   1.761   0.017  0.00  0.00    +0.005 A 
ATOM     22  C   UNL     1      -0.013   1.076   0.008  0.00  0.00    +0.020 A 
ATOM     23  C   UNL     1       1.169   1.789   0.001  0.00  0.00    +0.113 A 
ATOM     24  N   UNL     1       1.164   3.108   0.007  0.00  0.00    -0.239 NA
ATOM     25  H   UNL     1      -0.752   5.696   0.038  0.00  0.00    +0.176 HD
ENDBRANCH  17  18
ENDBRANCH   4  16
TORSDOF 4
