REMARK  Name = ZINC39674129
REMARK  7 active torsions:
REMARK  status: ('A' for Active; 'I' for Inactive)
REMARK    1  A    between atoms: C_1  and  C_2
REMARK    2  A    between atoms: C_4  and  C_9
REMARK    3  A    between atoms: C_5  and  C_8
REMARK    4  A    between atoms: C_9  and  C_11
REMARK    5  A    between atoms: C_9  and  N_12
REMARK    6  A    between atoms: C_13  and  C_15
REMARK    7  A    between atoms: C_26  and  C_28
REMARK                            x       y       z     vdW  Elec       q    Type
REMARK                         _______ _______ _______ _____ _____    ______ ____
ROOT
ATOM      1  C   UNL     1      -3.707  -0.708  -5.542  0.00  0.00    +0.100 C 
ATOM      2  C   UNL     1      -4.159  -2.072  -4.976  0.00  0.00    +0.121 C 
ATOM      3  N   UNL     1      -4.878  -2.723  -6.096  0.00  0.00    -0.296 N 
ATOM      4  C   UNL     1      -4.082  -2.373  -7.297  0.00  0.00    +0.115 C 
ATOM      5  C   UNL     1      -3.657  -0.909  -7.066  0.00  0.00    -0.004 C 
ATOM      6  C   UNL     1      -4.633   0.039  -7.756  0.00  0.00    -0.010 C 
ATOM      7  C   UNL     1      -4.524  -0.140  -9.273  0.00  0.00    -0.082 C 
ATOM      8  N   UNL     1      -3.149   0.141  -9.704  0.00  0.00    +0.379 N 
ATOM      9  C   UNL     1      -2.228  -0.834  -9.107  0.00  0.00    -0.082 C 
ATOM     10  C   UNL     1      -2.240  -0.684  -7.583  0.00  0.00    -0.010 C 
ATOM     11  C   UNL     1      -6.001  -3.466  -6.037  0.00  0.00    +0.248 C 
ATOM     12  O   UNL     1      -6.428  -4.003  -7.041  0.00  0.00    -0.270 OA
ATOM     13  H   UNL     1      -3.094   0.082 -10.709  0.00  0.00    -0.086 HD
ATOM     14  H   UNL     1      -2.889   1.071  -9.409  0.00  0.00    -0.086 HD
ENDROOT
BRANCH  11  15
ATOM     15  C   UNL     1      -6.713  -3.627  -4.753  0.00  0.00    +0.055 A 
ATOM     16  C   UNL     1      -5.997  -3.681  -3.555  0.00  0.00    +0.014 A 
ATOM     17  C   UNL     1      -6.668  -3.831  -2.360  0.00  0.00    +0.001 A 
ATOM     18  C   UNL     1      -8.049  -3.929  -2.345  0.00  0.00    +0.001 A 
ATOM     19  C   UNL     1      -8.766  -3.877  -3.526  0.00  0.00    +0.021 A 
ATOM     20  C   UNL     1      -8.107  -3.721  -4.731  0.00  0.00    +0.053 A 
ATOM     21 CL   UNL     1      -9.008  -3.648  -6.212  0.00  0.00    -0.083 Cl
ENDBRANCH  11  15
BRANCH   1  23
ATOM     22  N   UNL     1      -1.969   0.946  -4.937  0.00  0.00    -0.309 N 
ATOM     23  C   UNL     1      -2.342  -0.347  -5.015  0.00  0.00    +0.219 C 
ATOM     24  O   UNL     1      -1.579  -1.221  -4.662  0.00  0.00    -0.275 OA
ATOM     25  H   UNL     1      -2.580   1.644  -5.220  0.00  0.00    +0.149 HD
BRANCH  22  26
ATOM     26  C   UNL     1      -0.642   1.296  -4.425  0.00  0.00    +0.100 C 
ATOM     27  C   UNL     1       0.379   1.222  -5.563  0.00  0.00    +0.033 C 
BRANCH  26  30
ATOM     28  C   UNL     1      -0.197   4.256  -5.772  0.00  0.00    +0.039 C 
ATOM     29  C   UNL     1      -1.098   3.973  -4.568  0.00  0.00    +0.154 C 
ATOM     30  C   UNL     1      -0.672   2.695  -3.867  0.00  0.00    -0.001 C 
ATOM     31  C   UNL     1      -0.332   3.099  -2.641  0.00  0.00    +0.063 C 
ATOM     32  N   UNL     1      -0.494   4.435  -2.513  0.00  0.00    -0.159 NA
ATOM     33  N   UNL     1      -0.916   5.001  -3.529  0.00  0.00    -0.180 NA
ATOM     34  C   UNL     1       0.166   2.189  -1.548  0.00  0.00    +0.067 C 
ENDBRANCH  26  30
ENDBRANCH  22  26
ENDBRANCH   1  23
TORSDOF 4
