REMARK  Name = ZINC40376948
REMARK  9 active torsions:
REMARK  status: ('A' for Active; 'I' for Inactive)
REMARK    1  A    between atoms: C_1  and  C_2
REMARK    2  A    between atoms: C_2  and  C_3
REMARK    3  A    between atoms: C_3  and  C_4
REMARK    4  A    between atoms: C_3  and  C_6
REMARK    5  A    between atoms: C_3  and  N_10
REMARK    6  A    between atoms: C_4  and  C_5
REMARK    7  A    between atoms: N_7  and  O_8
REMARK    8  A    between atoms: N_10  and  S_11
REMARK    9  A    between atoms: S_11  and  N_14
REMARK                            x       y       z     vdW  Elec       q    Type
REMARK                         _______ _______ _______ _____ _____    ______ ____
ROOT
ATOM      1  C   UNL     1      -2.089  -0.284  -0.331  0.00  0.00    +0.098 C 
ENDROOT
BRANCH   1   2
ATOM      2  C   UNL     1      -2.710   0.935   0.300  0.00  0.00    +0.153 C 
ATOM      3  N   UNL     1      -3.801   0.826   0.982  0.00  0.00    -0.075 NA
ATOM      4  N   UNL     1      -2.113   2.167   0.150  0.00  0.00    -0.342 N 
ATOM      5  H   UNL     1      -1.336   2.263  -0.423  0.00  0.00    +0.144 HD
ATOM      6  H   UNL     1      -2.470   2.939   0.616  0.00  0.00    +0.144 HD
BRANCH   3   7
ATOM      7  O   UNL     1      -4.384   1.972   1.575  0.00  0.00    -0.408 OA
ATOM      8  H   UNL     1      -5.198   1.791   2.064  0.00  0.00    +0.328 HD
ENDBRANCH   3   7
ENDBRANCH   1   2
BRANCH   1  10
ATOM      9  C   UNL     1      -0.896  -0.837   1.794  0.00  0.00    +0.006 C 
ATOM     10  C   UNL     1      -0.721  -0.546   0.302  0.00  0.00    +0.028 C 
ENDBRANCH   1  10
BRANCH   1  11
ATOM     11  C   UNL     1      -2.997  -1.495  -0.101  0.00  0.00    +0.028 C 
ATOM     12  C   UNL     1      -4.318  -1.290  -0.845  0.00  0.00    +0.006 C 
ENDBRANCH   1  11
BRANCH   1  13
ATOM     13  N   UNL     1      -1.927  -0.061  -1.770  0.00  0.00    -0.166 NA
ATOM     14  H   UNL     1      -2.313   0.726  -2.185  0.00  0.00    +0.150 HD
BRANCH  13  15
ATOM     15  S   UNL     1      -1.087  -1.154  -2.687  0.00  0.00    +0.098 S 
ATOM     16  O   UNL     1      -1.195  -2.408  -2.027  0.00  0.00    -0.141 OA
ATOM     17  O   UNL     1      -1.505  -0.962  -4.032  0.00  0.00    -0.141 OA
BRANCH  15  18
ATOM     18  N   UNL     1       0.510  -0.722  -2.622  0.00  0.00    -0.167 NA
ATOM     19  C   UNL     1       0.983   0.500  -3.288  0.00  0.00    +0.110 C 
ATOM     20  C   UNL     1       1.738   1.358  -2.267  0.00  0.00    +0.017 C 
ATOM     21  C   UNL     1       2.847   0.522  -1.625  0.00  0.00    +0.003 C 
ATOM     22  C   UNL     1       2.231  -0.671  -0.892  0.00  0.00    +0.017 C 
ATOM     23  C   UNL     1       1.481  -1.549  -1.892  0.00  0.00    +0.110 C 
ENDBRANCH  15  18
ENDBRANCH  13  15
ENDBRANCH   1  13
TORSDOF 7
