REMARK  Name = ZINC15675781
REMARK  11 active torsions:
REMARK  status: ('A' for Active; 'I' for Inactive)
REMARK    1  A    between atoms: C_1  and  C_2
REMARK    2  A    between atoms: C_11  and  C_22
REMARK    3  A    between atoms: C_11  and  C_23
REMARK    4  A    between atoms: N_12  and  C_15
REMARK    5  A    between atoms: C_15  and  C_16
REMARK    6  A    between atoms: C_16  and  C_17
REMARK    7  A    between atoms: C_17  and  O_18
REMARK    8  A    between atoms: O_18  and  C_19
REMARK    9  A    between atoms: C_19  and  C_20
REMARK   10  A    between atoms: C_19  and  C_21
REMARK   11  A    between atoms: N_25  and  C_26
REMARK                            x       y       z     vdW  Elec       q    Type
REMARK                         _______ _______ _______ _____ _____    ______ ____
ROOT
ATOM      1  C   UNL     1      -1.861  -5.839   4.593  0.00  0.00    +0.086 C 
ATOM      2  C   UNL     1      -0.533  -5.150   4.410  0.00  0.00    +0.105 A 
ATOM      3  C   UNL     1       0.429  -5.535   3.554  0.00  0.00    +0.071 A 
ATOM      4  C   UNL     1       1.504  -4.625   3.693  0.00  0.00    +0.088 A 
ATOM      5  C   UNL     1       1.108  -3.704   4.663  0.00  0.00    +0.154 A 
ATOM      6  O   UNL     1      -0.128  -4.056   5.076  0.00  0.00    -0.458 OA
ATOM      7  C   UNL     1       2.152  -2.781   4.824  0.00  0.00    +0.079 A 
ATOM      8  C   UNL     1       3.150  -3.138   3.965  0.00  0.00    +0.109 A 
ATOM      9  N   UNL     1       2.754  -4.281   3.275  0.00  0.00    -0.331 N 
ATOM     10  C   UNL     1       3.628  -4.925   2.289  0.00  0.00    +0.157 C 
ATOM     11  C   UNL     1       4.525  -3.867   1.648  0.00  0.00    +0.128 C 
ATOM     12  N   UNL     1       5.138  -2.981   2.631  0.00  0.00    -0.281 N 
ATOM     13  C   UNL     1       4.451  -2.513   3.699  0.00  0.00    +0.264 C 
ATOM     14  O   UNL     1       4.890  -1.621   4.403  0.00  0.00    -0.268 OA
ATOM     15  C   UNL     1       5.633  -4.570   0.861  0.00  0.00    +0.043 C 
ENDROOT
BRANCH  11  16
ATOM     16  C   UNL     1       3.700  -3.042   0.694  0.00  0.00    +0.238 C 
ATOM     17  O   UNL     1       3.672  -3.324  -0.485  0.00  0.00    -0.273 OA
ATOM     18  N   UNL     1       2.994  -1.989   1.152  0.00  0.00    -0.311 N 
ATOM     19  H   UNL     1       3.016  -1.763   2.095  0.00  0.00    +0.149 HD
BRANCH  18  20
ATOM     20  C   UNL     1       2.192  -1.187   0.225  0.00  0.00    +0.073 C 
ATOM     21  C   UNL     1       1.056  -0.506   0.991  0.00  0.00    +0.022 C 
ATOM     22  C   UNL     1       0.002  -0.004   0.002  0.00  0.00    +0.002 C 
ATOM     23  C   UNL     1      -0.019   1.526   0.010  0.00  0.00    +0.000 C 
ATOM     24  C   UNL     1       1.417   2.055  -0.000  0.00  0.00    +0.000 C 
ATOM     25  C   UNL     1       2.003   1.910  -1.406  0.00  0.00    +0.000 C 
ATOM     26  C   UNL     1       2.370   0.447  -1.657  0.00  0.00    +0.002 C 
ATOM     27  C   UNL     1       3.077  -0.121  -0.425  0.00  0.00    +0.022 C 
ENDBRANCH  18  20
ENDBRANCH  11  16
BRANCH  12  28
ATOM     28  C   UNL     1       6.537  -2.584   2.456  0.00  0.00    +0.111 C 
BRANCH  28  29
ATOM     29  C   UNL     1       6.604  -1.302   1.624  0.00  0.00    +0.047 C 
BRANCH  29  30
ATOM     30  C   UNL     1       8.066  -0.888   1.442  0.00  0.00    +0.161 C 
BRANCH  30  31
ATOM     31  O   UNL     1       8.128   0.310   0.665  0.00  0.00    -0.377 OA
BRANCH  31  32
ATOM     32  C   UNL     1       9.456   0.784   0.435  0.00  0.00    +0.112 C 
ATOM     33  C   UNL     1      10.002   0.168  -0.854  0.00  0.00    +0.037 C 
ATOM     34  C   UNL     1       9.437   2.309   0.303  0.00  0.00    +0.037 C 
ENDBRANCH  31  32
ENDBRANCH  30  31
ENDBRANCH  29  30
ENDBRANCH  28  29
ENDBRANCH  12  28
TORSDOF 7
