REMARK  Name = ZINC63349499
REMARK  5 active torsions:
REMARK  status: ('A' for Active; 'I' for Inactive)
REMARK    1  A    between atoms: C_1  and  C_2
REMARK    2  A    between atoms: C_7  and  C_8
REMARK    3  A    between atoms: C_8  and  S_9
REMARK    4  A    between atoms: S_9  and  C_10
REMARK    5  A    between atoms: N_20  and  C_21
REMARK                            x       y       z     vdW  Elec       q    Type
REMARK                         _______ _______ _______ _____ _____    ______ ____
ROOT
ATOM      1  C   UNL     1      -1.508   1.218   4.613  0.00  0.00    +0.258 C 
ATOM      2  N   UNL     1      -0.750   2.456   4.401  0.00  0.00    -0.242 NA
ATOM      3  C   UNL     1       0.321   2.414   5.119  0.00  0.00    +0.165 C 
ATOM      4  C   UNL     1       0.373   1.138   5.878  0.00  0.00    +0.160 C 
ATOM      5  N   UNL     1       1.411   0.930   6.669  0.00  0.00    -0.221 NA
ATOM      6  C   UNL     1       2.382   1.820   6.793  0.00  0.00    +0.213 C 
ATOM      7  N   UNL     1       2.428   2.971   6.169  0.00  0.00    -0.163 NA
ATOM      8  C   UNL     1       1.459   3.356   5.322  0.00  0.00    +0.290 C 
ATOM      9  O   UNL     1       1.508   4.427   4.744  0.00  0.00    -0.266 OA
ATOM     10  N   UNL     1      -0.738   0.412   5.571  0.00  0.00    -0.252 N 
ENDROOT
BRANCH  10  11
ATOM     11  C   UNL     1      -1.078  -0.848   6.067  0.00  0.00    +0.038 A 
ATOM     12  C   UNL     1      -2.251  -1.467   5.651  0.00  0.00    +0.023 A 
ATOM     13  C   UNL     1      -2.584  -2.713   6.144  0.00  0.00    +0.002 A 
ATOM     14  C   UNL     1      -1.752  -3.345   7.050  0.00  0.00    +0.000 A 
ATOM     15  C   UNL     1      -0.585  -2.732   7.467  0.00  0.00    +0.002 A 
ATOM     16  C   UNL     1      -0.242  -1.488   6.973  0.00  0.00    +0.023 A 
ENDBRANCH  10  11
BRANCH   1  17
ATOM     17  S   UNL     1      -1.684   0.321   3.046  0.00  0.00    -0.110 S 
BRANCH  17  18
ATOM     18  C   UNL     1       0.025   0.045   2.504  0.00  0.00    +0.108 C 
BRANCH  18  25
ATOM     19  C   UNL     1      -0.018   1.503   0.010  0.00  0.00    +0.044 C 
ATOM     20  C   UNL     1       0.002  -0.004   0.002  0.00  0.00    -0.046 A 
ATOM     21  C   UNL     1       0.006  -0.689  -1.199  0.00  0.00    +0.003 A 
ATOM     22  C   UNL     1       0.025  -2.071  -1.207  0.00  0.00    +0.000 A 
ATOM     23  C   UNL     1       0.040  -2.768  -0.013  0.00  0.00    +0.000 A 
ATOM     24  C   UNL     1       0.037  -2.084   1.188  0.00  0.00    +0.005 A 
ATOM     25  C   UNL     1       0.023  -0.702   1.195  0.00  0.00    -0.035 A 
ENDBRANCH  18  25
ENDBRANCH  17  18
ENDBRANCH   1  17
TORSDOF 4
