REMARK  Name = ZINC36028128
REMARK  15 active torsions:
REMARK  status: ('A' for Active; 'I' for Inactive)
REMARK    1  A    between atoms: C_1  and  C_2
REMARK    2  A    between atoms: C_2  and  C_3
REMARK    3  A    between atoms: C_3  and  S_4
REMARK    4  A    between atoms: S_4  and  N_7
REMARK    5  A    between atoms: C_14  and  C_31
REMARK    6  A    between atoms: N_18  and  C_19
REMARK    7  A    between atoms: C_19  and  C_20
REMARK    8  A    between atoms: C_20  and  C_21
REMARK    9  A    between atoms: C_24  and  O_29
REMARK   10  A    between atoms: C_25  and  O_27
REMARK   11  A    between atoms: O_27  and  C_28
REMARK   12  A    between atoms: O_29  and  C_30
REMARK   13  A    between atoms: C_31  and  C_33
REMARK   14  A    between atoms: C_31  and  C_34
REMARK   15  A    between atoms: C_34  and  C_35
REMARK                            x       y       z     vdW  Elec       q    Type
REMARK                         _______ _______ _______ _____ _____    ______ ____
ROOT
ATOM      1  N   UNL     1      -3.151  -2.732  -0.345  0.00  0.00    -0.181 NA
ATOM      2  C   UNL     1      -3.744  -2.866   0.992  0.00  0.00    +0.109 C 
ATOM      3  C   UNL     1      -5.046  -2.059   1.036  0.00  0.00    +0.023 C 
ATOM      4  C   UNL     1      -5.955  -2.499  -0.110  0.00  0.00    +0.006 C 
ATOM      5  C   UNL     1      -5.272  -2.254  -1.454  0.00  0.00    +0.023 C 
ATOM      6  C   UNL     1      -3.974  -3.057  -1.519  0.00  0.00    +0.109 C 
ATOM      7  N   UNL     1      -7.229  -1.751  -0.053  0.00  0.00    +0.401 N 
ATOM      8  C   UNL     1      -8.221  -2.739  -0.541  0.00  0.00    +0.022 C 
ATOM      9  C   UNL     1      -7.615  -4.087  -0.217  0.00  0.00    +0.201 C 
ATOM     10  O   UNL     1      -8.211  -5.143  -0.187  0.00  0.00    -0.277 OA
ATOM     11  N   UNL     1      -6.300  -3.916   0.032  0.00  0.00    -0.313 N 
ATOM     12  H   UNL     1      -7.437  -1.474   0.894  0.00  0.00    -0.082 HD
ATOM     13  H   UNL     1      -7.197  -0.947  -0.662  0.00  0.00    -0.082 HD
ENDROOT
BRANCH   1  14
ATOM     14  S   UNL     1      -1.587  -2.220  -0.527  0.00  0.00    +0.032 S 
ATOM     15  O   UNL     1      -1.167  -2.770  -1.769  0.00  0.00    -0.158 OA
ATOM     16  O   UNL     1      -0.942  -2.589   0.684  0.00  0.00    -0.158 OA
BRANCH  14  17
ATOM     17  C   UNL     1      -1.699  -0.414  -0.650  0.00  0.00    +0.185 C 
BRANCH  17  19
ATOM     18  C   UNL     1      -0.392   1.697  -0.926  0.00  0.00    +0.005 C 
ATOM     19  C   UNL     1      -0.297   0.174  -0.823  0.00  0.00    +0.021 C 
ENDBRANCH  17  19
ENDBRANCH  14  17
ENDBRANCH   1  14
BRANCH   8  20
ATOM     20  C   UNL     1      -9.553  -2.561   0.190  0.00  0.00    -0.020 C 
ATOM     21  C   UNL     1      -9.342  -2.766   1.692  0.00  0.00    +0.006 C 
BRANCH  20  22
ATOM     22  C   UNL     1     -10.561  -3.589  -0.328  0.00  0.00    -0.001 C 
ATOM     23  C   UNL     1     -11.927  -3.332   0.311  0.00  0.00    +0.004 C 
ENDBRANCH  20  22
ENDBRANCH   8  20
BRANCH  11  24
ATOM     24  C   UNL     1      -5.362  -4.983   0.389  0.00  0.00    +0.110 C 
BRANCH  24  25
ATOM     25  C   UNL     1      -5.366  -5.180   1.907  0.00  0.00    +0.054 C 
BRANCH  25  26
ATOM     26  C   UNL     1      -4.390  -6.267   2.275  0.00  0.00    -0.042 A 
ATOM     27  C   UNL     1      -4.811  -7.582   2.330  0.00  0.00    +0.007 A 
ATOM     28  C   UNL     1      -3.919  -8.583   2.668  0.00  0.00    +0.049 A 
ATOM     29  C   UNL     1      -2.599  -8.269   2.952  0.00  0.00    +0.161 A 
ATOM     30  C   UNL     1      -2.176  -6.944   2.896  0.00  0.00    +0.162 A 
ATOM     31  C   UNL     1      -3.074  -5.947   2.552  0.00  0.00    +0.053 A 
BRANCH  30  32
ATOM     32  O   UNL     1      -0.882  -6.631   3.174  0.00  0.00    -0.491 OA
ATOM     33  C   UNL     1      -0.518  -5.251   3.097  0.00  0.00    +0.277 C 
ENDBRANCH  30  32
BRANCH  29  34
ATOM     34  O   UNL     1      -1.721  -9.252   3.285  0.00  0.00    -0.491 OA
ATOM     35  C   UNL     1      -2.227 -10.588   3.322  0.00  0.00    +0.277 C 
ENDBRANCH  29  34
ENDBRANCH  25  26
ENDBRANCH  24  25
ENDBRANCH  11  24
TORSDOF 10
