REMARK  Name = ZINC65298388
REMARK  11 active torsions:
REMARK  status: ('A' for Active; 'I' for Inactive)
REMARK    1  A    between atoms: C_1  and  C_2
REMARK    2  A    between atoms: C_2  and  N_3
REMARK    3  A    between atoms: C_10  and  C_24
REMARK    4  A    between atoms: C_13  and  C_15
REMARK    5  A    between atoms: C_18  and  O_21
REMARK    6  A    between atoms: O_21  and  C_22
REMARK    7  A    between atoms: C_22  and  C_23
REMARK    8  A    between atoms: C_28  and  O_31
REMARK    9  A    between atoms: C_29  and  O_30
REMARK   10  A    between atoms: O_31  and  C_32
REMARK   11  A    between atoms: C_32  and  C_33
REMARK                            x       y       z     vdW  Elec       q    Type
REMARK                         _______ _______ _______ _____ _____    ______ ____
ROOT
ATOM      1  N   UNL     1       0.690  -0.478  -1.207  0.00  0.00    +0.380 N 
ATOM      2  C   UNL     1       2.096  -0.062  -1.162  0.00  0.00    -0.075 C 
ATOM      3  C   UNL     1       2.799  -0.484  -2.454  0.00  0.00    +0.027 C 
ATOM      4  C   UNL     1       2.722  -2.008  -2.595  0.00  0.00    +0.109 C 
ATOM      5  C   UNL     1       1.250  -2.435  -2.570  0.00  0.00    +0.027 C 
ATOM      6  C   UNL     1       0.605  -1.942  -1.274  0.00  0.00    -0.075 C 
ATOM      7  N   UNL     1       3.320  -2.406  -3.876  0.00  0.00    -0.286 NA
ATOM      8  C   UNL     1       4.775  -2.178  -3.850  0.00  0.00    +0.095 C 
ATOM      9  C   UNL     1       5.395  -3.159  -2.850  0.00  0.00    +0.079 C 
ATOM     10  C   UNL     1       4.602  -3.142  -1.573  0.00  0.00    +0.047 C 
ATOM     11  N   UNL     1       3.430  -2.636  -1.484  0.00  0.00    -0.266 NA
ATOM     12  H   UNL     1       3.109  -3.369  -4.090  0.00  0.00    +0.125 HD
ATOM     13  H   UNL     1       0.249  -0.078  -2.022  0.00  0.00    -0.082 HD
ENDROOT
BRANCH  10  14
ATOM     14  C   UNL     1       5.204  -3.736  -0.365  0.00  0.00    -0.004 A 
ATOM     15  C   UNL     1       6.485  -4.293  -0.422  0.00  0.00    +0.013 A 
ATOM     16  C   UNL     1       7.043  -4.846   0.709  0.00  0.00    +0.046 A 
ATOM     17  C   UNL     1       6.335  -4.852   1.905  0.00  0.00    +0.121 A 
ATOM     18  C   UNL     1       5.061  -4.299   1.965  0.00  0.00    +0.046 A 
ATOM     19  C   UNL     1       4.498  -3.738   0.841  0.00  0.00    +0.013 A 
BRANCH  17  20
ATOM     20  O   UNL     1       6.889  -5.398   3.017  0.00  0.00    -0.492 OA
BRANCH  20  21
ATOM     21  C   UNL     1       6.107  -5.370   4.212  0.00  0.00    +0.225 C 
ATOM     22  C   UNL     1       6.891  -6.027   5.351  0.00  0.00    +0.048 C 
ENDBRANCH  20  21
ENDBRANCH  17  20
ENDBRANCH  10  14
BRANCH   8  23
ATOM     23  C   UNL     1       5.352  -2.415  -5.222  0.00  0.00    +0.015 A 
ATOM     24  C   UNL     1       4.648  -3.162  -6.148  0.00  0.00    +0.009 A 
ATOM     25  C   UNL     1       5.174  -3.381  -7.407  0.00  0.00    +0.004 A 
ATOM     26  C   UNL     1       6.407  -2.855  -7.746  0.00  0.00    +0.049 A 
ATOM     27  C   UNL     1       7.117  -2.106  -6.823  0.00  0.00    +0.162 A 
ATOM     28  C   UNL     1       6.585  -1.880  -5.557  0.00  0.00    +0.163 A 
BRANCH  28  29
ATOM     29  O   UNL     1       7.276  -1.140  -4.649  0.00  0.00    -0.503 OA
ATOM     30  H   UNL     1       7.874  -1.658  -4.092  0.00  0.00    +0.292 HD
ENDBRANCH  28  29
BRANCH  27  31
ATOM     31  O   UNL     1       8.330  -1.587  -7.154  0.00  0.00    -0.489 OA
BRANCH  31  32
ATOM     32  C   UNL     1       8.812  -1.855  -8.473  0.00  0.00    +0.226 C 
ATOM     33  C   UNL     1      10.180  -1.196  -8.660  0.00  0.00    +0.048 C 
ENDBRANCH  31  32
ENDBRANCH  27  31
ENDBRANCH   8  23
BRANCH   1  35
ATOM     34  C   UNL     1      -0.019   1.526   0.010  0.00  0.00    -0.017 C 
ATOM     35  C   UNL     1       0.002  -0.004   0.002  0.00  0.00    -0.082 C 
ENDBRANCH   1  35
TORSDOF 8
