REMARK  Name = ZINC39462580
REMARK  5 active torsions:
REMARK  status: ('A' for Active; 'I' for Inactive)
REMARK    1  A    between atoms: C_3  and  N_8
REMARK    2  A    between atoms: C_9  and  N_30
REMARK    3  A    between atoms: C_13  and  S_15
REMARK    4  A    between atoms: S_15  and  C_16
REMARK    5  A    between atoms: C_16  and  C_17
REMARK                            x       y       z     vdW  Elec       q    Type
REMARK                         _______ _______ _______ _____ _____    ______ ____
ROOT
ATOM      1  N   UNL     1       3.675   2.258  -0.230  0.00  0.00    -0.304 N 
ATOM      2  C   UNL     1       4.946   1.562   0.060  0.00  0.00    +0.105 C 
ATOM      3  N   UNL     1       5.995   2.517  -0.382  0.00  0.00    -0.251 NA
ATOM      4  N   UNL     1       5.437   3.823   0.004  0.00  0.00    -0.228 NA
ATOM      5  C   UNL     1       3.988   3.697  -0.273  0.00  0.00    +0.216 C 
ATOM      6  H   UNL     1       6.867   2.342   0.095  0.00  0.00    +0.140 HD
ATOM      7  H   UNL     1       5.608   4.015   0.979  0.00  0.00    +0.143 HD
ENDROOT
BRANCH   1  10
ATOM      8  C   UNL     1       0.152   1.820  -1.181  0.00  0.00    +0.003 A 
ATOM      9  C   UNL     1       1.387   2.407  -0.983  0.00  0.00    +0.023 A 
ATOM     10  C   UNL     1       2.425   1.667  -0.431  0.00  0.00    +0.033 A 
ATOM     11  C   UNL     1       2.218   0.340  -0.079  0.00  0.00    +0.043 A 
ATOM     12  C   UNL     1       0.981  -0.241  -0.279  0.00  0.00    +0.043 A 
ATOM     13  C   UNL     1      -0.052   0.499  -0.829  0.00  0.00    +0.020 A 
ATOM     14 CL   UNL     1       0.720  -1.900   0.160  0.00  0.00    -0.083 Cl
ENDBRANCH   1  10
BRANCH   2  15
ATOM     15  N   UNL     1       5.032   0.310  -0.704  0.00  0.00    +0.401 N 
ATOM     16  C   UNL     1       4.911   0.588  -2.158  0.00  0.00    -0.074 C 
ATOM     17  C   UNL     1       5.566  -0.655  -2.812  0.00  0.00    -0.020 C 
ATOM     18  C   UNL     1       6.743  -0.966  -1.860  0.00  0.00    -0.020 C 
ATOM     19  C   UNL     1       6.363  -0.308  -0.521  0.00  0.00    -0.074 C 
ATOM     20  H   UNL     1       4.308  -0.328  -0.409  0.00  0.00    -0.077 HD
ENDBRANCH   2  15
BRANCH   5  21
ATOM     21  S   UNL     1       3.038   4.577   0.997  0.00  0.00    -0.114 S 
BRANCH  21  22
ATOM     22  C   UNL     1       3.573   3.815   2.553  0.00  0.00    +0.146 C 
BRANCH  22  23
ATOM     23  C   UNL     1       2.850   4.463   3.705  0.00  0.00    +0.120 A 
ATOM     24  N   UNL     1       3.122   4.029   4.964  0.00  0.00    -0.310 N 
ATOM     25  H   UNL     1       3.769   3.318   5.098  0.00  0.00    +0.170 HD
ATOM     26  C   UNL     1       2.500   4.579   6.032  0.00  0.00    +0.259 A 
ATOM     27  O   UNL     1       2.734   4.200   7.165  0.00  0.00    -0.267 OA
ATOM     28  C   UNL     1       1.529   5.653   5.771  0.00  0.00    +0.066 A 
ATOM     29  C   UNL     1       0.835   6.284   6.801  0.00  0.00    +0.035 A 
ATOM     30  C   UNL     1      -0.064   7.285   6.500  0.00  0.00    +0.042 A 
ATOM     31  C   UNL     1      -0.281   7.666   5.181  0.00  0.00    +0.022 A 
ATOM     32  C   UNL     1       0.395   7.054   4.150  0.00  0.00    +0.030 A 
ATOM     33  C   UNL     1       1.311   6.038   4.430  0.00  0.00    +0.078 A 
ATOM     34  N   UNL     1       2.003   5.412   3.445  0.00  0.00    -0.233 NA
ATOM     35 CL   UNL     1      -0.933   8.076   7.778  0.00  0.00    -0.084 Cl
ENDBRANCH  22  23
ENDBRANCH  21  22
ENDBRANCH   5  21
TORSDOF 5
