REMARK  Name = ZINC33129120
REMARK  8 active torsions:
REMARK  status: ('A' for Active; 'I' for Inactive)
REMARK    1  A    between atoms: C_1  and  C_2
REMARK    2  A    between atoms: C_5  and  N_9
REMARK    3  A    between atoms: C_6  and  C_8
REMARK    4  A    between atoms: C_10  and  C_12
REMARK    5  A    between atoms: C_12  and  C_14
REMARK    6  A    between atoms: C_12  and  N_15
REMARK    7  A    between atoms: N_15  and  S_16
REMARK    8  A    between atoms: S_16  and  C_19
REMARK                            x       y       z     vdW  Elec       q    Type
REMARK                         _______ _______ _______ _____ _____    ______ ____
ROOT
ATOM      1  S   UNL     1       4.492  -3.351   1.198  0.00  0.00    +0.059 S 
ATOM      2  O   UNL     1       3.988  -4.677   1.106  0.00  0.00    -0.153 OA
ATOM      3  O   UNL     1       5.825  -3.016   0.840  0.00  0.00    -0.153 OA
ENDROOT
BRANCH   1   4
ATOM      4  C   UNL     1       4.279  -2.847   2.873  0.00  0.00    +0.106 A 
ATOM      5  C   UNL     1       5.082  -1.855   3.406  0.00  0.00    +0.030 A 
ATOM      6  C   UNL     1       4.914  -1.455   4.714  0.00  0.00    +0.026 A 
ATOM      7  C   UNL     1       3.941  -2.056   5.515  0.00  0.00    +0.041 A 
ATOM      8  C   UNL     1       3.145  -3.052   4.974  0.00  0.00    -0.023 A 
ATOM      9  C   UNL     1       3.313  -3.446   3.660  0.00  0.00    +0.034 A 
ATOM     10  C   UNL     1       2.183  -3.531   6.037  0.00  0.00    +0.056 C 
ATOM     11  C   UNL     1       2.520  -2.683   7.274  0.00  0.00    +0.120 C 
ATOM     12  N   UNL     1       3.615  -1.806   6.852  0.00  0.00    -0.255 N 
ATOM     13  C   UNL     1       4.219  -0.892   7.637  0.00  0.00    +0.309 C 
ATOM     14  O   UNL     1       5.058  -0.147   7.168  0.00  0.00    -0.252 OA
ATOM     15  N   UNL     1       3.893  -0.803   8.942  0.00  0.00    -0.285 N 
ATOM     16  C   UNL     1       2.825  -1.560   9.612  0.00  0.00    +0.109 C 
ATOM     17  C   UNL     1       2.805  -1.114  11.089  0.00  0.00    +0.020 C 
ATOM     18  C   UNL     1       3.479   0.283  11.037  0.00  0.00    +0.020 C 
ATOM     19  C   UNL     1       4.544   0.074   9.932  0.00  0.00    +0.109 C 
ENDBRANCH   1   4
BRANCH   1  20
ATOM     20  N   UNL     1       3.500  -2.402   0.272  0.00  0.00    -0.178 NA
ATOM     21  H   UNL     1       2.572  -2.831  -0.135  0.00  0.00    +0.149 HD
BRANCH  20  22
ATOM     22  C   UNL     1       3.742  -0.961   0.179  0.00  0.00    +0.159 C 
ATOM     23  C   UNL     1       4.582  -0.663  -1.065  0.00  0.00    +0.035 C 
BRANCH  22  25
ATOM     24  N   UNL     1       2.401   1.109  -0.013  0.00  0.00    -0.284 N 
ATOM     25  C   UNL     1       2.425  -0.235   0.082  0.00  0.00    +0.236 C 
ATOM     26  O   UNL     1       1.386  -0.861   0.089  0.00  0.00    -0.274 OA
ATOM     27  H   UNL     1       3.343   1.671  -0.094  0.00  0.00    +0.155 HD
BRANCH  24  32
ATOM     28  C   UNL     1      -2.556   3.867   0.003  0.00  0.00    +0.044 C 
ATOM     29  C   UNL     1      -1.239   3.134  -0.001  0.00  0.00    -0.050 A 
ATOM     30  C   UNL     1      -1.142   1.895  -0.606  0.00  0.00    +0.005 A 
ATOM     31  C   UNL     1       0.062   1.218  -0.607  0.00  0.00    +0.024 A 
ATOM     32  C   UNL     1       1.179   1.789  -0.009  0.00  0.00    +0.036 A 
ATOM     33  C   UNL     1       1.078   3.036   0.593  0.00  0.00    -0.029 A 
ATOM     34  C   UNL     1      -0.131   3.705   0.596  0.00  0.00    +0.008 A 
ATOM     35  C   UNL     1       2.286   3.659   1.244  0.00  0.00    +0.045 C 
ENDBRANCH  24  32
ENDBRANCH  22  25
ENDBRANCH  20  22
ENDBRANCH   1  20
TORSDOF 5
