REMARK  Name = ZINC39936983
REMARK  9 active torsions:
REMARK  status: ('A' for Active; 'I' for Inactive)
REMARK    1  A    between atoms: C_1  and  C_2
REMARK    2  A    between atoms: C_2  and  C_3
REMARK    3  A    between atoms: C_2  and  N_4
REMARK    4  A    between atoms: N_4  and  C_5
REMARK    5  A    between atoms: C_10  and  N_11
REMARK    6  A    between atoms: C_17  and  C_19
REMARK    7  A    between atoms: C_23  and  N_29
REMARK    8  A    between atoms: N_29  and  S_30
REMARK    9  A    between atoms: S_30  and  C_33
REMARK                            x       y       z     vdW  Elec       q    Type
REMARK                         _______ _______ _______ _____ _____    ______ ____
ROOT
ATOM      1  N   UNL     1      -4.279  -1.846   0.670  0.00  0.00    -0.312 N 
ATOM      2  C   UNL     1      -4.170  -0.460   1.145  0.00  0.00    +0.125 C 
ATOM      3  C   UNL     1      -4.957   0.449   0.193  0.00  0.00    +0.127 C 
ATOM      4  N   UNL     1      -6.294  -0.128  -0.008  0.00  0.00    -0.293 N 
ATOM      5  C   UNL     1      -6.404  -1.514  -0.483  0.00  0.00    +0.127 C 
ATOM      6  C   UNL     1      -5.616  -2.421   0.464  0.00  0.00    +0.125 C 
ATOM      7  C   UNL     1      -7.400   0.602   0.240  0.00  0.00    +0.265 C 
ATOM      8  O   UNL     1      -8.496   0.075   0.210  0.00  0.00    -0.268 OA
ENDROOT
BRANCH   7   9
ATOM      9  C   UNL     1      -7.282   2.038   0.548  0.00  0.00    +0.127 C 
ATOM     10  C   UNL     1      -8.326   2.842   0.957  0.00  0.00    +0.042 C 
ATOM     11  C   UNL     1      -7.742   4.172   1.141  0.00  0.00    +0.000 C 
ATOM     12  C   UNL     1      -8.228   5.375   1.522  0.00  0.00    +0.007 C 
ATOM     13  C   UNL     1      -7.286   6.555   1.593  0.00  0.00    +0.122 C 
ATOM     14  C   UNL     1      -5.834   6.354   1.236  0.00  0.00    -0.001 C 
ATOM     15  C   UNL     1      -5.398   5.154   0.865  0.00  0.00    +0.026 C 
ATOM     16  C   UNL     1      -6.313   4.007   0.796  0.00  0.00    +0.071 C 
ATOM     17  N   UNL     1      -6.140   2.744   0.473  0.00  0.00    -0.242 NA
BRANCH  13  18
ATOM     18  N   UNL     1      -7.816   7.597   0.710  0.00  0.00    -0.184 NA
ATOM     19  H   UNL     1      -8.266   7.352  -0.114  0.00  0.00    +0.149 HD
BRANCH  18  20
ATOM     20  S   UNL     1      -7.649   9.193   1.119  0.00  0.00    +0.027 S 
ATOM     21  O   UNL     1      -8.288   9.905   0.069  0.00  0.00    -0.158 OA
ATOM     22  O   UNL     1      -8.133   9.278   2.452  0.00  0.00    -0.158 OA
ATOM     23  C   UNL     1      -5.861   9.498   1.083  0.00  0.00    +0.214 C 
ENDBRANCH  18  20
ENDBRANCH  13  18
ENDBRANCH   7   9
BRANCH   1  29
ATOM     24  C   UNL     1      -2.620  -3.435   1.407  0.00  0.00    +0.066 A 
ATOM     25  C   UNL     1      -1.483  -4.183   1.133  0.00  0.00    +0.028 A 
ATOM     26  C   UNL     1      -0.901  -4.066  -0.122  0.00  0.00    +0.019 A 
ATOM     27  C   UNL     1      -1.464  -3.217  -1.053  0.00  0.00    +0.084 A 
ATOM     28  N   UNL     1      -2.546  -2.516  -0.767  0.00  0.00    -0.348 N 
ATOM     29  C   UNL     1      -3.137  -2.600   0.414  0.00  0.00    +0.120 A 
ATOM     30  H   UNL     1      -2.919  -1.927  -1.441  0.00  0.00    +0.167 HD
BRANCH  24  31
ATOM     31  N   UNL     1      -3.242  -3.520   2.659  0.00  0.00    -0.339 N 
ATOM     32  H   UNL     1      -4.003  -2.954   2.862  0.00  0.00    +0.146 HD
BRANCH  31  34
ATOM     33  C   UNL     1      -3.122  -3.970   5.060  0.00  0.00    +0.027 C 
ATOM     34  C   UNL     1      -2.744  -4.464   3.662  0.00  0.00    +0.064 C 
ATOM     35  C   UNL     1      -3.368  -5.840   3.421  0.00  0.00    +0.027 C 
ENDBRANCH  31  34
ENDBRANCH  24  31
ENDBRANCH   1  29
TORSDOF 6
