REMARK  Name = ZINC34787433
REMARK  14 active torsions:
REMARK  status: ('A' for Active; 'I' for Inactive)
REMARK    1  A    between atoms: C_1  and  C_2
REMARK    2  A    between atoms: C_2  and  C_3
REMARK    3  A    between atoms: C_4  and  C_38
REMARK    4  A    between atoms: C_8  and  N_19
REMARK    5  A    between atoms: C_13  and  C_18
REMARK    6  A    between atoms: C_15  and  C_17
REMARK    7  A    between atoms: N_19  and  N_20
REMARK    8  A    between atoms: N_19  and  N_29
REMARK    9  A    between atoms: N_20  and  C_21
REMARK   10  A    between atoms: C_24  and  O_27
REMARK   11  A    between atoms: O_27  and  C_28
REMARK   12  A    between atoms: N_29  and  C_30
REMARK   13  A    between atoms: C_33  and  O_36
REMARK   14  A    between atoms: O_36  and  C_37
REMARK                            x       y       z     vdW  Elec       q    Type
REMARK                         _______ _______ _______ _____ _____    ______ ____
ROOT
ATOM      1  N   UNL     1       0.732   0.578  -3.053  0.00  0.00    -0.151 N 
ENDROOT
BRANCH   1   7
ATOM      2  C   UNL     1       2.483   0.905  -5.529  0.00  0.00    -0.025 A 
ATOM      3  C   UNL     1       3.084   0.982  -6.726  0.00  0.00    -0.007 A 
ATOM      4  S   UNL     1       1.803   0.498  -7.867  0.00  0.00    -0.073 S 
ATOM      5  C   UNL     1       0.495   0.205  -6.706  0.00  0.00    +0.116 A 
ATOM      6  C   UNL     1       1.094   0.487  -5.458  0.00  0.00    +0.054 A 
ATOM      7  C   UNL     1       0.251   0.325  -4.324  0.00  0.00    +0.170 A 
ATOM      8  N   UNL     1      -0.999  -0.071  -4.499  0.00  0.00    -0.192 NA
ATOM      9  C   UNL     1      -1.497  -0.323  -5.702  0.00  0.00    +0.254 A 
ATOM     10  N   UNL     1      -0.762  -0.181  -6.795  0.00  0.00    -0.203 NA
ATOM     11  N   UNL     1      -2.824  -0.738  -5.820  0.00  0.00    -0.202 N 
ATOM     12  C   UNL     1      -3.470  -1.038  -6.977  0.00  0.00    +0.045 A 
ATOM     13  C   UNL     1      -4.735  -1.395  -6.659  0.00  0.00    +0.048 A 
ATOM     14  C   UNL     1      -4.870  -1.313  -5.268  0.00  0.00    +0.061 A 
ATOM     15  N   UNL     1      -3.727  -0.926  -4.765  0.00  0.00    -0.169 NA
ATOM     16  C   UNL     1      -6.119  -1.623  -4.484  0.00  0.00    +0.067 C 
ATOM     17  C   UNL     1      -2.883  -0.982  -8.364  0.00  0.00    +0.066 C 
ATOM     18  C   UNL     1       4.503   1.384  -7.033  0.00  0.00    +0.052 C 
BRANCH   2  20
ATOM     19  C   UNL     1       3.602  -0.049  -3.532  0.00  0.00    +0.009 C 
ATOM     20  C   UNL     1       3.243   1.241  -4.272  0.00  0.00    +0.033 C 
ENDBRANCH   2  20
ENDBRANCH   1   7
BRANCH   1  21
ATOM     21  N   UNL     1       1.523   1.710  -2.816  0.00  0.00    -0.246 N 
ATOM     22  H   UNL     1       2.397   1.614  -2.408  0.00  0.00    +0.172 HD
BRANCH  21  23
ATOM     23  C   UNL     1       1.050   2.979  -3.168  0.00  0.00    +0.046 A 
ATOM     24  C   UNL     1      -0.204   3.118  -3.747  0.00  0.00    +0.028 A 
ATOM     25  C   UNL     1      -0.670   4.371  -4.093  0.00  0.00    +0.047 A 
ATOM     26  C   UNL     1       0.115   5.491  -3.864  0.00  0.00    +0.120 A 
ATOM     27  C   UNL     1       1.369   5.354  -3.286  0.00  0.00    +0.047 A 
ATOM     28  C   UNL     1       1.833   4.102  -2.933  0.00  0.00    +0.028 A 
BRANCH  26  29
ATOM     29  O   UNL     1      -0.344   6.724  -4.205  0.00  0.00    -0.495 OA
ATOM     30  C   UNL     1       0.517   7.834  -3.940  0.00  0.00    +0.277 C 
ENDBRANCH  26  29
ENDBRANCH  21  23
ENDBRANCH   1  21
BRANCH   1  31
ATOM     31  N   UNL     1       0.430  -0.298  -2.002  0.00  0.00    -0.246 N 
ATOM     32  H   UNL     1      -0.167  -0.016  -1.292  0.00  0.00    +0.172 HD
BRANCH  31  33
ATOM     33  C   UNL     1       0.990  -1.580  -1.977  0.00  0.00    +0.046 A 
ATOM     34  C   UNL     1       0.533  -2.555  -2.854  0.00  0.00    +0.028 A 
ATOM     35  C   UNL     1       1.086  -3.821  -2.828  0.00  0.00    +0.047 A 
ATOM     36  C   UNL     1       2.099  -4.117  -1.928  0.00  0.00    +0.120 A 
ATOM     37  C   UNL     1       2.555  -3.144  -1.051  0.00  0.00    +0.047 A 
ATOM     38  C   UNL     1       2.007  -1.877  -1.079  0.00  0.00    +0.028 A 
BRANCH  36  39
ATOM     39  O   UNL     1       2.643  -5.363  -1.903  0.00  0.00    -0.495 OA
ATOM     40  C   UNL     1       3.681  -5.599  -0.950  0.00  0.00    +0.277 C 
ENDBRANCH  36  39
ENDBRANCH  31  33
ENDBRANCH   1  31
TORSDOF 8
