REMARK  Name = ZINC43526611
REMARK  6 active torsions:
REMARK  status: ('A' for Active; 'I' for Inactive)
REMARK    1  A    between atoms: C_1  and  N_2
REMARK    2  A    between atoms: C_3  and  C_17
REMARK    3  A    between atoms: C_5  and  C_7
REMARK    4  A    between atoms: C_26  and  C_28
REMARK    5  A    between atoms: C_28  and  N_29
REMARK    6  A    between atoms: N_32  and  C_33
REMARK                            x       y       z     vdW  Elec       q    Type
REMARK                         _______ _______ _______ _____ _____    ______ ____
ROOT
ATOM      1  C   UNL     1      -0.023  -0.278  -2.551  0.00  0.00    +0.024 C 
ATOM      2  C   UNL     1       1.418  -0.114  -3.039  0.00  0.00    -0.068 C 
ATOM      3  N   UNL     1       1.662  -0.991  -4.186  0.00  0.00    +0.383 N 
ATOM      4  C   UNL     1       1.484  -2.395  -3.809  0.00  0.00    -0.078 C 
ATOM      5  C   UNL     1       0.045  -2.635  -3.347  0.00  0.00    -0.015 C 
ATOM      6  C   UNL     1      -0.733  -1.312  -3.434  0.00  0.00    -0.007 C 
ATOM      7  C   UNL     1      -0.686  -0.821  -4.887  0.00  0.00    -0.010 C 
ATOM      8  C   UNL     1       0.779  -0.640  -5.301  0.00  0.00    -0.051 C 
ATOM      9  H   UNL     1       2.618  -0.868  -4.485  0.00  0.00    -0.081 HD
ENDROOT
BRANCH   1  12
ATOM     10  C   UNL     1      -2.079   0.461  -0.357  0.00  0.00    +0.172 C 
ATOM     11  N   UNL     1      -0.925  -0.422  -0.173  0.00  0.00    -0.271 N 
ATOM     12  C   UNL     1      -0.021  -0.752  -1.120  0.00  0.00    +0.041 A 
ATOM     13  C   UNL     1       0.885  -1.583  -0.561  0.00  0.00    +0.053 A 
ATOM     14  C   UNL     1       0.523  -1.772   0.787  0.00  0.00    +0.093 A 
ATOM     15  N   UNL     1      -0.564  -1.066   1.017  0.00  0.00    -0.171 NA
BRANCH  14  16
ATOM     16  C   UNL     1       1.243  -2.612   1.776  0.00  0.00    +0.003 A 
ATOM     17  C   UNL     1       2.403  -3.303   1.388  0.00  0.00    +0.011 A 
ATOM     18  C   UNL     1       3.081  -4.079   2.273  0.00  0.00    +0.009 A 
ATOM     19  C   UNL     1       2.622  -4.198   3.598  0.00  0.00    -0.018 A 
ATOM     20  C   UNL     1       3.305  -4.994   4.533  0.00  0.00    +0.008 A 
ATOM     21  C   UNL     1       2.837  -5.089   5.808  0.00  0.00    +0.001 A 
ATOM     22  C   UNL     1       1.687  -4.409   6.203  0.00  0.00    +0.001 A 
ATOM     23  C   UNL     1       0.999  -3.629   5.325  0.00  0.00    +0.008 A 
ATOM     24  C   UNL     1       1.452  -3.506   4.000  0.00  0.00    -0.017 A 
ATOM     25  C   UNL     1       0.770  -2.705   3.071  0.00  0.00    +0.018 A 
ENDBRANCH  14  16
ENDBRANCH   1  12
BRANCH   8  26
ATOM     26  C   UNL     1       1.085  -1.545  -6.496  0.00  0.00    +0.090 C 
BRANCH  26  27
ATOM     27  N   UNL     1       2.509  -1.452  -6.826  0.00  0.00    -0.301 N 
ATOM     28  C   UNL     1       3.011  -2.167  -7.853  0.00  0.00    +0.304 C 
ATOM     29  O   UNL     1       2.281  -2.890  -8.504  0.00  0.00    -0.253 OA
ATOM     30  N   UNL     1       4.321  -2.082  -8.156  0.00  0.00    -0.269 N 
ATOM     31  H   UNL     1       3.091  -0.875  -6.307  0.00  0.00    +0.150 HD
ATOM     32  H   UNL     1       4.918  -1.566  -7.591  0.00  0.00    +0.156 HD
BRANCH  30  33
ATOM     33  C   UNL     1       4.821  -2.737  -9.287  0.00  0.00    +0.035 A 
ATOM     34  C   UNL     1       6.099  -3.280  -9.269  0.00  0.00    +0.023 A 
ATOM     35  C   UNL     1       6.590  -3.926 -10.386  0.00  0.00    +0.002 A 
ATOM     36  C   UNL     1       5.810  -4.034 -11.523  0.00  0.00    +0.000 A 
ATOM     37  C   UNL     1       4.536  -3.495 -11.545  0.00  0.00    +0.002 A 
ATOM     38  C   UNL     1       4.038  -2.852 -10.428  0.00  0.00    +0.023 A 
ENDBRANCH  30  33
ENDBRANCH  26  27
ENDBRANCH   8  26
TORSDOF 5
