REMARK  Name = ZINC36558311
REMARK  21 active torsions:
REMARK  status: ('A' for Active; 'I' for Inactive)
REMARK    1  A    between atoms: C_1  and  C_2
REMARK    2  A    between atoms: C_2  and  C_3
REMARK    3  A    between atoms: C_3  and  C_4
REMARK    4  A    between atoms: C_4  and  C_5
REMARK    5  A    between atoms: C_5  and  C_7
REMARK    6  A    between atoms: C_5  and  C_9
REMARK    7  A    between atoms: C_7  and  C_8
REMARK    8  A    between atoms: N_11  and  C_12
REMARK    9  A    between atoms: N_11  and  C_19
REMARK   10  A    between atoms: C_12  and  C_13
REMARK   11  A    between atoms: C_16  and  C_18
REMARK   12  A    between atoms: C_19  and  C_21
REMARK   13  A    between atoms: C_19  and  C_30
REMARK   14  A    between atoms: N_32  and  C_33
REMARK   15  A    between atoms: C_33  and  C_34
REMARK   16  A    between atoms: C_33  and  C_35
REMARK   17  A    between atoms: C_33  and  C_36
REMARK   18  A    between atoms: C_36  and  C_37
REMARK   19  A    between atoms: C_37  and  C_38
REMARK   20  A    between atoms: C_37  and  C_39
REMARK   21  A    between atoms: C_37  and  C_40
REMARK                            x       y       z     vdW  Elec       q    Type
REMARK                         _______ _______ _______ _____ _____    ______ ____
ROOT
ATOM      1  C   UNL     1      -4.461  -8.362   3.890  0.00  0.00    +0.193 C 
ENDROOT
BRANCH   1   2
ATOM      2  C   UNL     1      -5.439  -9.002   4.842  0.00  0.00    -0.015 A 
ATOM      3  C   UNL     1      -6.757  -8.585   4.860  0.00  0.00    +0.010 A 
ATOM      4  C   UNL     1      -7.658  -9.169   5.731  0.00  0.00    +0.050 A 
ATOM      5  C   UNL     1      -7.241 -10.174   6.589  0.00  0.00    +0.166 A 
ATOM      6  C   UNL     1      -5.913 -10.594   6.570  0.00  0.00    +0.167 A 
ATOM      7  C   UNL     1      -5.017 -10.008   5.691  0.00  0.00    +0.055 A 
ATOM      8  O   UNL     1      -5.756 -11.584   7.497  0.00  0.00    -0.453 OA
ATOM      9  C   UNL     1      -6.900 -11.482   8.366  0.00  0.00    +0.466 C 
ATOM     10  O   UNL     1      -7.915 -10.900   7.527  0.00  0.00    -0.453 OA
ENDBRANCH   1   2
BRANCH   1  11
ATOM     11  C   UNL     1      -4.883  -8.645   2.471  0.00  0.00    +0.239 C 
ATOM     12  O   UNL     1      -5.104  -7.728   1.710  0.00  0.00    -0.273 OA
ATOM     13  N   UNL     1      -5.015  -9.918   2.049  0.00  0.00    -0.308 N 
ATOM     14  H   UNL     1      -4.811 -10.652   2.649  0.00  0.00    +0.149 HD
BRANCH  13  15
ATOM     15  C   UNL     1      -5.466 -10.193   0.682  0.00  0.00    +0.030 C 
ATOM     16  C   UNL     1      -6.931  -9.776   0.535  0.00  0.00    +0.031 C 
ATOM     17  C   UNL     1      -4.609  -9.402  -0.307  0.00  0.00    +0.031 C 
BRANCH  15  18
ATOM     18  C   UNL     1      -5.331 -11.689   0.392  0.00  0.00    +0.031 C 
BRANCH  18  19
ATOM     19  C   UNL     1      -3.850 -12.048   0.247  0.00  0.00    -0.036 C 
ATOM     20  C   UNL     1      -3.038 -11.303   1.308  0.00  0.00    +0.010 C 
ATOM     21  C   UNL     1      -3.671 -13.556   0.433  0.00  0.00    +0.010 C 
ATOM     22  C   UNL     1      -3.362 -11.645  -1.146  0.00  0.00    +0.010 C 
ENDBRANCH  18  19
ENDBRANCH  15  18
ENDBRANCH  13  15
ENDBRANCH   1  11
BRANCH   1  25
ATOM     23  C   UNL     1      -3.270  -6.288   4.357  0.00  0.00    +0.220 C 
ATOM     24  O   UNL     1      -2.226  -6.902   4.282  0.00  0.00    -0.275 OA
ATOM     25  N   UNL     1      -4.438  -6.915   4.113  0.00  0.00    -0.278 N 
BRANCH  23  26
ATOM     26  C   UNL     1      -3.260  -4.826   4.722  0.00  0.00    +0.075 C 
BRANCH  26  27
ATOM     27  C   UNL     1      -3.503  -4.674   6.224  0.00  0.00    +0.009 C 
ATOM     28  C   UNL     1      -4.909  -5.172   6.567  0.00  0.00    +0.004 C 
ENDBRANCH  26  27
BRANCH  26  29
ATOM     29  C   UNL     1      -1.903  -4.220   4.361  0.00  0.00    +0.013 C 
BRANCH  29  30
ATOM     30  C   UNL     1      -1.911  -2.724   4.683  0.00  0.00    +0.000 C 
BRANCH  30  32
ATOM     31  C   UNL     1      -0.526  -0.646   4.758  0.00  0.00    +0.004 C 
ATOM     32  C   UNL     1      -0.518  -2.142   4.436  0.00  0.00    -0.003 C 
ENDBRANCH  30  32
ENDBRANCH  29  30
ENDBRANCH  26  29
ENDBRANCH  23  26
BRANCH  25  33
ATOM     33  C   UNL     1      -5.686  -6.147   4.072  0.00  0.00    +0.183 C 
BRANCH  33  34
ATOM     34  C   UNL     1      -6.215  -6.124   2.661  0.00  0.00    +0.122 A 
ATOM     35  C   UNL     1      -7.183  -6.918   2.171  0.00  0.00    +0.046 A 
ATOM     36  C   UNL     1      -7.361  -6.558   0.815  0.00  0.00    +0.045 A 
ATOM     37  C   UNL     1      -6.490  -5.566   0.558  0.00  0.00    +0.102 A 
ATOM     38  O   UNL     1      -5.802  -5.303   1.681  0.00  0.00    -0.463 OA
ATOM     39  C   UNL     1      -6.319  -4.864  -0.765  0.00  0.00    +0.086 C 
ENDBRANCH  33  34
ENDBRANCH  25  33
ENDBRANCH   1  25
TORSDOF 13
