REMARK  Name = ZINC59310524
REMARK  10 active torsions:
REMARK  status: ('A' for Active; 'I' for Inactive)
REMARK    1  A    between atoms: C_1  and  C_2
REMARK    2  A    between atoms: C_5  and  C_8
REMARK    3  A    between atoms: C_8  and  S_9
REMARK    4  A    between atoms: S_9  and  C_10
REMARK    5  A    between atoms: N_16  and  N_17
REMARK    6  A    between atoms: C_18  and  C_19
REMARK    7  A    between atoms: C_21  and  O_27
REMARK    8  A    between atoms: C_24  and  O_25
REMARK    9  A    between atoms: O_25  and  C_26
REMARK   10  A    between atoms: O_27  and  C_28
REMARK                            x       y       z     vdW  Elec       q    Type
REMARK                         _______ _______ _______ _____ _____    ______ ____
ROOT
ATOM      1  C   UNL     1       1.632  -6.614  -0.043  0.00  0.00    +0.191 A 
ATOM      2  N   UNL     1       2.667  -7.505  -0.048  0.00  0.00    -0.303 N 
ATOM      3  H   UNL     1       3.611  -7.282  -0.048  0.00  0.00    +0.171 HD
ATOM      4  C   UNL     1       2.139  -8.766  -0.053  0.00  0.00    +0.235 A 
ATOM      5  N   UNL     1       0.832  -8.658  -0.052  0.00  0.00    -0.111 NA
ATOM      6  N   UNL     1       0.511  -7.295  -0.040  0.00  0.00    -0.121 NA
ATOM      7  N   UNL     1       2.859  -9.952  -0.060  0.00  0.00    -0.205 N 
ATOM      8  H   UNL     1       3.829  -9.930  -0.061  0.00  0.00    +0.177 HD
ENDROOT
BRANCH   7   9
ATOM      9  N   UNL     1       2.186 -11.181  -0.065  0.00  0.00    -0.187 NA
ATOM     10  C   UNL     1       2.860 -12.290  -0.071  0.00  0.00    +0.142 C 
BRANCH  10  11
ATOM     11  C   UNL     1       2.152 -13.583  -0.077  0.00  0.00    +0.040 A 
ATOM     12  C   UNL     1       2.873 -14.779  -0.078  0.00  0.00    +0.058 A 
ATOM     13  C   UNL     1       2.202 -15.988  -0.083  0.00  0.00    +0.121 A 
ATOM     14  C   UNL     1       0.813 -16.015  -0.087  0.00  0.00    +0.049 A 
ATOM     15  C   UNL     1       0.092 -14.836  -0.087  0.00  0.00    +0.050 A 
ATOM     16  C   UNL     1       0.751 -13.618  -0.075  0.00  0.00    +0.129 A 
BRANCH  16  17
ATOM     17  O   UNL     1       0.040 -12.459  -0.069  0.00  0.00    -0.494 OA
ATOM     18  C   UNL     1      -1.384 -12.572  -0.068  0.00  0.00    +0.277 C 
ENDBRANCH  16  17
BRANCH  13  19
ATOM     19  O   UNL     1       2.903 -17.153  -0.084  0.00  0.00    -0.495 OA
ATOM     20  C   UNL     1       2.146 -18.366  -0.090  0.00  0.00    +0.277 C 
ENDBRANCH  13  19
ENDBRANCH  10  11
ENDBRANCH   7   9
BRANCH   1  21
ATOM     21  S   UNL     1       1.777  -4.858  -0.034  0.00  0.00    -0.081 S 
BRANCH  21  22
ATOM     22  C   UNL     1       0.059  -4.275  -0.021  0.00  0.00    +0.112 C 
BRANCH  22  27
ATOM     23  C   UNL     1      -0.018   1.503   0.010  0.00  0.00    +0.044 C 
ATOM     24  C   UNL     1       0.002  -0.004   0.002  0.00  0.00    -0.050 A 
ATOM     25  C   UNL     1       0.006  -0.689  -1.199  0.00  0.00    +0.003 A 
ATOM     26  C   UNL     1       0.025  -2.071  -1.206  0.00  0.00    +0.005 A 
ATOM     27  C   UNL     1       0.040  -2.768  -0.013  0.00  0.00    -0.037 A 
ATOM     28  C   UNL     1       0.037  -2.084   1.188  0.00  0.00    +0.005 A 
ATOM     29  C   UNL     1       0.023  -0.702   1.195  0.00  0.00    +0.003 A 
ENDBRANCH  22  27
ENDBRANCH  21  22
ENDBRANCH   1  21
TORSDOF 7
