REMARK  Name = ZINC04502005
REMARK  6 active torsions:
REMARK  status: ('A' for Active; 'I' for Inactive)
REMARK    1  A    between atoms: C_1  and  C_2
REMARK    2  A    between atoms: C_3  and  C_29
REMARK    3  A    between atoms: C_10  and  C_13
REMARK    4  A    between atoms: C_16  and  O_19
REMARK    5  A    between atoms: O_19  and  C_20
REMARK    6  A    between atoms: C_20  and  C_22
REMARK                            x       y       z     vdW  Elec       q    Type
REMARK                         _______ _______ _______ _____ _____    ______ ____
ROOT
ATOM      1  C   UNL     1       7.424   5.147  -0.142  0.00  0.00    -0.009 A 
ATOM      2  C   UNL     1       6.317   5.971  -0.055  0.00  0.00    +0.010 A 
ATOM      3  C   UNL     1       5.049   5.425  -0.012  0.00  0.00    +0.047 A 
ATOM      4  C   UNL     1       4.887   4.048  -0.056  0.00  0.00    +0.132 A 
ATOM      5  C   UNL     1       5.999   3.223  -0.139  0.00  0.00    +0.047 A 
ATOM      6  C   UNL     1       7.265   3.775  -0.186  0.00  0.00    +0.010 A 
ENDROOT
BRANCH   1  16
ATOM      7  C   UNL     1       9.347   6.832   4.954  0.00  0.00    +0.045 C 
ATOM      8  C   UNL     1       9.678   5.728   3.983  0.00  0.00    -0.027 A 
ATOM      9  C   UNL     1      10.130   4.534   4.412  0.00  0.00    -0.008 A 
ATOM     10  S   UNL     1      10.359   3.611   2.902  0.00  0.00    -0.078 S 
ATOM     11  C   UNL     1       9.860   4.797   1.774  0.00  0.00    +0.080 A 
ATOM     12  C   UNL     1       9.521   5.912   2.560  0.00  0.00    +0.068 A 
ATOM     13  C   UNL     1       9.054   7.127   1.853  0.00  0.00    +0.248 C 
ATOM     14  O   UNL     1       8.905   8.183   2.440  0.00  0.00    -0.270 OA
ATOM     15  N   UNL     1       8.801   7.015   0.533  0.00  0.00    -0.289 N 
ATOM     16  C   UNL     1       8.806   5.747  -0.188  0.00  0.00    +0.190 C 
ATOM     17  N   UNL     1       9.764   4.796   0.407  0.00  0.00    -0.316 N 
ATOM     18  C   UNL     1      10.381   4.085   5.829  0.00  0.00    +0.052 C 
ATOM     19  H   UNL     1       8.603   7.824   0.036  0.00  0.00    +0.151 HD
ATOM     20  H   UNL     1      10.298   4.201  -0.141  0.00  0.00    +0.149 HD
ENDBRANCH   1  16
BRANCH   4  21
ATOM     21  O   UNL     1       3.640   3.507  -0.013  0.00  0.00    -0.422 OA
BRANCH  21  22
ATOM     22  C   UNL     1       2.914   3.555  -1.147  0.00  0.00    +0.344 C 
ATOM     23  O   UNL     1       3.343   4.143  -2.120  0.00  0.00    -0.245 OA
BRANCH  22  24
ATOM     24  C   UNL     1       1.595   2.893  -1.208  0.00  0.00    +0.059 A 
ATOM     25  C   UNL     1       1.099   2.216  -0.091  0.00  0.00    +0.016 A 
ATOM     26  C   UNL     1      -0.133   1.599  -0.154  0.00  0.00    +0.021 A 
ATOM     27  C   UNL     1      -0.877   1.650  -1.321  0.00  0.00    +0.041 A 
ATOM     28  C   UNL     1      -0.390   2.320  -2.432  0.00  0.00    +0.021 A 
ATOM     29  C   UNL     1       0.840   2.941  -2.381  0.00  0.00    +0.016 A 
ATOM     30 CL   UNL     1      -2.427   0.871  -1.392  0.00  0.00    -0.084 Cl
ENDBRANCH  22  24
ENDBRANCH  21  22
ENDBRANCH   4  21
TORSDOF 4
