REMARK  Name = ZINC13033736
REMARK  8 active torsions:
REMARK  status: ('A' for Active; 'I' for Inactive)
REMARK    1  A    between atoms: C_4  and  C_7
REMARK    2  A    between atoms: C_7  and  N_64
REMARK    3  A    between atoms: C_8  and  C_9
REMARK    4  A    between atoms: C_8  and  N_64
REMARK    5  A    between atoms: C_25  and  C_26
REMARK    6  A    between atoms: C_25  and  N_64
REMARK    7  A    between atoms: N_30  and  C_31
REMARK    8  A    between atoms: C_31  and  C_32
REMARK                            x       y       z     vdW  Elec       q    Type
REMARK                         _______ _______ _______ _____ _____    ______ ____
ROOT
ATOM      1  N   UNL     1       6.279   4.842   1.340  0.00  0.00    +0.390 N 
ATOM      2  H   UNL     1       6.072   3.983   1.863  0.00  0.00    -0.080 HD
ENDROOT
BRANCH   1   3
ATOM      3  C   UNL     1       5.493   5.954   1.914  0.00  0.00    -0.042 C 
BRANCH   3   7
ATOM      4  C   UNL     1       6.383   6.271   6.080  0.00  0.00    +0.000 A 
ATOM      5  C   UNL     1       7.146   6.959   5.156  0.00  0.00    +0.000 A 
ATOM      6  C   UNL     1       6.858   6.857   3.808  0.00  0.00    +0.002 A 
ATOM      7  C   UNL     1       5.807   6.066   3.384  0.00  0.00    -0.064 A 
ATOM      8  C   UNL     1       5.040   5.381   4.308  0.00  0.00    +0.002 A 
ATOM      9  C   UNL     1       5.332   5.480   5.656  0.00  0.00    +0.000 A 
ENDBRANCH   3   7
ENDBRANCH   1   3
BRANCH   1  10
ATOM     10  C   UNL     1       5.910   4.642  -0.078  0.00  0.00    -0.036 C 
BRANCH  10  11
ATOM     11  C   UNL     1       4.494   4.132  -0.144  0.00  0.00    +0.001 A 
ATOM     12  C   UNL     1       3.470   5.000  -0.347  0.00  0.00    +0.017 A 
ATOM     13  C   UNL     1       2.107   4.474  -0.407  0.00  0.00    +0.002 A 
ATOM     14  C   UNL     1       1.013   5.323  -0.613  0.00  0.00    +0.059 A 
ATOM     15  C   UNL     1      -0.261   4.798  -0.666  0.00  0.00    +0.163 A 
ATOM     16  C   UNL     1      -0.461   3.422  -0.522  0.00  0.00    +0.164 A 
ATOM     17  C   UNL     1       0.614   2.576  -0.309  0.00  0.00    +0.075 A 
ATOM     18  C   UNL     1       1.903   3.089  -0.253  0.00  0.00    +0.053 A 
ATOM     19  N   UNL     1       2.987   2.260  -0.049  0.00  0.00    -0.322 N 
ATOM     20  H   UNL     1       2.845   1.306   0.058  0.00  0.00    +0.169 HD
ATOM     21  C   UNL     1       4.236   2.754   0.004  0.00  0.00    +0.251 A 
ATOM     22  O   UNL     1       5.170   1.991   0.186  0.00  0.00    -0.268 OA
ATOM     23  O   UNL     1      -1.715   2.896  -0.573  0.00  0.00    -0.485 OA
ATOM     24  C   UNL     1      -2.805   3.808  -0.404  0.00  0.00    +0.270 C 
ATOM     25  C   UNL     1      -2.545   5.038  -1.285  0.00  0.00    +0.270 C 
ATOM     26  O   UNL     1      -1.315   5.638  -0.863  0.00  0.00    -0.485 OA
ENDBRANCH  10  11
ENDBRANCH   1  10
BRANCH   1  27
ATOM     27  C   UNL     1       7.723   5.135   1.449  0.00  0.00    +0.001 C 
BRANCH  27  28
ATOM     28  C   UNL     1       8.501   3.923   1.006  0.00  0.00    +0.135 A 
ATOM     29  N   UNL     1       8.956   3.683  -0.200  0.00  0.00    -0.115 NA
ATOM     30  N   UNL     1       9.566   2.549  -0.177  0.00  0.00    -0.023 NA
ATOM     31  N   UNL     1       9.512   2.058   1.012  0.00  0.00    -0.044 NA
ATOM     32  N   UNL     1       8.868   2.879   1.772  0.00  0.00    -0.229 N 
BRANCH  32  33
ATOM     33  C   UNL     1       8.586   2.705   3.199  0.00  0.00    +0.178 C 
BRANCH  33  34
ATOM     34  C   UNL     1       7.369   1.793   3.371  0.00  0.00    +0.140 C 
ATOM     35  C   UNL     1       7.076   1.566   4.875  0.00  0.00    +0.035 C 
ATOM     36  C   UNL     1       5.559   1.228   4.831  0.00  0.00    +0.031 C 
ATOM     37  C   UNL     1       5.060   2.109   3.666  0.00  0.00    +0.160 C 
ATOM     38  O   UNL     1       6.192   2.429   2.849  0.00  0.00    -0.375 OA
ENDBRANCH  33  34
ENDBRANCH  32  33
ENDBRANCH  27  28
ENDBRANCH   1  27
TORSDOF 8
