REMARK  Name = ZINC13064959
REMARK  14 active torsions:
REMARK  status: ('A' for Active; 'I' for Inactive)
REMARK    1  A    between atoms: C_1  and  C_2
REMARK    2  A    between atoms: C_2  and  C_3
REMARK    3  A    between atoms: C_3  and  C_5
REMARK    4  A    between atoms: C_3  and  N_70
REMARK    5  A    between atoms: N_9  and  C_10
REMARK    6  A    between atoms: C_10  and  C_11
REMARK    7  A    between atoms: C_16  and  C_17
REMARK    8  A    between atoms: C_16  and  N_70
REMARK    9  A    between atoms: C_20  and  O_23
REMARK   10  A    between atoms: O_23  and  C_24
REMARK   11  A    between atoms: C_25  and  C_26
REMARK   12  A    between atoms: C_25  and  N_70
REMARK   13  A    between atoms: C_29  and  C_39
REMARK   14  A    between atoms: C_31  and  C_38
REMARK                            x       y       z     vdW  Elec       q    Type
REMARK                         _______ _______ _______ _____ _____    ______ ____
ROOT
ATOM      1  N   UNL     1      -2.110   1.247  -1.160  0.00  0.00    +0.392 N 
ATOM      2  H   UNL     1      -2.399   1.346  -0.180  0.00  0.00    -0.080 HD
ENDROOT
BRANCH   1   3
ATOM      3  C   UNL     1      -0.634   1.195  -1.222  0.00  0.00    +0.003 C 
BRANCH   3   4
ATOM      4  C   UNL     1      -0.078   1.958  -0.048  0.00  0.00    +0.139 A 
ATOM      5  N   UNL     1      -0.456   3.143   0.365  0.00  0.00    -0.115 NA
ATOM      6  N   UNL     1       0.255   3.451   1.395  0.00  0.00    -0.023 NA
ATOM      7  N   UNL     1       1.082   2.496   1.644  0.00  0.00    -0.044 NA
ATOM      8  N   UNL     1       0.908   1.558   0.776  0.00  0.00    -0.223 N 
BRANCH   8   9
ATOM      9  C   UNL     1       1.645   0.294   0.702  0.00  0.00    +0.221 C 
BRANCH   9  10
ATOM     10  C   UNL     1       2.920   0.501  -0.074  0.00  0.00    +0.126 A 
ATOM     11  C   UNL     1       4.107   0.865   0.446  0.00  0.00    +0.046 A 
ATOM     12  C   UNL     1       5.020   0.939  -0.631  0.00  0.00    +0.041 A 
ATOM     13  C   UNL     1       4.335   0.624  -1.745  0.00  0.00    +0.195 A 
ATOM     14  O   UNL     1       3.064   0.360  -1.401  0.00  0.00    -0.466 OA
ENDBRANCH   9  10
ENDBRANCH   8   9
ENDBRANCH   3   4
BRANCH   3  16
ATOM     15  C   UNL     1      -0.618   0.993  -3.713  0.00  0.00    +0.002 C 
ATOM     16  C   UNL     1      -0.134   1.825  -2.524  0.00  0.00    -0.011 C 
ENDBRANCH   3  16
ENDBRANCH   1   3
BRANCH   1  17
ATOM     17  C   UNL     1      -2.608   2.408  -1.927  0.00  0.00    -0.042 C 
BRANCH  17  18
ATOM     18  C   UNL     1      -2.444   3.647  -1.086  0.00  0.00    -0.064 A 
ATOM     19  C   UNL     1      -3.326   3.902  -0.052  0.00  0.00    +0.005 A 
ATOM     20  C   UNL     1      -3.175   5.034   0.724  0.00  0.00    +0.046 A 
ATOM     21  C   UNL     1      -2.143   5.923   0.458  0.00  0.00    +0.120 A 
ATOM     22  C   UNL     1      -1.263   5.669  -0.583  0.00  0.00    +0.046 A 
ATOM     23  C   UNL     1      -1.415   4.532  -1.353  0.00  0.00    +0.005 A 
BRANCH  21  24
ATOM     24  O   UNL     1      -1.995   7.041   1.217  0.00  0.00    -0.495 OA
ATOM     25  C   UNL     1      -2.938   7.238   2.272  0.00  0.00    +0.277 C 
ENDBRANCH  21  24
ENDBRANCH  17  18
ENDBRANCH   1  17
BRANCH   1  26
ATOM     26  C   UNL     1      -2.683  -0.002  -1.705  0.00  0.00    -0.036 C 
BRANCH  26  27
ATOM     27  C   UNL     1      -2.616  -1.068  -0.642  0.00  0.00    +0.001 A 
ATOM     28  C   UNL     1      -3.663  -1.250   0.200  0.00  0.00    +0.017 A 
ATOM     29  C   UNL     1      -3.566  -2.294   1.222  0.00  0.00    +0.002 A 
ATOM     30  C   UNL     1      -4.614  -2.529   2.118  0.00  0.00    -0.041 A 
ATOM     31  C   UNL     1      -4.492  -3.511   3.060  0.00  0.00    +0.007 A 
ATOM     32  C   UNL     1      -3.337  -4.278   3.135  0.00  0.00    -0.048 A 
ATOM     33  C   UNL     1      -2.292  -4.063   2.263  0.00  0.00    +0.029 A 
ATOM     34  C   UNL     1      -2.394  -3.069   1.295  0.00  0.00    +0.050 A 
ATOM     35  N   UNL     1      -1.364  -2.834   0.409  0.00  0.00    -0.322 N 
ATOM     36  H   UNL     1      -0.557  -3.370   0.462  0.00  0.00    +0.169 HD
ATOM     37  C   UNL     1      -1.464  -1.877  -0.529  0.00  0.00    +0.251 A 
ATOM     38  O   UNL     1      -0.536  -1.700  -1.299  0.00  0.00    -0.268 OA
ATOM     39  C   UNL     1      -3.226  -5.355   4.183  0.00  0.00    +0.044 C 
ATOM     40  C   UNL     1      -5.872  -1.702   2.045  0.00  0.00    +0.044 C 
ENDBRANCH  26  27
ENDBRANCH   1  26
TORSDOF 10
