REMARK  Name = ZINC00067591
REMARK  9 active torsions:
REMARK  status: ('A' for Active; 'I' for Inactive)
REMARK    1  A    between atoms: C_1  and  C_2
REMARK    2  A    between atoms: C_7  and  N_8
REMARK    3  A    between atoms: N_8  and  C_9
REMARK    4  A    between atoms: C_9  and  N_11
REMARK    5  A    between atoms: N_11  and  C_12
REMARK    6  A    between atoms: C_14  and  N_19
REMARK    7  A    between atoms: C_17  and  C_18
REMARK    8  A    between atoms: N_19  and  S_20
REMARK    9  A    between atoms: S_20  and  C_23
REMARK                            x       y       z     vdW  Elec       q    Type
REMARK                         _______ _______ _______ _____ _____    ______ ____
ROOT
ATOM      1  N   UNL     1      -2.104  -0.703   5.084  0.00  0.00    -0.296 N 
ATOM      2  H   UNL     1      -2.877  -1.102   5.512  0.00  0.00    +0.154 HD
ENDROOT
BRANCH   1   3
ATOM      3  C   UNL     1      -2.276   0.170   4.005  0.00  0.00    +0.037 A 
ATOM      4  C   UNL     1      -1.589   1.375   3.970  0.00  0.00    +0.048 A 
ATOM      5  C   UNL     1      -1.762   2.239   2.898  0.00  0.00    +0.049 A 
ATOM      6  C   UNL     1      -2.627   1.897   1.865  0.00  0.00    +0.025 A 
ATOM      7  C   UNL     1      -3.304   0.694   1.899  0.00  0.00    +0.007 A 
ATOM      8  C   UNL     1      -3.134  -0.168   2.966  0.00  0.00    -0.029 A 
ATOM      9  C   UNL     1      -3.879  -1.478   3.002  0.00  0.00    +0.045 C 
BRANCH   5  10
ATOM     10  N   UNL     1      -1.073   3.453   2.860  0.00  0.00    -0.221 N 
ATOM     11  H   UNL     1      -1.033   4.013   3.651  0.00  0.00    +0.173 HD
BRANCH  10  12
ATOM     12  S   UNL     1      -0.324   3.937   1.465  0.00  0.00    +0.040 S 
ATOM     13  O   UNL     1       0.313   5.162   1.801  0.00  0.00    -0.155 OA
ATOM     14  O   UNL     1      -1.342   3.897   0.474  0.00  0.00    -0.155 OA
ATOM     15  C   UNL     1       0.918   2.656   1.135  0.00  0.00    +0.218 C 
ENDBRANCH  10  12
ENDBRANCH   5  10
ENDBRANCH   1   3
BRANCH   1  16
ATOM     16  C   UNL     1      -0.865  -0.990   5.528  0.00  0.00    +0.139 C 
ATOM     17  S   UNL     1       0.493  -0.201   4.846  0.00  0.00    -0.018 S 
BRANCH  16  18
ATOM     18  N   UNL     1      -0.694  -1.897   6.510  0.00  0.00    -0.296 N 
ATOM     19  H   UNL     1      -1.455  -2.392   6.851  0.00  0.00    +0.154 HD
BRANCH  18  26
ATOM     20  C   UNL     1      -0.434  -2.164   9.331  0.00  0.00    +0.045 C 
ATOM     21  C   UNL     1       0.753  -2.261   8.409  0.00  0.00    -0.029 A 
ATOM     22  C   UNL     1       2.014  -2.487   8.926  0.00  0.00    +0.005 A 
ATOM     23  C   UNL     1       3.104  -2.577   8.081  0.00  0.00    +0.000 A 
ATOM     24  C   UNL     1       2.937  -2.442   6.714  0.00  0.00    +0.002 A 
ATOM     25  C   UNL     1       1.678  -2.222   6.190  0.00  0.00    +0.023 A 
ATOM     26  C   UNL     1       0.582  -2.126   7.037  0.00  0.00    +0.036 A 
ENDBRANCH  18  26
ENDBRANCH  16  18
ENDBRANCH   1  16
TORSDOF 6
