REMARK  Name = ZINC19847862
REMARK  5 active torsions:
REMARK  status: ('A' for Active; 'I' for Inactive)
REMARK    1  A    between atoms: C_1  and  C_2
REMARK    2  A    between atoms: C_7  and  S_9
REMARK    3  A    between atoms: S_9  and  C_10
REMARK    4  A    between atoms: C_12  and  C_16
REMARK    5  A    between atoms: N_17  and  O_18
REMARK                            x       y       z     vdW  Elec       q    Type
REMARK                         _______ _______ _______ _____ _____    ______ ____
ROOT
ATOM      1  C   UNL     1      -0.998   3.122  -6.040  0.00  0.00    +0.105 A 
ATOM      2  C   UNL     1      -0.612   3.452  -7.334  0.00  0.00    +0.046 A 
ATOM      3  C   UNL     1      -1.581   3.891  -8.236  0.00  0.00    +0.022 A 
ATOM      4  C   UNL     1      -2.907   3.980  -7.794  0.00  0.00    +0.031 A 
ATOM      5  C   UNL     1      -3.206   3.634  -6.494  0.00  0.00    +0.112 A 
ATOM      6  N   UNL     1      -2.265   3.217  -5.668  0.00  0.00    -0.248 NA
ENDROOT
BRANCH   3   7
ATOM      7  C   UNL     1      -1.218   4.255  -9.626  0.00  0.00    +0.163 C 
ATOM      8  N   UNL     1       0.018   4.166 -10.018  0.00  0.00    -0.072 NA
ATOM      9  N   UNL     1      -2.194   4.689 -10.506  0.00  0.00    -0.340 N 
ATOM     10  H   UNL     1      -3.117   4.755 -10.213  0.00  0.00    +0.144 HD
ATOM     11  H   UNL     1      -1.956   4.927 -11.416  0.00  0.00    +0.144 HD
BRANCH   8  12
ATOM     12  O   UNL     1       0.366   4.514 -11.347  0.00  0.00    -0.408 OA
ATOM     13  H   UNL     1       1.307   4.415 -11.545  0.00  0.00    +0.328 HD
ENDBRANCH   8  12
ENDBRANCH   3   7
BRANCH   1  14
ATOM     14  S   UNL     1       0.211   2.564  -4.886  0.00  0.00    -0.030 S 
BRANCH  14  21
ATOM     15  C   UNL     1      -0.013   1.086   0.008  0.00  0.00    +0.066 C 
ATOM     16  C   UNL     1      -0.742   1.585  -1.213  0.00  0.00    +0.046 A 
ATOM     17  C   UNL     1      -2.107   1.799  -1.173  0.00  0.00    +0.095 A 
ATOM     18  C   UNL     1      -2.742   2.262  -2.325  0.00  0.00    +0.274 A 
ATOM     19  O   UNL     1      -4.078   2.485  -2.330  0.00  0.00    -0.266 OA
ATOM     20  N   UNL     1      -2.019   2.480  -3.417  0.00  0.00    -0.183 NA
ATOM     21  C   UNL     1      -0.712   2.262  -3.416  0.00  0.00    +0.198 A 
ATOM     22  N   UNL     1      -0.081   1.829  -2.334  0.00  0.00    -0.227 NA
ENDBRANCH  14  21
ENDBRANCH   1  14
TORSDOF 4
