REMARK  Name = ZINC12979208
REMARK  3 active torsions:
REMARK  status: ('A' for Active; 'I' for Inactive)
REMARK    1  A    between atoms: C_4  and  C_7
REMARK    2  A    between atoms: C_9  and  C_12
REMARK    3  A    between atoms: C_12  and  N_13
REMARK                            x       y       z     vdW  Elec       q    Type
REMARK                         _______ _______ _______ _____ _____    ______ ____
ROOT
ATOM      1  C   UNL     1      -1.306   2.087   0.019  0.00  0.00    +0.206 C 
ENDROOT
BRANCH   1   2
ATOM      2  N   UNL     1      -0.017   1.391   0.010  0.00  0.00    -0.223 N 
ATOM      3  C   UNL     1       1.121   2.116   0.003  0.00  0.00    +0.275 A 
ATOM      4  O   UNL     1       1.081   3.334   0.010  0.00  0.00    -0.266 OA
ATOM      5  C   UNL     1       2.408   1.411  -0.014  0.00  0.00    +0.050 A 
ATOM      6  C   UNL     1       3.624   2.092  -0.023  0.00  0.00    +0.014 A 
ATOM      7  C   UNL     1       4.801   1.375  -0.039  0.00  0.00    +0.001 A 
ATOM      8  C   UNL     1       4.785  -0.014  -0.046  0.00  0.00    +0.001 A 
ATOM      9  C   UNL     1       3.604  -0.702  -0.038  0.00  0.00    +0.010 A 
ATOM     10  C   UNL     1       2.396  -0.003  -0.021  0.00  0.00    +0.007 A 
ATOM     11  C   UNL     1       1.105  -0.691  -0.012  0.00  0.00    +0.141 A 
ATOM     12  N   UNL     1       0.002  -0.004   0.002  0.00  0.00    -0.176 NA
ENDBRANCH   1   2
BRANCH   1  15
ATOM     13  C   UNL     1      -1.986   3.245  -3.337  0.00  0.00    +0.227 A 
ATOM     14  N   UNL     1      -1.404   3.373  -2.168  0.00  0.00    -0.212 NA
ATOM     15  C   UNL     1      -1.755   2.333  -1.398  0.00  0.00    +0.101 A 
ATOM     16  C   UNL     1      -2.584   1.551  -2.114  0.00  0.00    +0.222 A 
ATOM     17  O   UNL     1      -2.727   2.124  -3.325  0.00  0.00    -0.443 OA
BRANCH  13  21
ATOM     18  C   UNL     1      -1.608   5.934  -6.604  0.00  0.00    +0.000 A 
ATOM     19  C   UNL     1      -2.407   4.811  -6.725  0.00  0.00    +0.001 A 
ATOM     20  C   UNL     1      -2.534   3.934  -5.668  0.00  0.00    +0.013 A 
ATOM     21  C   UNL     1      -1.855   4.181  -4.474  0.00  0.00    +0.037 A 
ATOM     22  C   UNL     1      -1.055   5.319  -4.357  0.00  0.00    +0.013 A 
ATOM     23  C   UNL     1      -0.931   6.184  -5.424  0.00  0.00    +0.001 A 
ENDBRANCH  13  21
ENDBRANCH   1  15
TORSDOF 3
