REMARK  Name = ZINC15224874
REMARK  6 active torsions:
REMARK  status: ('A' for Active; 'I' for Inactive)
REMARK    1  A    between atoms: C_1  and  C_2
REMARK    2  A    between atoms: C_4  and  C_19
REMARK    3  A    between atoms: C_5  and  C_18
REMARK    4  A    between atoms: N_6  and  C_7
REMARK    5  A    between atoms: C_8  and  C_16
REMARK    6  A    between atoms: N_20  and  N_21
REMARK                            x       y       z     vdW  Elec       q    Type
REMARK                         _______ _______ _______ _____ _____    ______ ____
ROOT
ATOM      1  C   UNL     1      -1.234  -1.621   4.573  0.00  0.00    +0.064 C 
ATOM      2  C   UNL     1      -1.504  -0.395   5.407  0.00  0.00    +0.022 A 
ATOM      3  C   UNL     1      -1.697  -0.380   6.738  0.00  0.00    +0.032 A 
ATOM      4  C   UNL     1      -1.927   1.018   7.113  0.00  0.00    +0.016 A 
ATOM      5  C   UNL     1      -1.847   1.743   5.959  0.00  0.00    +0.030 A 
ATOM      6  N   UNL     1      -1.588   0.885   4.934  0.00  0.00    -0.310 N 
ATOM      7  C   UNL     1      -2.017   3.236   5.840  0.00  0.00    +0.064 C 
ENDROOT
BRANCH   6   8
ATOM      8  C   UNL     1      -1.437   1.255   3.601  0.00  0.00    +0.103 A 
ATOM      9  C   UNL     1      -0.377   0.990   2.749  0.00  0.00    +0.086 A 
ATOM     10  C   UNL     1      -0.464   1.494   1.390  0.00  0.00    -0.018 A 
ATOM     11  C   UNL     1      -1.595   2.179   1.098  0.00  0.00    -0.004 A 
ATOM     12  S   UNL     1      -2.533   2.159   2.599  0.00  0.00    -0.074 S 
ATOM     13  C   UNL     1      -1.956   2.812  -0.210  0.00  0.00    +0.043 C 
ATOM     14  C   UNL     1      -0.690   2.891  -1.075  0.00  0.00    +0.005 C 
ATOM     15  C   UNL     1       0.013   1.530  -1.048  0.00  0.00    +0.005 C 
ATOM     16  C   UNL     1       0.616   1.284   0.336  0.00  0.00    +0.037 C 
BRANCH   9  17
ATOM     17  C   UNL     1       0.764   0.247   3.192  0.00  0.00    +0.102 C 
ATOM     18  N   UNL     1       1.669  -0.343   3.544  0.00  0.00    -0.191 NA
ENDBRANCH   9  17
ENDBRANCH   6   8
BRANCH   4  19
ATOM     19  C   UNL     1      -2.194   1.538   8.467  0.00  0.00    +0.140 C 
ATOM     20  N   UNL     1      -1.804   0.868   9.508  0.00  0.00    -0.186 NA
BRANCH  20  21
ATOM     21  N   UNL     1      -0.972  -0.248   9.351  0.00  0.00    -0.191 N 
ATOM     22  C   UNL     1      -0.638  -0.995  10.421  0.00  0.00    +0.317 C 
ATOM     23  O   UNL     1       0.084  -1.964  10.285  0.00  0.00    -0.251 OA
ATOM     24  N   UNL     1      -1.103  -0.668  11.643  0.00  0.00    -0.312 N 
ATOM     25  H   UNL     1      -0.637  -0.484   8.471  0.00  0.00    +0.179 HD
ATOM     26  H   UNL     1      -1.679   0.105  11.752  0.00  0.00    +0.147 HD
ATOM     27  H   UNL     1      -0.862  -1.206  12.414  0.00  0.00    +0.147 HD
ENDBRANCH  20  21
ENDBRANCH   4  19
TORSDOF 4
