REMARK  Name = ZINC35782692
REMARK  16 active torsions:
REMARK  status: ('A' for Active; 'I' for Inactive)
REMARK    1  A    between atoms: C_1  and  C_2
REMARK    2  A    between atoms: C_2  and  C_3
REMARK    3  A    between atoms: C_3  and  C_4
REMARK    4  A    between atoms: C_4  and  C_5
REMARK    5  A    between atoms: C_5  and  C_7
REMARK    6  A    between atoms: C_5  and  O_33
REMARK    7  A    between atoms: C_7  and  N_8
REMARK    8  A    between atoms: N_8  and  C_9
REMARK    9  A    between atoms: N_8  and  C_30
REMARK   10  A    between atoms: C_9  and  C_10
REMARK   11  A    between atoms: C_11  and  C_24
REMARK   12  A    between atoms: N_13  and  C_23
REMARK   13  A    between atoms: C_14  and  O_15
REMARK   14  A    between atoms: O_15  and  C_16
REMARK   15  A    between atoms: C_30  and  C_31
REMARK   16  A    between atoms: C_30  and  C_32
REMARK                            x       y       z     vdW  Elec       q    Type
REMARK                         _______ _______ _______ _____ _____    ______ ____
ROOT
ATOM      1  C   UNL     1       2.094  -5.961  -4.510  0.00  0.00    +0.025 A 
ATOM      2  C   UNL     1       1.892  -5.634  -5.864  0.00  0.00    +0.098 A 
ATOM      3  N   UNL     1       2.231  -6.677  -6.592  0.00  0.00    -0.168 NA
ATOM      4  N   UNL     1       2.656  -7.695  -5.729  0.00  0.00    -0.235 N 
ATOM      5  C   UNL     1       2.569  -7.232  -4.456  0.00  0.00    +0.221 A 
ATOM      6  C   UNL     1       3.120  -9.025  -6.131  0.00  0.00    +0.176 C 
ENDROOT
BRANCH   2   7
ATOM      7  C   UNL     1       1.385  -4.339  -6.382  0.00  0.00    +0.002 A 
ATOM      8  C   UNL     1       0.319  -3.703  -5.749  0.00  0.00    +0.010 A 
ATOM      9  C   UNL     1      -0.149  -2.498  -6.234  0.00  0.00    +0.001 A 
ATOM     10  C   UNL     1       0.438  -1.923  -7.347  0.00  0.00    +0.000 A 
ATOM     11  C   UNL     1       1.496  -2.550  -7.979  0.00  0.00    +0.001 A 
ATOM     12  C   UNL     1       1.976  -3.752  -7.498  0.00  0.00    +0.010 A 
ENDBRANCH   2   7
BRANCH   1  13
ATOM     13  C   UNL     1       1.834  -5.059  -3.331  0.00  0.00    -0.035 C 
BRANCH  13  14
ATOM     14  N   UNL     1       2.703  -3.878  -3.418  0.00  0.00    +0.386 N 
ATOM     15  H   UNL     1       2.598  -3.449  -4.325  0.00  0.00    -0.081 HD
BRANCH  14  16
ATOM     16  C   UNL     1       4.102  -4.284  -3.227  0.00  0.00    -0.074 C 
ATOM     17  C   UNL     1       4.221  -5.119  -1.950  0.00  0.00    -0.014 C 
ATOM     18  C   UNL     1       4.559  -5.117  -4.426  0.00  0.00    -0.014 C 
ENDBRANCH  14  16
BRANCH  14  19
ATOM     19  C   UNL     1       2.325  -2.915  -2.374  0.00  0.00    -0.046 C 
BRANCH  19  20
ATOM     20  C   UNL     1       3.117  -1.620  -2.565  0.00  0.00    +0.098 C 
BRANCH  20  21
ATOM     21  O   UNL     1       2.824  -1.067  -3.850  0.00  0.00    -0.394 OA
ATOM     22  H   UNL     1       1.890  -0.853  -3.982  0.00  0.00    +0.210 HD
ENDBRANCH  20  21
BRANCH  20  23
ATOM     23  C   UNL     1       2.725  -0.618  -1.477  0.00  0.00    +0.029 C 
BRANCH  23  24
ATOM     24  C   UNL     1       3.605   0.629  -1.592  0.00  0.00    +0.002 C 
BRANCH  24  26
ATOM     25  C   UNL     1       4.092   2.878  -0.619  0.00  0.00    +0.004 C 
ATOM     26  C   UNL     1       3.213   1.631  -0.504  0.00  0.00    -0.003 C 
ENDBRANCH  24  26
ENDBRANCH  23  24
ENDBRANCH  20  23
ENDBRANCH  19  20
ENDBRANCH  14  19
ENDBRANCH  13  14
ENDBRANCH   1  13
BRANCH   5  27
ATOM     27  O   UNL     1       2.895  -7.917  -3.331  0.00  0.00    -0.437 OA
BRANCH  27  28
ATOM     28  C   UNL     1       1.941  -8.700  -2.762  0.00  0.00    +0.149 A 
ATOM     29  C   UNL     1       0.714  -8.866  -3.387  0.00  0.00    +0.048 A 
ATOM     30  C   UNL     1      -0.254  -9.663  -2.807  0.00  0.00    +0.004 A 
ATOM     31  C   UNL     1      -0.001 -10.295  -1.603  0.00  0.00    +0.002 A 
ATOM     32  C   UNL     1       1.221 -10.132  -0.977  0.00  0.00    +0.024 A 
ATOM     33  C   UNL     1       2.196  -9.341  -1.556  0.00  0.00    +0.083 A 
ATOM     34 CL   UNL     1       3.732  -9.143  -0.774  0.00  0.00    -0.080 Cl
ENDBRANCH  27  28
ENDBRANCH   5  27
TORSDOF 12
