REMARK  Name = ZINC09308912
REMARK  8 active torsions:
REMARK  status: ('A' for Active; 'I' for Inactive)
REMARK    1  A    between atoms: C_1  and  C_2
REMARK    2  A    between atoms: C_6  and  N_9
REMARK    3  A    between atoms: C_7  and  C_8
REMARK    4  A    between atoms: C_10  and  N_33
REMARK    5  A    between atoms: C_11  and  C_22
REMARK    6  A    between atoms: N_24  and  C_25
REMARK    7  A    between atoms: C_25  and  C_26
REMARK    8  A    between atoms: C_26  and  C_27
REMARK                            x       y       z     vdW  Elec       q    Type
REMARK                         _______ _______ _______ _____ _____    ______ ____
ROOT
ATOM      1  N   UNL     1       2.404   1.105  -0.014  0.00  0.00    -0.280 N 
ATOM      2  C   UNL     1       3.094   0.728   1.099  0.00  0.00    +0.117 A 
ATOM      3  C   UNL     1       4.265   0.068   0.744  0.00  0.00    +0.104 A 
ATOM      4  C   UNL     1       4.303   0.047  -0.728  0.00  0.00    +0.123 A 
ATOM      5  C   UNL     1       3.080   0.728  -1.159  0.00  0.00    +0.166 A 
ATOM      6  N   UNL     1       2.834   0.865  -2.444  0.00  0.00    -0.225 NA
ATOM      7  C   UNL     1       3.700   0.383  -3.344  0.00  0.00    +0.092 A 
ATOM      8  C   UNL     1       3.445   0.525  -4.721  0.00  0.00    +0.030 A 
ATOM      9  C   UNL     1       4.330   0.031  -5.628  0.00  0.00    +0.002 A 
ATOM     10  C   UNL     1       5.493  -0.617  -5.215  0.00  0.00    +0.002 A 
ATOM     11  C   UNL     1       5.774  -0.774  -3.894  0.00  0.00    +0.030 A 
ATOM     12  C   UNL     1       4.882  -0.277  -2.925  0.00  0.00    +0.090 A 
ATOM     13  N   UNL     1       5.149  -0.425  -1.622  0.00  0.00    -0.241 NA
ENDROOT
BRANCH   1  19
ATOM     14  C   UNL     1      -0.077   5.351   0.030  0.00  0.00    +0.044 C 
ATOM     15  C   UNL     1      -0.051   3.845   0.022  0.00  0.00    -0.046 A 
ATOM     16  C   UNL     1      -1.237   3.133   0.030  0.00  0.00    +0.004 A 
ATOM     17  C   UNL     1      -1.218   1.751   0.017  0.00  0.00    +0.002 A 
ATOM     18  C   UNL     1      -0.013   1.076   0.008  0.00  0.00    +0.026 A 
ATOM     19  C   UNL     1       1.180   1.787   0.000  0.00  0.00    +0.053 A 
ATOM     20  C   UNL     1       1.157   3.175   0.008  0.00  0.00    -0.024 A 
ATOM     21  C   UNL     1       2.449   3.951  -0.001  0.00  0.00    +0.046 C 
ENDBRANCH   1  19
BRANCH   3  22
ATOM     22  C   UNL     1       5.265  -0.488   1.653  0.00  0.00    +0.250 C 
ATOM     23  O   UNL     1       6.195   0.201   2.030  0.00  0.00    -0.270 OA
ATOM     24  N   UNL     1       5.158  -1.764   2.072  0.00  0.00    -0.311 N 
ATOM     25  H   UNL     1       4.417  -2.313   1.771  0.00  0.00    +0.149 HD
BRANCH  24  26
ATOM     26  C   UNL     1       6.160  -2.322   2.983  0.00  0.00    +0.109 C 
BRANCH  26  27
ATOM     27  C   UNL     1       5.807  -3.777   3.301  0.00  0.00    +0.049 C 
BRANCH  27  28
ATOM     28  C   UNL     1       6.838  -4.351   4.239  0.00  0.00    -0.072 C 
ATOM     29  C   UNL     1       6.587  -4.324   5.508  0.00  0.00    -0.028 C 
ATOM     30  C   UNL     1       7.519  -4.847   6.561  0.00  0.00    +0.027 C 
ATOM     31  C   UNL     1       8.562  -5.771   5.929  0.00  0.00    +0.004 C 
ATOM     32  C   UNL     1       9.173  -5.056   4.717  0.00  0.00    +0.005 C 
ATOM     33  C   UNL     1       8.090  -4.924   3.642  0.00  0.00    +0.030 C 
ENDBRANCH  27  28
ENDBRANCH  26  27
ENDBRANCH  24  26
ENDBRANCH   3  22
BRANCH   2  34
ATOM     34  N   UNL     1       2.689   0.963   2.387  0.00  0.00    -0.343 N 
ATOM     35  H   UNL     1       1.855   1.429   2.556  0.00  0.00    +0.144 HD
ATOM     36  H   UNL     1       3.236   0.663   3.130  0.00  0.00    +0.144 HD
ENDBRANCH   2  34
TORSDOF 6
