REMARK  Name = ZINC05919278
REMARK  12 active torsions:
REMARK  status: ('A' for Active; 'I' for Inactive)
REMARK    1  A    between atoms: C_1  and  C_2
REMARK    2  A    between atoms: C_2  and  C_3
REMARK    3  A    between atoms: C_3  and  C_4
REMARK    4  A    between atoms: C_4  and  C_6
REMARK    5  A    between atoms: C_4  and  N_70
REMARK    6  A    between atoms: N_10  and  C_11
REMARK    7  A    between atoms: C_11  and  C_12
REMARK    8  A    between atoms: C_19  and  C_20
REMARK    9  A    between atoms: C_19  and  N_70
REMARK   10  A    between atoms: C_25  and  O_32
REMARK   11  A    between atoms: O_32  and  C_33
REMARK   12  A    between atoms: C_34  and  N_70
REMARK                            x       y       z     vdW  Elec       q    Type
REMARK                         _______ _______ _______ _____ _____    ______ ____
ROOT
ATOM      1  N   UNL     1       2.318   0.932   9.055  0.00  0.00    +0.391 N 
ATOM      2  H   UNL     1       2.673   1.319   8.173  0.00  0.00    -0.080 HD
ENDROOT
BRANCH   1   3
ATOM      3  C   UNL     1       1.286   1.841   9.597  0.00  0.00    -0.067 C 
ATOM      4  C   UNL     1       0.347   1.095  10.567  0.00  0.00    -0.015 C 
ATOM      5  C   UNL     1      -1.050   1.705  10.287  0.00  0.00    -0.002 C 
ATOM      6  C   UNL     1      -1.035   1.905   8.751  0.00  0.00    -0.002 C 
ATOM      7  C   UNL     1       0.408   2.356   8.443  0.00  0.00    -0.015 C 
ENDBRANCH   1   3
BRANCH   1   8
ATOM      8  C   UNL     1       3.438   0.812  10.012  0.00  0.00    +0.003 C 
BRANCH   8   9
ATOM      9  C   UNL     1       3.076  -0.131  11.131  0.00  0.00    +0.138 A 
ATOM     10  N   UNL     1       1.968  -0.126  11.831  0.00  0.00    -0.115 NA
ATOM     11  N   UNL     1       2.035  -1.084  12.689  0.00  0.00    -0.023 NA
ATOM     12  N   UNL     1       3.160  -1.696  12.560  0.00  0.00    -0.044 NA
ATOM     13  N   UNL     1       3.831  -1.137  11.610  0.00  0.00    -0.226 N 
BRANCH  13  14
ATOM     14  C   UNL     1       5.163  -1.525  11.140  0.00  0.00    +0.182 C 
BRANCH  14  15
ATOM     15  C   UNL     1       6.210  -0.769  11.918  0.00  0.00    -0.026 A 
ATOM     16  C   UNL     1       6.663   0.454  11.458  0.00  0.00    +0.008 A 
ATOM     17  C   UNL     1       7.619   1.150  12.173  0.00  0.00    +0.038 A 
ATOM     18  C   UNL     1       8.131   0.617  13.344  0.00  0.00    +0.123 A 
ATOM     19  C   UNL     1       7.680  -0.610  13.801  0.00  0.00    +0.038 A 
ATOM     20  C   UNL     1       6.720  -1.302  13.087  0.00  0.00    +0.008 A 
ATOM     21  F   UNL     1       9.069   1.295  14.042  0.00  0.00    -0.205 F 
ENDBRANCH  14  15
ENDBRANCH  13  14
ENDBRANCH   8   9
BRANCH   8  22
ATOM     22  C   UNL     1       3.757   2.192  10.591  0.00  0.00    -0.008 C 
BRANCH  22  24
ATOM     23  C   UNL     1       4.545   4.498  10.041  0.00  0.00    +0.004 C 
ATOM     24  C   UNL     1       4.130   3.147   9.455  0.00  0.00    -0.005 C 
ENDBRANCH  22  24
ENDBRANCH   8  22
ENDBRANCH   1   8
BRANCH   1  25
ATOM     25  C   UNL     1       1.732  -0.399   8.793  0.00  0.00    -0.036 C 
BRANCH  25  26
ATOM     26  C   UNL     1       2.659  -1.166   7.886  0.00  0.00    +0.001 A 
ATOM     27  C   UNL     1       3.493  -2.102   8.408  0.00  0.00    +0.017 A 
ATOM     28  C   UNL     1       4.381  -2.829   7.501  0.00  0.00    -0.001 A 
ATOM     29  C   UNL     1       5.263  -3.805   7.982  0.00  0.00    +0.013 A 
ATOM     30  C   UNL     1       6.075  -4.472   7.112  0.00  0.00    +0.046 A 
ATOM     31  C   UNL     1       6.043  -4.181   5.749  0.00  0.00    +0.122 A 
ATOM     32  C   UNL     1       5.179  -3.220   5.254  0.00  0.00    +0.072 A 
ATOM     33  C   UNL     1       4.340  -2.535   6.124  0.00  0.00    +0.053 A 
ATOM     34  N   UNL     1       3.470  -1.572   5.659  0.00  0.00    -0.322 N 
ATOM     35  H   UNL     1       3.443  -1.370   4.710  0.00  0.00    +0.169 HD
ATOM     36  C   UNL     1       2.658  -0.909   6.500  0.00  0.00    +0.251 A 
ATOM     37  O   UNL     1       1.901  -0.064   6.054  0.00  0.00    -0.268 OA
BRANCH  31  38
ATOM     38  O   UNL     1       6.863  -4.851   4.899  0.00  0.00    -0.495 OA
ATOM     39  C   UNL     1       7.731  -5.831   5.472  0.00  0.00    +0.277 C 
ENDBRANCH  31  38
ENDBRANCH  25  26
ENDBRANCH   1  25
TORSDOF 10
