REMARK  Name = ZINC15895262
REMARK  10 active torsions:
REMARK  status: ('A' for Active; 'I' for Inactive)
REMARK    1  A    between atoms: C_1  and  C_2
REMARK    2  A    between atoms: C_7  and  C_37
REMARK    3  A    between atoms: N_9  and  C_10
REMARK    4  A    between atoms: C_10  and  C_11
REMARK    5  A    between atoms: C_11  and  N_12
REMARK    6  A    between atoms: C_13  and  C_15
REMARK    7  A    between atoms: C_15  and  N_16
REMARK    8  A    between atoms: C_19  and  S_27
REMARK    9  A    between atoms: S_27  and  N_30
REMARK   10  A    between atoms: C_33  and  C_36
REMARK                            x       y       z     vdW  Elec       q    Type
REMARK                         _______ _______ _______ _____ _____    ______ ____
ROOT
ATOM      1  N   UNL     1       7.153  -0.699   4.594  0.00  0.00    -0.261 N 
ATOM      2  C   UNL     1       7.062   0.016   5.786  0.00  0.00    +0.052 A 
ATOM      3  C   UNL     1       6.021   0.922   5.962  0.00  0.00    +0.053 A 
ATOM      4  C   UNL     1       5.918   1.643   7.135  0.00  0.00    +0.107 A 
ATOM      5  C   UNL     1       6.846   1.473   8.146  0.00  0.00    +0.030 A 
ATOM      6  C   UNL     1       7.884   0.574   7.986  0.00  0.00    +0.018 A 
ATOM      7  C   UNL     1       7.991  -0.153   6.813  0.00  0.00    +0.030 A 
ATOM      8  S   UNL     1       9.305  -1.312   6.599  0.00  0.00    -0.114 S 
ATOM      9  C   UNL     1       8.560  -2.555   5.501  0.00  0.00    +0.170 C 
ATOM     10  C   UNL     1       7.796  -1.849   4.414  0.00  0.00    +0.230 C 
ATOM     11  O   UNL     1       7.769  -2.354   3.312  0.00  0.00    -0.274 OA
ENDROOT
BRANCH   4  12
ATOM     12  S   UNL     1       4.596   2.788   7.345  0.00  0.00    +0.061 S 
ATOM     13  O   UNL     1       5.029   3.738   8.309  0.00  0.00    -0.153 OA
ATOM     14  O   UNL     1       4.174   3.165   6.041  0.00  0.00    -0.153 OA
BRANCH  12  15
ATOM     15  N   UNL     1       3.335   1.961   8.029  0.00  0.00    -0.177 NA
ATOM     16  C   UNL     1       2.335   1.291   7.186  0.00  0.00    +0.110 C 
ATOM     17  C   UNL     1       0.940   1.772   7.600  0.00  0.00    +0.020 C 
ATOM     18  C   UNL     1       0.751   1.545   9.102  0.00  0.00    -0.012 C 
ATOM     19  C   UNL     1       1.792   2.356   9.877  0.00  0.00    +0.020 C 
ATOM     20  C   UNL     1       3.199   1.877   9.489  0.00  0.00    +0.110 C 
ATOM     21  C   UNL     1      -0.653   1.992   9.512  0.00  0.00    +0.007 C 
ENDBRANCH  12  15
ENDBRANCH   4  12
BRANCH   1  22
ATOM     22  C   UNL     1       6.471  -0.132   3.429  0.00  0.00    +0.209 C 
BRANCH  22  24
ATOM     23  N   UNL     1       4.235  -0.262   2.377  0.00  0.00    -0.316 N 
ATOM     24  C   UNL     1       5.057  -0.651   3.373  0.00  0.00    +0.231 C 
ATOM     25  O   UNL     1       4.659  -1.418   4.223  0.00  0.00    -0.274 OA
ATOM     26  H   UNL     1       4.554   0.352   1.697  0.00  0.00    +0.149 HD
BRANCH  23  27
ATOM     27  C   UNL     1       2.861  -0.766   2.323  0.00  0.00    +0.086 C 
BRANCH  27  28
ATOM     28  C   UNL     1       2.148  -0.174   1.105  0.00  0.00    -0.059 C 
BRANCH  28  35
ATOM     29  C   UNL     1       1.407  -2.632  -0.033  0.00  0.00    -0.013 C 
ATOM     30  C   UNL     1       0.649  -2.044   1.159  0.00  0.00    -0.071 C 
ATOM     31  C   UNL     1      -0.818  -2.473   1.092  0.00  0.00    -0.016 C 
ATOM     32  C   UNL     1      -1.572  -1.883   2.287  0.00  0.00    -0.003 C 
ATOM     33  C   UNL     1      -1.412  -0.360   2.277  0.00  0.00    -0.016 C 
ATOM     34  C   UNL     1       0.078  -0.009   2.301  0.00  0.00    -0.071 C 
ATOM     35  N   UNL     1       0.736  -0.579   1.119  0.00  0.00    +0.384 N 
ATOM     36  C   UNL     1       0.243   1.512   2.291  0.00  0.00    -0.013 C 
ATOM     37  H   UNL     1       0.283  -0.239   0.285  0.00  0.00    -0.081 HD
ENDBRANCH  28  35
ENDBRANCH  27  28
ENDBRANCH  23  27
ENDBRANCH  22  24
ENDBRANCH   1  22
TORSDOF 7
