REMARK  Name = ZINC06601789
REMARK  11 active torsions:
REMARK  status: ('A' for Active; 'I' for Inactive)
REMARK    1  A    between atoms: C_1  and  C_2
REMARK    2  A    between atoms: C_2  and  O_3
REMARK    3  A    between atoms: O_3  and  C_4
REMARK    4  A    between atoms: C_7  and  N_10
REMARK    5  A    between atoms: C_14  and  N_15
REMARK    6  A    between atoms: N_15  and  C_16
REMARK    7  A    between atoms: C_16  and  C_17
REMARK    8  A    between atoms: C_17  and  C_27
REMARK    9  A    between atoms: C_19  and  O_26
REMARK   10  A    between atoms: C_22  and  C_24
REMARK   11  A    between atoms: C_22  and  C_25
REMARK                            x       y       z     vdW  Elec       q    Type
REMARK                         _______ _______ _______ _____ _____    ______ ____
ROOT
ATOM      1  N   UNL     1       1.191  -5.958   1.717  0.00  0.00    -0.190 N 
ATOM      2  C   UNL     1       1.906  -6.454   2.748  0.00  0.00    +0.265 C 
ATOM      3  O   UNL     1       2.484  -5.714   3.521  0.00  0.00    -0.269 OA
ATOM      4  C   UNL     1       1.967  -7.917   2.912  0.00  0.00    +0.113 C 
ATOM      5  C   UNL     1       2.679  -8.498   3.945  0.00  0.00    +0.085 C 
ATOM      6  C   UNL     1       1.235  -8.734   1.928  0.00  0.00    +0.258 C 
ATOM      7  O   UNL     1       1.238  -9.949   1.999  0.00  0.00    -0.270 OA
ATOM      8  N   UNL     1       0.561  -8.099   0.947  0.00  0.00    -0.235 N 
ATOM      9  C   UNL     1       0.545  -6.762   0.861  0.00  0.00    +0.320 C 
ATOM     10  O   UNL     1      -0.086  -6.251  -0.044  0.00  0.00    -0.251 OA
ATOM     11  H   UNL     1       0.074  -8.622   0.291  0.00  0.00    +0.159 HD
ENDROOT
BRANCH   1  15
ATOM     12  C   UNL     1       0.976  -1.825   1.191  0.00  0.00    +0.121 A 
ATOM     13  C   UNL     1      -0.147  -2.532   1.595  0.00  0.00    +0.047 A 
ATOM     14  C   UNL     1      -0.076  -3.900   1.769  0.00  0.00    +0.027 A 
ATOM     15  C   UNL     1       1.119  -4.568   1.540  0.00  0.00    +0.046 A 
ATOM     16  C   UNL     1       2.242  -3.860   1.135  0.00  0.00    +0.027 A 
ATOM     17  C   UNL     1       2.169  -2.493   0.956  0.00  0.00    +0.047 A 
BRANCH  12  18
ATOM     18  O   UNL     1       0.905  -0.478   1.019  0.00  0.00    -0.492 OA
BRANCH  18  20
ATOM     19  C   UNL     1      -0.240   1.650   1.034  0.00  0.00    +0.048 C 
ATOM     20  C   UNL     1      -0.355   0.144   1.279  0.00  0.00    +0.225 C 
ENDBRANCH  18  20
ENDBRANCH  12  18
ENDBRANCH   1  15
BRANCH   5  21
ATOM     21  N   UNL     1       3.224  -7.725   4.907  0.00  0.00    -0.348 N 
ATOM     22  H   UNL     1       3.049  -6.771   4.918  0.00  0.00    +0.146 HD
BRANCH  21  23
ATOM     23  C   UNL     1       4.078  -8.327   5.933  0.00  0.00    +0.107 C 
BRANCH  23  24
ATOM     24  C   UNL     1       4.568  -7.227   6.906  0.00  0.00    -0.014 C 
ATOM     25  C   UNL     1       3.333  -6.570   7.507  0.00  0.00    +0.039 C 
ATOM     26  C   UNL     1       3.670  -5.668   8.685  0.00  0.00    +0.116 C 
ATOM     27  C   UNL     1       4.425  -6.441   9.755  0.00  0.00    +0.037 C 
ATOM     28  C   UNL     1       5.686  -7.103   9.219  0.00  0.00    -0.032 C 
ATOM     29  C   UNL     1       5.446  -7.894   7.948  0.00  0.00    +0.014 C 
ATOM     30  C   UNL     1       6.181  -8.094  10.300  0.00  0.00    +0.011 C 
ATOM     31  C   UNL     1       6.795  -6.066   9.023  0.00  0.00    +0.011 C 
ATOM     32  C   UNL     1       5.364  -6.218   6.074  0.00  0.00    +0.013 C 
BRANCH  26  33
ATOM     33  O   UNL     1       4.386  -4.510   8.271  0.00  0.00    -0.392 OA
ATOM     34  H   UNL     1       4.617  -3.911   8.994  0.00  0.00    +0.210 HD
ENDBRANCH  26  33
ENDBRANCH  23  24
ENDBRANCH  21  23
ENDBRANCH   5  21
TORSDOF 7
