REMARK  Name = ZINC31162216
REMARK  12 active torsions:
REMARK  status: ('A' for Active; 'I' for Inactive)
REMARK    1  A    between atoms: C_1  and  C_2
REMARK    2  A    between atoms: C_2  and  C_3
REMARK    3  A    between atoms: C_3  and  O_5
REMARK    4  A    between atoms: O_5  and  C_6
REMARK    5  A    between atoms: C_6  and  C_7
REMARK    6  A    between atoms: C_6  and  C_8
REMARK    7  A    between atoms: C_6  and  C_9
REMARK    8  A    between atoms: C_11  and  O_25
REMARK    9  A    between atoms: O_25  and  C_26
REMARK   10  A    between atoms: C_26  and  C_28
REMARK   11  A    between atoms: C_28  and  C_29
REMARK   12  A    between atoms: C_28  and  C_30
REMARK                            x       y       z     vdW  Elec       q    Type
REMARK                         _______ _______ _______ _____ _____    ______ ____
ROOT
ATOM      1  C   UNL     1       1.048   3.529   0.011  0.00  0.00    +0.261 C 
ATOM      2  C   UNL     1       0.134   3.957  -1.162  0.00  0.00    +0.254 C 
ATOM      3  C   UNL     1      -0.673   5.079  -0.537  0.00  0.00    +0.039 A 
ATOM      4  C   UNL     1      -1.442   6.059  -1.086  0.00  0.00    +0.022 A 
ATOM      5  C   UNL     1      -2.070   6.995  -0.257  0.00  0.00    +0.018 A 
ATOM      6  C   UNL     1      -2.903   8.062  -0.816  0.00  0.00    +0.018 A 
ATOM      7  C   UNL     1      -3.482   8.940   0.043  0.00  0.00    +0.092 A 
ATOM      8  C   UNL     1      -3.271   8.805   1.431  0.00  0.00    +0.337 A 
ATOM      9  O   UNL     1      -3.795   9.600   2.190  0.00  0.00    -0.245 OA
ATOM     10  O   UNL     1      -2.506   7.825   1.937  0.00  0.00    -0.422 OA
ATOM     11  C   UNL     1      -1.902   6.918   1.138  0.00  0.00    +0.143 A 
ATOM     12  C   UNL     1      -1.119   5.911   1.677  0.00  0.00    +0.093 A 
ATOM     13  C   UNL     1      -0.502   4.983   0.845  0.00  0.00    +0.132 A 
ATOM     14  O   UNL     1       0.291   3.925   1.167  0.00  0.00    -0.480 OA
ENDROOT
BRANCH   1  15
ATOM     15  C   UNL     1       1.268   2.015   0.001  0.00  0.00    +0.148 C 
ATOM     16  C   UNL     1       2.068   1.608   1.240  0.00  0.00    +0.059 C 
ATOM     17  C   UNL     1       2.044   1.621  -1.258  0.00  0.00    +0.059 C 
BRANCH  15  18
ATOM     18  O   UNL     1      -0.016   1.338   0.009  0.00  0.00    -0.455 OA
BRANCH  18  19
ATOM     19  C   UNL     1       0.002  -0.004   0.002  0.00  0.00    +0.307 C 
ATOM     20  O   UNL     1       1.056  -0.594  -0.011  0.00  0.00    -0.251 OA
BRANCH  19  22
ATOM     21  C   UNL     1      -0.993  -2.276  -0.001  0.00  0.00    +0.015 C 
ATOM     22  C   UNL     1      -1.293  -0.775   0.010  0.00  0.00    +0.117 C 
ENDBRANCH  19  22
ENDBRANCH  18  19
ENDBRANCH  15  18
ENDBRANCH   1  15
BRANCH   2  23
ATOM     23  O   UNL     1      -0.729   2.864  -1.573  0.00  0.00    -0.452 OA
BRANCH  23  24
ATOM     24  C   UNL     1      -1.095   2.829  -2.864  0.00  0.00    +0.310 C 
ATOM     25  O   UNL     1      -0.707   3.683  -3.625  0.00  0.00    -0.251 OA
BRANCH  24  26
ATOM     26  C   UNL     1      -1.989   1.724  -3.364  0.00  0.00    +0.092 C 
ATOM     27  C   UNL     1      -3.317   1.760  -2.604  0.00  0.00    +0.019 C 
ATOM     28  C   UNL     1      -2.252   1.917  -4.859  0.00  0.00    +0.019 C 
ENDBRANCH  24  26
ENDBRANCH  23  24
ENDBRANCH   2  23
TORSDOF 7
