REMARK  Name = ZINC62535935
REMARK  7 active torsions:
REMARK  status: ('A' for Active; 'I' for Inactive)
REMARK    1  A    between atoms: C_1  and  C_2
REMARK    2  A    between atoms: C_2  and  C_3
REMARK    3  A    between atoms: N_7  and  C_19
REMARK    4  A    between atoms: C_10  and  N_18
REMARK    5  A    between atoms: C_12  and  C_15
REMARK    6  A    between atoms: C_15  and  C_16
REMARK    7  A    between atoms: C_15  and  C_17
REMARK                            x       y       z     vdW  Elec       q    Type
REMARK                         _______ _______ _______ _____ _____    ______ ____
ROOT
ATOM      1  C   UNL     1       0.742  -0.511   1.242  0.00  0.00    +0.259 C 
ATOM      2  C   UNL     1       0.871  -2.011   1.170  0.00  0.00    +0.260 C 
ATOM      3  O   UNL     1       1.862  -2.515   0.684  0.00  0.00    -0.271 OA
ATOM      4  N   UNL     1      -0.120  -2.792   1.649  0.00  0.00    -0.268 N 
ATOM      5  C   UNL     1      -1.197  -2.196   2.319  0.00  0.00    +0.080 A 
ATOM      6  C   UNL     1      -2.332  -2.932   2.619  0.00  0.00    +0.050 A 
ATOM      7  C   UNL     1      -3.396  -2.324   3.271  0.00  0.00    +0.027 A 
ATOM      8  C   UNL     1      -3.322  -0.982   3.620  0.00  0.00    +0.030 A 
ATOM      9  C   UNL     1      -2.188  -0.249   3.325  0.00  0.00    +0.000 A 
ATOM     10  C   UNL     1      -1.122  -0.853   2.680  0.00  0.00    +0.146 A 
ATOM     11  O   UNL     1       0.010  -0.147   2.414  0.00  0.00    -0.477 OA
ATOM     12  C   UNL     1      -0.070  -4.245   1.470  0.00  0.00    +0.138 C 
ENDROOT
BRANCH   9  13
ATOM     13  C   UNL     1      -2.111   1.207   3.705  0.00  0.00    +0.017 C 
ATOM     14  C   UNL     1      -3.238   1.975   3.011  0.00  0.00    +0.012 C 
ATOM     15  C   UNL     1      -2.257   1.347   5.222  0.00  0.00    +0.012 C 
ENDBRANCH   9  13
BRANCH   7  16
ATOM     16  N   UNL     1      -4.544  -3.064   3.577  0.00  0.00    -0.358 N 
ATOM     17  H   UNL     1      -4.596  -4.002   3.333  0.00  0.00    +0.142 HD
ATOM     18  H   UNL     1      -5.287  -2.640   4.033  0.00  0.00    +0.142 HD
ENDBRANCH   7  16
BRANCH   1  20
ATOM     19  C   UNL     1      -0.019   1.526   0.010  0.00  0.00    +0.008 C 
ATOM     20  C   UNL     1       0.002  -0.004   0.002  0.00  0.00    +0.051 C 
ENDBRANCH   1  20
TORSDOF 3
