REMARK  Name = ZINC20048632
REMARK  9 active torsions:
REMARK  status: ('A' for Active; 'I' for Inactive)
REMARK    1  A    between atoms: C_2  and  C_3
REMARK    2  A    between atoms: C_3  and  S_4
REMARK    3  A    between atoms: S_4  and  C_5
REMARK    4  A    between atoms: C_10  and  N_11
REMARK    5  A    between atoms: C_12  and  C_14
REMARK    6  A    between atoms: C_14  and  S_15
REMARK    7  A    between atoms: S_15  and  C_16
REMARK    8  A    between atoms: C_19  and  C_22
REMARK    9  A    between atoms: N_20  and  N_21
REMARK                            x       y       z     vdW  Elec       q    Type
REMARK                         _______ _______ _______ _____ _____    ______ ____
ROOT
ATOM      1  S   UNL     1       2.878  -5.691  -0.168  0.00  0.00    -0.075 S 
ENDROOT
BRANCH   1   2
ATOM      2  C   UNL     1       1.903  -4.229  -0.048  0.00  0.00    +0.209 A 
ATOM      3  N   UNL     1       0.597  -4.171   0.088  0.00  0.00    -0.121 NA
ATOM      4  N   UNL     1       0.214  -2.946   0.150  0.00  0.00    -0.127 NA
ATOM      5  C   UNL     1       1.250  -2.146   0.047  0.00  0.00    +0.183 A 
ATOM      6  N   UNL     1       2.364  -2.943  -0.079  0.00  0.00    -0.224 N 
BRANCH   5   7
ATOM      7  C   UNL     1       1.224  -0.668   0.070  0.00  0.00    +0.039 A 
ATOM      8  C   UNL     1       2.042   0.060  -0.796  0.00  0.00    +0.013 A 
ATOM      9  C   UNL     1       2.014   1.439  -0.770  0.00  0.00    +0.001 A 
ATOM     10  C   UNL     1       1.178   2.101   0.112  0.00  0.00    +0.001 A 
ATOM     11  C   UNL     1       0.365   1.387   0.973  0.00  0.00    +0.021 A 
ATOM     12  C   UNL     1       0.383   0.006   0.957  0.00  0.00    +0.052 A 
ATOM     13 CL   UNL     1      -0.639  -0.890   2.038  0.00  0.00    -0.083 Cl
ENDBRANCH   5   7
BRANCH   6  14
ATOM     14  N   UNL     1       3.661  -2.534  -0.207  0.00  0.00    -0.295 N 
ATOM     15  H   UNL     1       3.901  -1.461  -0.218  0.00  0.00    +0.163 HD
ATOM     16  H   UNL     1       4.466  -3.278  -0.300  0.00  0.00    +0.163 HD
ENDBRANCH   6  14
ENDBRANCH   1   2
BRANCH   1  17
ATOM     17  C   UNL     1       1.578  -6.946  -0.050  0.00  0.00    +0.173 C 
BRANCH  17  19
ATOM     18  N   UNL     1       1.413  -9.414  -0.066  0.00  0.00    -0.284 N 
ATOM     19  C   UNL     1       2.195  -8.318  -0.132  0.00  0.00    +0.228 C 
ATOM     20  O   UNL     1       3.396  -8.437  -0.258  0.00  0.00    -0.275 OA
ATOM     21  H   UNL     1       0.319  -9.308  -0.048  0.00  0.00    +0.155 HD
BRANCH  18  27
ATOM     22  C   UNL     1       1.280 -11.800  -0.466  0.00  0.00    +0.029 A 
ATOM     23  C   UNL     1       1.862 -13.059  -0.418  0.00  0.00    +0.016 A 
ATOM     24  C   UNL     1       3.146 -13.208   0.070  0.00  0.00    +0.001 A 
ATOM     25  C   UNL     1       3.855 -12.105   0.511  0.00  0.00    +0.002 A 
ATOM     26  C   UNL     1       3.285 -10.847   0.462  0.00  0.00    +0.024 A 
ATOM     27  C   UNL     1       1.995 -10.688  -0.021  0.00  0.00    +0.047 A 
BRANCH  22  28
ATOM     28  S   UNL     1      -0.358 -11.606  -1.088  0.00  0.00    -0.119 S 
BRANCH  28  29
ATOM     29  C   UNL     1      -0.860 -13.291  -1.533  0.00  0.00    +0.101 C 
BRANCH  29  31
ATOM     30  C   UNL     1      -2.478 -13.595  -3.336  0.00  0.00    +0.005 C 
ATOM     31  C   UNL     1      -2.262 -13.268  -2.086  0.00  0.00    -0.024 C 
ENDBRANCH  29  31
ENDBRANCH  28  29
ENDBRANCH  22  28
ENDBRANCH  18  27
ENDBRANCH  17  19
ENDBRANCH   1  17
TORSDOF 9
