REMARK  Name = ZINC13432940
REMARK  14 active torsions:
REMARK  status: ('A' for Active; 'I' for Inactive)
REMARK    1  A    between atoms: C_1  and  C_2
REMARK    2  A    between atoms: C_4  and  O_31
REMARK    3  A    between atoms: C_5  and  C_11
REMARK    4  A    between atoms: C_6  and  O_10
REMARK    5  A    between atoms: C_7  and  C_8
REMARK    6  A    between atoms: C_11  and  C_12
REMARK    7  A    between atoms: C_13  and  C_14
REMARK    8  A    between atoms: C_13  and  C_15
REMARK    9  A    between atoms: C_15  and  C_17
REMARK   10  A    between atoms: C_15  and  O_30
REMARK   11  A    between atoms: C_17  and  C_18
REMARK   12  A    between atoms: C_18  and  C_29
REMARK   13  A    between atoms: C_19  and  C_28
REMARK   14  A    between atoms: C_25  and  C_27
REMARK                            x       y       z     vdW  Elec       q    Type
REMARK                         _______ _______ _______ _____ _____    ______ ____
ROOT
ATOM      1  C   UNL     1      -3.760   2.237  -2.779  0.00  0.00    -0.021 C 
ATOM      2  C   UNL     1      -2.821   1.325  -2.724  0.00  0.00    -0.048 C 
ATOM      3  C   UNL     1      -2.408   0.593  -3.975  0.00  0.00    +0.041 C 
ENDROOT
BRANCH   1   4
ATOM      4  C   UNL     1      -4.518   2.463  -4.062  0.00  0.00    +0.069 C 
BRANCH   4   9
ATOM      5  C   UNL     1     -10.209   2.014  -3.050  0.00  0.00    +0.045 C 
ATOM      6  C   UNL     1      -8.730   2.136  -3.312  0.00  0.00    -0.033 A 
ATOM      7  C   UNL     1      -8.006   1.033  -3.660  0.00  0.00    +0.050 A 
ATOM      8  C   UNL     1      -6.640   1.136  -3.910  0.00  0.00    +0.124 A 
ATOM      9  C   UNL     1      -5.997   2.360  -3.796  0.00  0.00    +0.040 A 
ATOM     10  C   UNL     1      -6.718   3.488  -3.444  0.00  0.00    +0.134 A 
ATOM     11  C   UNL     1      -8.099   3.382  -3.198  0.00  0.00    +0.059 A 
BRANCH  11  12
ATOM     12  C   UNL     1      -8.873   4.568  -2.823  0.00  0.00    +0.262 C 
ATOM     13  O   UNL     1      -8.324   5.645  -2.725  0.00  0.00    -0.296 OA
ENDBRANCH  11  12
BRANCH  10  14
ATOM     14  O   UNL     1      -6.096   4.689  -3.336  0.00  0.00    -0.506 OA
ATOM     15  H   UNL     1      -6.081   5.198  -4.158  0.00  0.00    +0.292 HD
ENDBRANCH  10  14
BRANCH   8  16
ATOM     16  O   UNL     1      -5.933   0.033  -4.261  0.00  0.00    -0.506 OA
ATOM     17  H   UNL     1      -5.564  -0.453  -3.511  0.00  0.00    +0.292 HD
ENDBRANCH   8  16
ENDBRANCH   4   9
ENDBRANCH   1   4
BRANCH   2  18
ATOM     18  C   UNL     1      -2.155   1.008  -1.410  0.00  0.00    +0.141 C 
BRANCH  18  19
ATOM     19  O   UNL     1      -0.740   1.152  -1.547  0.00  0.00    -0.387 OA
ATOM     20  H   UNL     1      -0.344   0.552  -2.193  0.00  0.00    +0.210 HD
ENDBRANCH  18  19
BRANCH  18  21
ATOM     21  C   UNL     1      -2.484  -0.431  -1.006  0.00  0.00    +0.043 C 
BRANCH  21  22
ATOM     22  C   UNL     1      -1.960  -0.696   0.407  0.00  0.00    -0.018 C 
ATOM     23  C   UNL     1      -0.431  -0.625   0.405  0.00  0.00    -0.007 C 
ATOM     24  C   UNL     1       0.105  -0.977   1.794  0.00  0.00    +0.011 C 
ATOM     25  C   UNL     1      -0.375   0.069   2.805  0.00  0.00    +0.075 C 
ATOM     26  C   UNL     1      -1.883   0.160   2.724  0.00  0.00    +0.137 C 
ATOM     27  O   UNL     1      -2.562   0.073   3.719  0.00  0.00    -0.297 OA
ATOM     28  C   UNL     1      -2.517   0.360   1.366  0.00  0.00    +0.058 C 
ATOM     29  C   UNL     1      -4.035   0.202   1.479  0.00  0.00    +0.016 C 
ATOM     30  C   UNL     1       0.123  -1.616  -0.620  0.00  0.00    +0.008 C 
ATOM     31  C   UNL     1      -2.405  -2.087   0.864  0.00  0.00    +0.012 C 
ENDBRANCH  21  22
ENDBRANCH  18  21
ENDBRANCH   2  18
TORSDOF 9
