REMARK  Name = ZINC36603012
REMARK  18 active torsions:
REMARK  status: ('A' for Active; 'I' for Inactive)
REMARK    1  A    between atoms: C_1  and  C_2
REMARK    2  A    between atoms: C_5  and  C_9
REMARK    3  A    between atoms: C_6  and  C_8
REMARK    4  A    between atoms: C_9  and  C_11
REMARK    5  A    between atoms: C_9  and  N_22
REMARK    6  A    between atoms: N_13  and  C_14
REMARK    7  A    between atoms: C_14  and  C_15
REMARK    8  A    between atoms: C_14  and  C_16
REMARK    9  A    between atoms: C_14  and  C_17
REMARK   10  A    between atoms: C_17  and  C_18
REMARK   11  A    between atoms: C_18  and  C_19
REMARK   12  A    between atoms: C_18  and  C_20
REMARK   13  A    between atoms: C_18  and  C_21
REMARK   14  A    between atoms: N_22  and  C_23
REMARK   15  A    between atoms: C_23  and  C_24
REMARK   16  A    between atoms: C_27  and  C_29
REMARK   17  A    between atoms: C_30  and  C_32
REMARK   18  A    between atoms: C_35  and  N_38
REMARK                            x       y       z     vdW  Elec       q    Type
REMARK                         _______ _______ _______ _____ _____    ______ ____
ROOT
ATOM      1  C   UNL     1       0.539  -3.022  -1.099  0.00  0.00    +0.193 C 
ENDROOT
BRANCH   1   6
ATOM      2  C   UNL     1       2.319   1.930  -3.487  0.00  0.00    +0.044 C 
ATOM      3  C   UNL     1       1.855   0.638  -2.864  0.00  0.00    -0.050 A 
ATOM      4  C   UNL     1       2.777  -0.330  -2.511  0.00  0.00    +0.004 A 
ATOM      5  C   UNL     1       2.351  -1.514  -1.939  0.00  0.00    +0.006 A 
ATOM      6  C   UNL     1       1.003  -1.731  -1.721  0.00  0.00    -0.015 A 
ATOM      7  C   UNL     1       0.081  -0.763  -2.073  0.00  0.00    -0.045 A 
ATOM      8  C   UNL     1       0.508   0.424  -2.640  0.00  0.00    +0.007 A 
ATOM      9  C   UNL     1      -1.388  -0.999  -1.835  0.00  0.00    +0.044 C 
ENDBRANCH   1   6
BRANCH   1  10
ATOM     10  C   UNL     1       1.711  -3.723  -0.461  0.00  0.00    +0.239 C 
ATOM     11  O   UNL     1       2.135  -4.753  -0.939  0.00  0.00    -0.273 OA
ATOM     12  N   UNL     1       2.287  -3.203   0.641  0.00  0.00    -0.308 N 
ATOM     13  H   UNL     1       1.912  -2.412   1.058  0.00  0.00    +0.149 HD
BRANCH  12  14
ATOM     14  C   UNL     1       3.482  -3.833   1.209  0.00  0.00    +0.030 C 
ATOM     15  C   UNL     1       3.114  -5.205   1.778  0.00  0.00    +0.031 C 
ATOM     16  C   UNL     1       4.538  -4.003   0.115  0.00  0.00    +0.031 C 
BRANCH  14  17
ATOM     17  C   UNL     1       4.042  -2.951   2.326  0.00  0.00    +0.031 C 
BRANCH  17  18
ATOM     18  C   UNL     1       3.933  -1.480   1.918  0.00  0.00    -0.036 C 
ATOM     19  C   UNL     1       2.628  -0.896   2.462  0.00  0.00    +0.010 C 
ATOM     20  C   UNL     1       5.119  -0.702   2.491  0.00  0.00    +0.010 C 
ATOM     21  C   UNL     1       3.942  -1.373   0.392  0.00  0.00    +0.010 C 
ENDBRANCH  17  18
ENDBRANCH  14  17
ENDBRANCH  12  14
ENDBRANCH   1  10
BRANCH   1  22
ATOM     22  N   UNL     1      -0.040  -3.883  -2.134  0.00  0.00    -0.275 N 
ATOM     23  C   UNL     1      -1.288  -4.369  -1.986  0.00  0.00    +0.248 C 
ATOM     24  O   UNL     1      -1.930  -4.102  -0.989  0.00  0.00    -0.270 OA
BRANCH  23  25
ATOM     25  C   UNL     1      -1.877  -5.226  -3.037  0.00  0.00    +0.037 A 
ATOM     26  C   UNL     1      -1.236  -5.364  -4.270  0.00  0.00    +0.015 A 
ATOM     27  C   UNL     1      -1.790  -6.165  -5.246  0.00  0.00    +0.033 A 
ATOM     28  C   UNL     1      -2.979  -6.832  -5.006  0.00  0.00    +0.126 A 
ATOM     29  C   UNL     1      -3.619  -6.699  -3.787  0.00  0.00    +0.033 A 
ATOM     30  C   UNL     1      -3.072  -5.905  -2.800  0.00  0.00    +0.015 A 
BRANCH  28  31
ATOM     31  N   UNL     1      -3.568  -7.690  -6.058  0.00  0.00    +0.056 N 
ATOM     32  O   UNL     1      -3.011  -7.807  -7.125  0.00  0.00    -0.126 OA
ATOM     33  O   UNL     1      -4.607  -8.273  -5.851  0.00  0.00    -0.126 OA
ENDBRANCH  28  31
ENDBRANCH  23  25
BRANCH  22  34
ATOM     34  C   UNL     1       0.739  -4.215  -3.330  0.00  0.00    +0.183 C 
BRANCH  34  35
ATOM     35  C   UNL     1       0.331  -3.308  -4.462  0.00  0.00    +0.122 A 
ATOM     36  C   UNL     1       0.793  -2.064  -4.679  0.00  0.00    +0.046 A 
ATOM     37  C   UNL     1       0.147  -1.584  -5.842  0.00  0.00    +0.045 A 
ATOM     38  C   UNL     1      -0.671  -2.565  -6.266  0.00  0.00    +0.102 A 
ATOM     39  O   UNL     1      -0.551  -3.609  -5.430  0.00  0.00    -0.463 OA
ATOM     40  C   UNL     1      -1.565  -2.504  -7.477  0.00  0.00    +0.086 C 
ENDBRANCH  34  35
ENDBRANCH  22  34
ENDBRANCH   1  22
TORSDOF 10
