REMARK  Name = ZINC01032419
REMARK  8 active torsions:
REMARK  status: ('A' for Active; 'I' for Inactive)
REMARK    1  A    between atoms: C_1  and  C_2
REMARK    2  A    between atoms: C_3  and  S_8
REMARK    3  A    between atoms: C_4  and  C_7
REMARK    4  A    between atoms: S_8  and  N_11
REMARK    5  A    between atoms: N_11  and  C_12
REMARK    6  A    between atoms: C_15  and  N_18
REMARK    7  A    between atoms: C_19  and  C_27
REMARK    8  A    between atoms: C_21  and  C_23
REMARK                            x       y       z     vdW  Elec       q    Type
REMARK                         _______ _______ _______ _____ _____    ______ ____
ROOT
ATOM      1  C   UNL     1      -0.612   3.266  -0.448  0.00  0.00    +0.048 A 
ATOM      2  C   UNL     1      -0.911   1.987   0.004  0.00  0.00    +0.026 A 
ATOM      3  C   UNL     1       0.108   1.113   0.325  0.00  0.00    +0.029 A 
ATOM      4  C   UNL     1       1.432   1.508   0.186  0.00  0.00    +0.066 A 
ATOM      5  C   UNL     1       1.731   2.785  -0.270  0.00  0.00    +0.029 A 
ATOM      6  C   UNL     1       0.712   3.662  -0.586  0.00  0.00    +0.026 A 
ENDROOT
BRANCH   4   7
ATOM      7  N   UNL     1       2.466   0.618   0.506  0.00  0.00    -0.231 N 
ATOM      8  C   UNL     1       3.590   0.914   1.227  0.00  0.00    +0.082 A 
ATOM      9  C   UNL     1       4.335  -0.245   1.309  0.00  0.00    +0.063 A 
ATOM     10  C   UNL     1       3.646  -1.240   0.618  0.00  0.00    +0.166 A 
ATOM     11  N   UNL     1       2.537  -0.732   0.140  0.00  0.00    -0.162 NA
BRANCH   8  12
ATOM     12  C   UNL     1       3.938   2.222   1.808  0.00  0.00    +0.038 A 
ATOM     13  C   UNL     1       5.165   2.695   2.198  0.00  0.00    +0.017 A 
ATOM     14  C   UNL     1       5.246   3.966   2.721  0.00  0.00    +0.008 A 
ATOM     15  C   UNL     1       4.115   4.710   2.835  0.00  0.00    +0.046 A 
ATOM     16  S   UNL     1       2.874   3.606   2.182  0.00  0.00    -0.095 S 
ENDBRANCH   8  12
BRANCH  10  17
ATOM     17  C   UNL     1       4.102  -2.667   0.447  0.00  0.00    +0.436 C 
ATOM     18  F   UNL     1       3.214  -3.342  -0.397  0.00  0.00    -0.164 F 
ATOM     19  F   UNL     1       5.383  -2.683  -0.114  0.00  0.00    -0.164 F 
ATOM     20  F   UNL     1       4.131  -3.299   1.695  0.00  0.00    -0.164 F 
ENDBRANCH  10  17
ENDBRANCH   4   7
BRANCH   1  21
ATOM     21  N   UNL     1      -1.644   4.154  -0.767  0.00  0.00    -0.216 N 
ATOM     22  H   UNL     1      -2.163   4.569  -0.060  0.00  0.00    +0.174 HD
BRANCH  21  23
ATOM     23  S   UNL     1      -1.981   4.496  -2.352  0.00  0.00    +0.077 S 
ATOM     24  O   UNL     1      -3.083   5.393  -2.349  0.00  0.00    -0.150 OA
ATOM     25  O   UNL     1      -0.742   4.813  -2.971  0.00  0.00    -0.150 OA
BRANCH  23  28
ATOM     26  C   UNL     1      -0.332   2.133  -4.170  0.00  0.00    +0.071 C 
ATOM     27  C   UNL     1      -1.802   2.064  -3.844  0.00  0.00    +0.107 A 
ATOM     28  C   UNL     1      -2.549   3.004  -3.098  0.00  0.00    +0.173 A 
ATOM     29  C   UNL     1      -3.804   2.495  -3.093  0.00  0.00    +0.161 A 
ATOM     30  O   UNL     1      -3.751   1.348  -3.786  0.00  0.00    -0.358 OA
ATOM     31  N   UNL     1      -2.634   1.125  -4.191  0.00  0.00    -0.081 NA
ATOM     32  C   UNL     1      -5.020   3.098  -2.439  0.00  0.00    +0.091 C 
ENDBRANCH  23  28
ENDBRANCH  21  23
ENDBRANCH   1  21
TORSDOF 6
