REMARK  Name = ZINC22615930
REMARK  9 active torsions:
REMARK  status: ('A' for Active; 'I' for Inactive)
REMARK    1  A    between atoms: C_1  and  C_2
REMARK    2  A    between atoms: C_4  and  C_13
REMARK    3  A    between atoms: C_5  and  C_12
REMARK    4  A    between atoms: C_13  and  C_15
REMARK    5  A    between atoms: C_15  and  O_16
REMARK    6  A    between atoms: O_16  and  C_17
REMARK    7  A    between atoms: C_17  and  C_19
REMARK    8  A    between atoms: C_19  and  N_20
REMARK    9  A    between atoms: C_21  and  C_23
REMARK                            x       y       z     vdW  Elec       q    Type
REMARK                         _______ _______ _______ _____ _____    ______ ____
ROOT
ATOM      1  O   UNL     1      -1.151  -0.691   0.009  0.00  0.00    -0.455 OA
ENDROOT
BRANCH   1   2
ATOM      2  C   UNL     1       0.002  -0.004   0.002  0.00  0.00    +0.325 C 
ATOM      3  O   UNL     1       1.056  -0.594  -0.011  0.00  0.00    -0.249 OA
BRANCH   2   4
ATOM      4  C   UNL     1      -0.018   1.503   0.010  0.00  0.00    +0.225 C 
BRANCH   4   5
ATOM      5  N   UNL     1       1.356   2.010  -0.000  0.00  0.00    -0.301 N 
ATOM      6  C   UNL     1       1.584   3.338   0.005  0.00  0.00    +0.246 C 
ATOM      7  O   UNL     1       0.650   4.115   0.018  0.00  0.00    -0.270 OA
ATOM      8  H   UNL     1       2.202   1.307  -0.012  0.00  0.00    +0.150 HD
BRANCH   6   9
ATOM      9  C   UNL     1       2.970   3.849  -0.006  0.00  0.00    +0.055 A 
ATOM     10  C   UNL     1       4.046   2.959  -0.021  0.00  0.00    +0.016 A 
ATOM     11  C   UNL     1       5.337   3.442  -0.031  0.00  0.00    +0.021 A 
ATOM     12  C   UNL     1       5.569   4.808  -0.026  0.00  0.00    +0.042 A 
ATOM     13  C   UNL     1       4.508   5.697  -0.011  0.00  0.00    +0.040 A 
ATOM     14  C   UNL     1       3.210   5.226  -0.006  0.00  0.00    +0.054 A 
ATOM     15 CL   UNL     1       1.880   6.341   0.005  0.00  0.00    -0.083 Cl
ATOM     16 CL   UNL     1       7.199   5.408  -0.039  0.00  0.00    -0.083 Cl
ENDBRANCH   6   9
ENDBRANCH   4   5
ENDBRANCH   2   4
ENDBRANCH   1   2
BRANCH   1  17
ATOM     17  C   UNL     1      -1.056  -2.140   0.001  0.00  0.00    +0.311 C 
BRANCH  17  18
ATOM     18  C   UNL     1      -2.440  -2.735   0.011  0.00  0.00    +0.202 C 
ATOM     19  O   UNL     1      -3.412  -2.009   0.024  0.00  0.00    -0.288 OA
BRANCH  18  23
ATOM     20  C   UNL     1      -1.479  -7.738  -0.028  0.00  0.00    +0.064 C 
ATOM     21  C   UNL     1      -2.168  -6.399  -0.013  0.00  0.00    +0.023 A 
ATOM     22  C   UNL     1      -1.551  -5.205  -0.018  0.00  0.00    +0.034 A 
ATOM     23  C   UNL     1      -2.612  -4.189   0.004  0.00  0.00    +0.042 A 
ATOM     24  C   UNL     1      -3.806  -4.886   0.012  0.00  0.00    +0.033 A 
ATOM     25  N   UNL     1      -3.522  -6.204   0.002  0.00  0.00    -0.296 N 
ATOM     26  C   UNL     1      -4.473  -7.222   0.004  0.00  0.00    +0.178 A 
ATOM     27  N   UNL     1      -5.788  -7.128   0.023  0.00  0.00    -0.231 NA
ATOM     28  C   UNL     1      -6.550  -8.203   0.020  0.00  0.00    +0.121 A 
ATOM     29  C   UNL     1      -5.951  -9.420   0.006  0.00  0.00    +0.068 A 
ATOM     30  S   UNL     1      -4.230  -8.942  -0.008  0.00  0.00    -0.058 S 
ATOM     31  C   UNL     1      -5.185  -4.278   0.030  0.00  0.00    +0.064 C 
ENDBRANCH  18  23
ENDBRANCH  17  18
ENDBRANCH   1  17
TORSDOF 7
