REMARK  Name = ZINC38671701
REMARK  12 active torsions:
REMARK  status: ('A' for Active; 'I' for Inactive)
REMARK    1  A    between atoms: C_1  and  C_2
REMARK    2  A    between atoms: C_3  and  C_34
REMARK    3  A    between atoms: C_4  and  C_33
REMARK    4  A    between atoms: C_5  and  S_10
REMARK    5  A    between atoms: C_6  and  C_9
REMARK    6  A    between atoms: C_7  and  C_8
REMARK    7  A    between atoms: S_10  and  N_13
REMARK    8  A    between atoms: N_13  and  C_14
REMARK    9  A    between atoms: C_14  and  C_15
REMARK   10  A    between atoms: C_15  and  C_17
REMARK   11  A    between atoms: C_15  and  N_27
REMARK   12  A    between atoms: N_25  and  C_26
REMARK                            x       y       z     vdW  Elec       q    Type
REMARK                         _______ _______ _______ _____ _____    ______ ____
ROOT
ATOM      1  C   UNL     1       3.111  -4.736  -0.641  0.00  0.00    -0.022 C 
ENDROOT
BRANCH   1   2
ATOM      2  C   UNL     1       4.204  -4.757   0.397  0.00  0.00    -0.059 A 
ATOM      3  C   UNL     1       4.203  -5.726   1.384  0.00  0.00    +0.004 A 
ATOM      4  C   UNL     1       5.201  -5.748   2.335  0.00  0.00    +0.023 A 
ATOM      5  C   UNL     1       6.220  -4.793   2.308  0.00  0.00    +0.033 A 
ATOM      6  C   UNL     1       6.211  -3.827   1.315  0.00  0.00    -0.025 A 
ATOM      7  C   UNL     1       5.212  -3.812   0.361  0.00  0.00    +0.007 A 
ATOM      8  C   UNL     1       7.410  -2.927   1.509  0.00  0.00    +0.056 C 
ATOM      9  C   UNL     1       8.122  -3.493   2.749  0.00  0.00    +0.109 C 
ATOM     10  N   UNL     1       7.311  -4.640   3.166  0.00  0.00    -0.332 N 
ATOM     11  C   UNL     1       7.602  -5.500   4.315  0.00  0.00    +0.129 C 
ENDBRANCH   1   2
BRANCH   1  12
ATOM     12  N   UNL     1       2.791  -6.112  -1.043  0.00  0.00    +0.385 N 
ATOM     13  C   UNL     1       4.006  -6.772  -1.533  0.00  0.00    -0.078 C 
ATOM     14  C   UNL     1       3.696  -8.230  -1.877  0.00  0.00    -0.019 C 
ATOM     15  C   UNL     1       2.617  -8.274  -2.963  0.00  0.00    -0.004 C 
ATOM     16  C   UNL     1       1.380  -7.518  -2.471  0.00  0.00    -0.019 C 
ATOM     17  C   UNL     1       1.776  -6.086  -2.104  0.00  0.00    -0.078 C 
ATOM     18  H   UNL     1       2.432  -6.619  -0.248  0.00  0.00    -0.081 HD
ENDBRANCH   1  12
BRANCH   1  19
ATOM     19  C   UNL     1       1.863  -4.072  -0.053  0.00  0.00    +0.095 C 
BRANCH  19  20
ATOM     20  N   UNL     1       2.159  -2.675   0.270  0.00  0.00    -0.191 NA
ATOM     21  H   UNL     1       3.079  -2.369   0.303  0.00  0.00    +0.148 HD
BRANCH  20  22
ATOM     22  S   UNL     1       0.923  -1.617   0.579  0.00  0.00    +0.059 S 
ATOM     23  O   UNL     1      -0.019  -1.774  -0.473  0.00  0.00    -0.153 OA
ATOM     24  O   UNL     1       1.526  -0.366   0.881  0.00  0.00    -0.153 OA
BRANCH  22  29
ATOM     25  C   UNL     1      -1.800  -3.486   5.628  0.00  0.00    +0.044 C 
ATOM     26  C   UNL     1      -1.120  -3.019   4.367  0.00  0.00    -0.044 A 
ATOM     27  C   UNL     1      -1.565  -3.464   3.136  0.00  0.00    -0.043 A 
ATOM     28  C   UNL     1      -0.941  -3.036   1.980  0.00  0.00    -0.021 A 
ATOM     29  C   UNL     1       0.127  -2.162   2.053  0.00  0.00    +0.112 A 
ATOM     30  C   UNL     1       0.571  -1.715   3.284  0.00  0.00    -0.021 A 
ATOM     31  C   UNL     1      -0.055  -2.140   4.441  0.00  0.00    -0.043 A 
ATOM     32  C   UNL     1       0.425  -1.649   5.782  0.00  0.00    +0.044 C 
ATOM     33  C   UNL     1       1.736  -0.762   3.365  0.00  0.00    +0.046 C 
ATOM     34  C   UNL     1      -1.425  -3.523   0.638  0.00  0.00    +0.046 C 
ATOM     35  C   UNL     1      -2.729  -4.418   3.056  0.00  0.00    +0.044 C 
ENDBRANCH  22  29
ENDBRANCH  20  22
ENDBRANCH  19  20
ENDBRANCH   1  19
TORSDOF 6
