REMARK  Name = ZINC02415684
REMARK  7 active torsions:
REMARK  status: ('A' for Active; 'I' for Inactive)
REMARK    1  A    between atoms: C_1  and  C_2
REMARK    2  A    between atoms: C_5  and  C_32
REMARK    3  A    between atoms: C_6  and  S_8
REMARK    4  A    between atoms: S_8  and  C_11
REMARK    5  A    between atoms: N_22  and  C_25
REMARK    6  A    between atoms: C_23  and  N_24
REMARK    7  A    between atoms: C_25  and  C_26
REMARK                            x       y       z     vdW  Elec       q    Type
REMARK                         _______ _______ _______ _____ _____    ______ ____
ROOT
ATOM      1  C   UNL     1      -1.655   3.105   1.552  0.00  0.00    +0.160 A 
ATOM      2  C   UNL     1      -1.198   4.423   1.793  0.00  0.00    +0.135 A 
ATOM      3  C   UNL     1      -1.498   4.702   3.203  0.00  0.00    +0.163 A 
ATOM      4  N   UNL     1      -1.182   5.869   3.717  0.00  0.00    -0.226 NA
ATOM      5  C   UNL     1      -0.588   6.795   2.953  0.00  0.00    +0.092 A 
ATOM      6  C   UNL     1      -0.246   8.047   3.497  0.00  0.00    +0.030 A 
ATOM      7  C   UNL     1       0.357   8.983   2.715  0.00  0.00    +0.002 A 
ATOM      8  C   UNL     1       0.644   8.721   1.376  0.00  0.00    +0.002 A 
ATOM      9  C   UNL     1       0.329   7.523   0.815  0.00  0.00    +0.030 A 
ATOM     10  C   UNL     1      -0.296   6.529   1.592  0.00  0.00    +0.090 A 
ATOM     11  N   UNL     1      -0.611   5.348   1.050  0.00  0.00    -0.240 NA
ATOM     12  N   UNL     1      -2.098   3.566   3.702  0.00  0.00    -0.309 N 
ATOM     13  C   UNL     1      -2.187   2.629   2.702  0.00  0.00    +0.126 A 
ENDROOT
BRANCH   1  14
ATOM     14  S   UNL     1      -1.554   2.239   0.022  0.00  0.00    +0.031 S 
ATOM     15  O   UNL     1      -1.476   3.224  -0.999  0.00  0.00    -0.164 OA
ATOM     16  O   UNL     1      -2.573   1.248   0.048  0.00  0.00    -0.164 OA
BRANCH  14  22
ATOM     17  C   UNL     1       1.229  -2.186  -0.021  0.00  0.00    +0.044 C 
ATOM     18  C   UNL     1       1.208  -0.679  -0.013  0.00  0.00    -0.049 A 
ATOM     19  C   UNL     1       2.396   0.029  -0.021  0.00  0.00    +0.004 A 
ATOM     20  C   UNL     1       2.377   1.411  -0.015  0.00  0.00    +0.005 A 
ATOM     21  C   UNL     1       1.171   2.086   0.002  0.00  0.00    -0.025 A 
ATOM     22  C   UNL     1      -0.017   1.378   0.010  0.00  0.00    +0.097 A 
ATOM     23  C   UNL     1       0.002  -0.004   0.002  0.00  0.00    +0.031 A 
ATOM     24  C   UNL     1       1.150   3.592   0.010  0.00  0.00    +0.046 C 
ENDBRANCH  14  22
ENDBRANCH   1  14
BRANCH  13  25
ATOM     25  N   UNL     1      -2.742   1.371   2.850  0.00  0.00    -0.343 N 
ATOM     26  H   UNL     1      -2.768   0.761   2.097  0.00  0.00    +0.144 HD
ATOM     27  H   UNL     1      -3.106   1.099   3.708  0.00  0.00    +0.144 HD
ENDBRANCH  13  25
BRANCH  12  28
ATOM     28  C   UNL     1      -2.570   3.388   5.077  0.00  0.00    +0.156 C 
BRANCH  28  29
ATOM     29  C   UNL     1      -4.027   3.844   5.179  0.00  0.00    +0.138 C 
ATOM     30  C   UNL     1      -4.498   3.769   6.647  0.00  0.00    +0.035 C 
ATOM     31  C   UNL     1      -5.953   3.244   6.500  0.00  0.00    +0.031 C 
ATOM     32  C   UNL     1      -5.807   2.312   5.271  0.00  0.00    +0.160 C 
ATOM     33  O   UNL     1      -4.864   2.971   4.410  0.00  0.00    -0.375 OA
ENDBRANCH  28  29
ENDBRANCH  12  28
TORSDOF 5
