REMARK  Name = ZINC20714931
REMARK  6 active torsions:
REMARK  status: ('A' for Active; 'I' for Inactive)
REMARK    1  A    between atoms: C_1  and  C_2
REMARK    2  A    between atoms: C_2  and  C_3
REMARK    3  A    between atoms: C_3  and  N_4
REMARK    4  A    between atoms: C_5  and  C_7
REMARK    5  A    between atoms: C_20  and  C_23
REMARK    6  A    between atoms: C_28  and  C_29
REMARK                            x       y       z     vdW  Elec       q    Type
REMARK                         _______ _______ _______ _____ _____    ______ ____
ROOT
ATOM      1  C   UNL     1       4.301   2.428   0.928  0.00  0.00    +0.037 A 
ATOM      2  C   UNL     1       5.019   2.256  -0.259  0.00  0.00    +0.015 A 
ATOM      3  C   UNL     1       4.500   1.465  -1.257  0.00  0.00    +0.024 A 
ATOM      4  C   UNL     1       3.267   0.839  -1.086  0.00  0.00    +0.031 A 
ATOM      5  C   UNL     1       2.545   1.004   0.090  0.00  0.00    -0.019 A 
ATOM      6  C   UNL     1       3.067   1.800   1.094  0.00  0.00    +0.019 A 
ATOM      7  C   UNL     1       1.217   0.351   0.312  0.00  0.00    +0.049 C 
ATOM      8  C   UNL     1       0.097   1.355   0.178  0.00  0.00    -0.023 C 
ATOM      9  C   UNL     1      -0.946   0.798  -0.390  0.00  0.00    -0.030 C 
ATOM     10  C   UNL     1      -0.663  -0.658  -0.707  0.00  0.00    +0.033 C 
ATOM     11  C   UNL     1       0.892  -0.723  -0.744  0.00  0.00    +0.029 C 
ATOM     12  C   UNL     1       1.336  -0.263  -2.135  0.00  0.00    +0.105 C 
ATOM     13  N   UNL     1       2.761   0.044  -2.112  0.00  0.00    -0.336 N 
ATOM     14  H   UNL     1       3.421  -0.350  -2.898  0.00  0.00    +0.147 HD
ENDROOT
BRANCH  12  15
ATOM     15  C   UNL     1       0.592   0.992  -2.512  0.00  0.00    -0.024 A 
ATOM     16  C   UNL     1       1.038   2.221  -2.064  0.00  0.00    +0.006 A 
ATOM     17  C   UNL     1       0.359   3.373  -2.414  0.00  0.00    +0.000 A 
ATOM     18  C   UNL     1      -0.773   3.295  -3.203  0.00  0.00    +0.000 A 
ATOM     19  C   UNL     1      -1.222   2.066  -3.647  0.00  0.00    +0.004 A 
ATOM     20  C   UNL     1      -0.540   0.914  -3.302  0.00  0.00    -0.045 A 
ATOM     21  C   UNL     1      -1.030  -0.426  -3.786  0.00  0.00    +0.044 C 
ENDBRANCH  12  15
BRANCH   1  23
ATOM     22  N   UNL     1       6.041   3.882   1.844  0.00  0.00    -0.311 N 
ATOM     23  C   UNL     1       4.849   3.275   2.005  0.00  0.00    +0.244 C 
ATOM     24  O   UNL     1       4.224   3.424   3.038  0.00  0.00    -0.270 OA
ATOM     25  H   UNL     1       6.606   3.747   0.910  0.00  0.00    +0.149 HD
BRANCH  22  26
ATOM     26  C   UNL     1       6.585   4.723   2.914  0.00  0.00    +0.104 C 
BRANCH  26  28
ATOM     27  C   UNL     1       8.506   6.167   3.596  0.00  0.00    +0.005 C 
ATOM     28  C   UNL     1       7.938   5.289   2.479  0.00  0.00    +0.015 C 
ENDBRANCH  26  28
ENDBRANCH  22  26
ENDBRANCH   1  23
TORSDOF 4
