REMARK  Name = ZINC48814656
REMARK  5 active torsions:
REMARK  status: ('A' for Active; 'I' for Inactive)
REMARK    1  A    between atoms: C_1  and  C_2
REMARK    2  A    between atoms: C_2  and  C_3
REMARK    3  A    between atoms: C_6  and  C_9
REMARK    4  A    between atoms: C_11  and  C_14
REMARK    5  A    between atoms: C_17  and  N_21
REMARK                            x       y       z     vdW  Elec       q    Type
REMARK                         _______ _______ _______ _____ _____    ______ ____
ROOT
ATOM      1  C   UNL     1      -5.402  -1.997   0.043  0.00  0.00    +0.202 A 
ATOM      2  N   UNL     1      -6.141  -2.271  -1.043  0.00  0.00    -0.187 NA
ATOM      3  C   UNL     1      -7.326  -2.707  -0.680  0.00  0.00    +0.260 A 
ATOM      4  O   UNL     1      -7.373  -2.724   0.664  0.00  0.00    -0.332 OA
ATOM      5  N   UNL     1      -6.109  -2.263   1.115  0.00  0.00    -0.056 NA
ENDROOT
BRANCH   3   6
ATOM      6  C   UNL     1      -8.416  -3.111  -1.589  0.00  0.00    +0.058 A 
ATOM      7  C   UNL     1      -8.232  -3.050  -2.973  0.00  0.00    +0.016 A 
ATOM      8  C   UNL     1      -9.250  -3.428  -3.819  0.00  0.00    +0.023 A 
ATOM      9  C   UNL     1     -10.463  -3.868  -3.298  0.00  0.00    +0.026 A 
ATOM     10  C   UNL     1     -10.651  -3.930  -1.921  0.00  0.00    +0.043 A 
ATOM     11  C   UNL     1      -9.633  -3.559  -1.068  0.00  0.00    +0.055 A 
ATOM     12 CL   UNL     1      -9.866  -3.643   0.650  0.00  0.00    -0.083 Cl
BRANCH   9  13
ATOM     13  N   UNL     1     -11.491  -4.248  -4.157  0.00  0.00    -0.358 N 
ATOM     14  H   UNL     1     -11.362  -4.205  -5.117  0.00  0.00    +0.142 HD
ATOM     15  H   UNL     1     -12.337  -4.555  -3.795  0.00  0.00    +0.142 HD
ENDBRANCH   9  13
ENDBRANCH   3   6
BRANCH   1  19
ATOM     16  C   UNL     1      -1.412  -0.526   0.013  0.00  0.00    -0.048 A 
ATOM     17  C   UNL     1      -2.049  -0.765   1.217  0.00  0.00    +0.004 A 
ATOM     18  C   UNL     1      -3.344  -1.242   1.232  0.00  0.00    +0.012 A 
ATOM     19  C   UNL     1      -4.009  -1.483   0.032  0.00  0.00    +0.022 A 
ATOM     20  C   UNL     1      -3.363  -1.240  -1.178  0.00  0.00    +0.012 A 
ATOM     21  C   UNL     1      -2.070  -0.758  -1.182  0.00  0.00    +0.004 A 
BRANCH  16  23
ATOM     22  C   UNL     1      -0.019   1.526   0.010  0.00  0.00    +0.009 C 
ATOM     23  C   UNL     1       0.002  -0.004   0.002  0.00  0.00    +0.032 C 
ENDBRANCH  16  23
ENDBRANCH   1  19
TORSDOF 4
