REMARK  Name = ZINC41058433
REMARK  2 active torsions:
REMARK  status: ('A' for Active; 'I' for Inactive)
REMARK    1  A    between atoms: C_5  and  C_6
REMARK    2  A    between atoms: C_10  and  C_12
REMARK                            x       y       z     vdW  Elec       q    Type
REMARK                         _______ _______ _______ _____ _____    ______ ____
ROOT
ATOM      1  C   UNL     1      -1.128  -0.947   0.008  0.00  0.00    +0.163 A 
ATOM      2  N   UNL     1      -2.448  -0.618   0.017  0.00  0.00    -0.258 N 
ATOM      3  H   UNL     1      -2.827   0.275   0.021  0.00  0.00    +0.191 HD
ATOM      4  N   UNL     1      -3.153  -1.833   0.019  0.00  0.00    -0.157 NA
ATOM      5  C   UNL     1      -2.265  -2.793   0.012  0.00  0.00    +0.154 A 
ATOM      6  N   UNL     1      -1.044  -2.265   0.000  0.00  0.00    -0.211 NA
ENDROOT
BRANCH   1  11
ATOM      7  C   UNL     1      -0.017   1.368   0.010  0.00  0.00    +0.020 A 
ATOM      8  C   UNL     1       1.181   2.045   0.002  0.00  0.00    +0.023 A 
ATOM      9  C   UNL     1       2.342   1.337  -0.013  0.00  0.00    +0.056 A 
ATOM     10  S   UNL     1       1.754  -0.348  -0.017  0.00  0.00    -0.078 S 
ATOM     11  C   UNL     1       0.002  -0.004   0.002  0.00  0.00    +0.057 A 
ATOM     12 BR   UNL     1       4.122   1.975  -0.027  0.00  0.00    -0.043 Br
ENDBRANCH   1  11
BRANCH   5  13
ATOM     13  C   UNL     1      -2.576  -4.267   0.012  0.00  0.00    +0.059 C 
ATOM     14  C   UNL     1      -3.462  -4.620  -1.201  0.00  0.00    +0.011 C 
ATOM     15  C   UNL     1      -4.434  -5.698  -0.661  0.00  0.00    +0.001 C 
ATOM     16  C   UNL     1      -4.733  -5.199   0.775  0.00  0.00    +0.001 C 
ATOM     17  C   UNL     1      -3.385  -4.635   1.268  0.00  0.00    +0.011 C 
ENDBRANCH   5  13
TORSDOF 2
