REMARK  Name = ZINC16712900
REMARK  7 active torsions:
REMARK  status: ('A' for Active; 'I' for Inactive)
REMARK    1  A    between atoms: C_1  and  C_2
REMARK    2  A    between atoms: C_2  and  C_4
REMARK    3  A    between atoms: C_2  and  S_19
REMARK    4  A    between atoms: N_6  and  C_7
REMARK    5  A    between atoms: S_19  and  C_20
REMARK    6  A    between atoms: C_23  and  C_31
REMARK    7  A    between atoms: N_24  and  C_25
REMARK                            x       y       z     vdW  Elec       q    Type
REMARK                         _______ _______ _______ _____ _____    ______ ____
ROOT
ATOM      1  S   UNL     1       6.443   0.244   0.708  0.00  0.00    -0.073 S 
ENDROOT
BRANCH   1   2
ATOM      2  C   UNL     1       4.698   0.286   0.464  0.00  0.00    +0.197 A 
ATOM      3  N   UNL     1       3.950  -0.693   0.007  0.00  0.00    -0.122 NA
ATOM      4  N   UNL     1       2.721  -0.323  -0.045  0.00  0.00    -0.128 NA
ATOM      5  C   UNL     1       2.605   0.915   0.376  0.00  0.00    +0.169 A 
ATOM      6  N   UNL     1       3.870   1.347   0.711  0.00  0.00    -0.270 N 
BRANCH   5   7
ATOM      7  C   UNL     1       1.355   1.699   0.467  0.00  0.00    +0.020 A 
ATOM      8  C   UNL     1       1.305   2.848   1.259  0.00  0.00    +0.013 A 
ATOM      9  C   UNL     1       0.135   3.572   1.344  0.00  0.00    +0.021 A 
ATOM     10  C   UNL     1      -0.986   3.169   0.637  0.00  0.00    +0.041 A 
ATOM     11  C   UNL     1      -0.942   2.030  -0.150  0.00  0.00    +0.021 A 
ATOM     12  C   UNL     1       0.221   1.294  -0.239  0.00  0.00    +0.013 A 
ATOM     13 CL   UNL     1      -2.453   4.090   0.745  0.00  0.00    -0.084 Cl
ENDBRANCH   5   7
BRANCH   6  14
ATOM     14  C   UNL     1       4.232   2.609   1.204  0.00  0.00    +0.051 A 
ATOM     15  C   UNL     1       4.137   3.728   0.387  0.00  0.00    +0.026 A 
ATOM     16  C   UNL     1       4.489   4.970   0.877  0.00  0.00    +0.002 A 
ATOM     17  C   UNL     1       4.946   5.098   2.176  0.00  0.00    +0.000 A 
ATOM     18  C   UNL     1       5.046   3.985   2.990  0.00  0.00    +0.002 A 
ATOM     19  C   UNL     1       4.690   2.741   2.507  0.00  0.00    +0.026 A 
ENDBRANCH   6  14
ENDBRANCH   1   2
BRANCH   1  21
ATOM     20  C   UNL     1       6.121  -2.439   1.111  0.00  0.00    +0.029 C 
ATOM     21  C   UNL     1       6.795  -1.446   0.162  0.00  0.00    +0.137 C 
BRANCH  21  22
ATOM     22  C   UNL     1       8.284  -1.676   0.169  0.00  0.00    +0.230 C 
ATOM     23  O   UNL     1       8.996  -1.018   0.898  0.00  0.00    -0.274 OA
ATOM     24  N   UNL     1       8.825  -2.613  -0.635  0.00  0.00    -0.285 N 
ATOM     25  H   UNL     1       8.265  -3.093  -1.265  0.00  0.00    +0.155 HD
BRANCH  24  26
ATOM     26  C   UNL     1      10.196  -2.892  -0.561  0.00  0.00    +0.035 A 
ATOM     27  C   UNL     1      10.649  -4.194  -0.742  0.00  0.00    +0.025 A 
ATOM     28  C   UNL     1      11.998  -4.476  -0.671  0.00  0.00    +0.029 A 
ATOM     29  C   UNL     1      12.905  -3.458  -0.419  0.00  0.00    +0.067 A 
ATOM     30  C   UNL     1      12.454  -2.150  -0.237  0.00  0.00    +0.069 A 
ATOM     31  C   UNL     1      11.098  -1.869  -0.314  0.00  0.00    +0.051 A 
ATOM     32  N   UNL     1      13.579  -1.363  -0.005  0.00  0.00    -0.306 N 
ATOM     33  H   UNL     1      13.580  -0.407   0.157  0.00  0.00    +0.170 HD
ATOM     34  C   UNL     1      14.667  -2.156  -0.043  0.00  0.00    +0.325 A 
ATOM     35  O   UNL     1      15.813  -1.782   0.121  0.00  0.00    -0.247 OA
ATOM     36  N   UNL     1      14.294  -3.426  -0.291  0.00  0.00    -0.306 N 
ATOM     37  H   UNL     1      14.889  -4.188  -0.366  0.00  0.00    +0.170 HD
ENDBRANCH  24  26
ENDBRANCH  21  22
ENDBRANCH   1  21
TORSDOF 6
