REMARK  Name = ZINC60340133
REMARK  8 active torsions:
REMARK  status: ('A' for Active; 'I' for Inactive)
REMARK    1  A    between atoms: C_1  and  C_2
REMARK    2  A    between atoms: N_13  and  C_26
REMARK    3  A    between atoms: C_14  and  S_16
REMARK    4  A    between atoms: S_16  and  C_17
REMARK    5  A    between atoms: C_17  and  C_18
REMARK    6  A    between atoms: C_18  and  C_19
REMARK    7  A    between atoms: C_19  and  C_20
REMARK    8  A    between atoms: C_26  and  C_27
REMARK                            x       y       z     vdW  Elec       q    Type
REMARK                         _______ _______ _______ _____ _____    ______ ____
ROOT
ATOM      1  C   UNL     1      -0.019   1.526   0.010  0.00  0.00    +0.008 C 
ATOM      2  C   UNL     1       0.002  -0.004   0.002  0.00  0.00    -0.009 C 
ATOM      3  C   UNL     1      -1.433  -0.538   0.021  0.00  0.00    +0.008 C 
ATOM      4  C   UNL     1      -1.430  -2.045  -0.236  0.00  0.00    +0.037 C 
ATOM      5  C   UNL     1      -0.471  -2.712   0.746  0.00  0.00    -0.023 A 
ATOM      6  C   UNL     1       0.475  -1.986   1.383  0.00  0.00    -0.004 A 
ATOM      7  S   UNL     1       1.343  -3.147   2.407  0.00  0.00    -0.073 S 
ATOM      8  C   UNL     1       0.438  -4.601   1.981  0.00  0.00    +0.117 A 
ATOM      9  C   UNL     1      -0.517  -4.133   1.050  0.00  0.00    +0.076 A 
ATOM     10  C   UNL     1      -1.426  -5.096   0.503  0.00  0.00    +0.263 A 
ATOM     11  O   UNL     1      -2.284  -4.789  -0.307  0.00  0.00    -0.267 OA
ATOM     12  N   UNL     1      -1.274  -6.368   0.941  0.00  0.00    -0.283 N 
ATOM     13  C   UNL     1      -0.322  -6.731   1.845  0.00  0.00    +0.173 A 
ATOM     14  N   UNL     1       0.535  -5.866   2.370  0.00  0.00    -0.216 NA
ATOM     15  C   UNL     1       0.737  -0.516   1.249  0.00  0.00    +0.046 C 
ENDROOT
BRANCH  13  16
ATOM     16  S   UNL     1      -0.225  -8.421   2.336  0.00  0.00    -0.088 S 
BRANCH  16  17
ATOM     17  C   UNL     1       1.147  -8.455   3.522  0.00  0.00    +0.078 C 
BRANCH  17  18
ATOM     18  C   UNL     1       1.343  -9.883   4.034  0.00  0.00    +0.020 C 
BRANCH  18  19
ATOM     19  C   UNL     1       2.501  -9.912   5.034  0.00  0.00    +0.097 C 
BRANCH  19  20
ATOM     20  C   UNL     1       2.693 -11.319   5.539  0.00  0.00    +0.220 C 
ATOM     21  O   UNL     1       1.975 -12.210   5.139  0.00  0.00    -0.275 OA
ATOM     22  N   UNL     1       3.664 -11.586   6.436  0.00  0.00    -0.240 N 
ATOM     23  C   UNL     1       3.836 -12.844   6.887  0.00  0.00    +0.303 C 
ATOM     24  O   UNL     1       3.116 -13.738   6.486  0.00  0.00    -0.253 OA
ATOM     25  N   UNL     1       4.806 -13.111   7.784  0.00  0.00    -0.313 N 
ATOM     26  H   UNL     1       4.238 -10.873   6.755  0.00  0.00    +0.159 HD
ATOM     27  H   UNL     1       5.381 -12.398   8.104  0.00  0.00    +0.146 HD
ATOM     28  H   UNL     1       4.930 -14.017   8.109  0.00  0.00    +0.146 HD
ENDBRANCH  19  20
ENDBRANCH  18  19
ENDBRANCH  17  18
ENDBRANCH  16  17
ENDBRANCH  13  16
BRANCH  12  29
ATOM     29  C   UNL     1      -2.174  -7.400   0.420  0.00  0.00    +0.154 C 
BRANCH  29  30
ATOM     30  C   UNL     1      -1.573  -8.010  -0.820  0.00  0.00    -0.013 C 
ATOM     31  C   UNL     1      -1.399  -9.306  -0.893  0.00  0.00    +0.005 C 
ENDBRANCH  29  30
ENDBRANCH  12  29
TORSDOF 7
