REMARK  Name = ZINC13510262
REMARK  12 active torsions:
REMARK  status: ('A' for Active; 'I' for Inactive)
REMARK    1  A    between atoms: C_1  and  C_2
REMARK    2  A    between atoms: C_3  and  C_35
REMARK    3  A    between atoms: C_7  and  N_14
REMARK    4  A    between atoms: C_9  and  C_11
REMARK    5  A    between atoms: C_11  and  C_12
REMARK    6  A    between atoms: C_11  and  C_13
REMARK    7  A    between atoms: N_14  and  C_15
REMARK    8  A    between atoms: C_15  and  C_16
REMARK    9  A    between atoms: C_16  and  N_17
REMARK   10  A    between atoms: C_18  and  C_20
REMARK   11  A    between atoms: C_23  and  C_34
REMARK   12  A    between atoms: N_25  and  C_28
REMARK                            x       y       z     vdW  Elec       q    Type
REMARK                         _______ _______ _______ _____ _____    ______ ____
ROOT
ATOM      1  N   UNL     1      -6.000   2.973  -0.429  0.00  0.00    -0.309 N 
ATOM      2  C   UNL     1      -7.264   2.503  -0.429  0.00  0.00    +0.251 C 
ATOM      3  O   UNL     1      -7.470   1.312  -0.290  0.00  0.00    -0.270 OA
ATOM      4  H   UNL     1      -5.836   3.922  -0.540  0.00  0.00    +0.149 HD
ENDROOT
BRANCH   2   5
ATOM      5  C   UNL     1      -8.389   3.428  -0.597  0.00  0.00    +0.076 A 
ATOM      6  C   UNL     1      -9.723   3.148  -0.630  0.00  0.00    +0.032 A 
ATOM      7  C   UNL     1     -10.647   4.192  -0.797  0.00  0.00    +0.031 A 
ATOM      8  C   UNL     1     -12.065   4.381  -0.886  0.00  0.00    +0.069 A 
ATOM      9  N   UNL     1     -12.316   5.644  -1.056  0.00  0.00    -0.170 NA
ATOM     10  N   UNL     1     -11.112   6.359  -1.090  0.00  0.00    -0.225 N 
ATOM     11  C   UNL     1     -10.102   5.478  -0.933  0.00  0.00    +0.113 A 
ATOM     12  S   UNL     1      -8.354   5.198  -0.817  0.00  0.00    -0.064 S 
ATOM     13  C   UNL     1     -13.100   3.289  -0.796  0.00  0.00    +0.068 C 
BRANCH  10  14
ATOM     14  C   UNL     1     -10.979   7.743  -1.257  0.00  0.00    +0.067 A 
ATOM     15  C   UNL     1      -9.969   8.430  -0.597  0.00  0.00    +0.028 A 
ATOM     16  C   UNL     1      -9.837   9.794  -0.768  0.00  0.00    +0.002 A 
ATOM     17  C   UNL     1     -10.717  10.477  -1.587  0.00  0.00    +0.000 A 
ATOM     18  C   UNL     1     -11.727   9.797  -2.243  0.00  0.00    +0.002 A 
ATOM     19  C   UNL     1     -11.861   8.432  -2.079  0.00  0.00    +0.028 A 
ENDBRANCH  10  14
ENDBRANCH   2   5
BRANCH   1  20
ATOM     20  C   UNL     1      -4.876   2.049  -0.262  0.00  0.00    +0.123 C 
BRANCH  20  21
ATOM     21  C   UNL     1      -3.562   2.833  -0.299  0.00  0.00    +0.121 C 
BRANCH  21  22
ATOM     22  N   UNL     1      -2.438   1.909  -0.131  0.00  0.00    -0.327 N 
ATOM     23  H   UNL     1      -2.602   0.959  -0.020  0.00  0.00    +0.148 HD
BRANCH  22  30
ATOM     24  C   UNL     1      -1.345  -0.660   0.546  0.00  0.00    +0.045 C 
ATOM     25  C   UNL     1      -0.051   0.109   0.485  0.00  0.00    -0.028 A 
ATOM     26  C   UNL     1       1.116  -0.506   0.732  0.00  0.00    -0.008 A 
ATOM     27  S   UNL     1       2.321   0.795   0.541  0.00  0.00    -0.074 S 
ATOM     28  C   UNL     1       1.225   2.129   0.136  0.00  0.00    +0.114 A 
ATOM     29  C   UNL     1      -0.051   1.525   0.160  0.00  0.00    +0.051 A 
ATOM     30  C   UNL     1      -1.141   2.391  -0.132  0.00  0.00    +0.131 A 
ATOM     31  N   UNL     1      -0.898   3.662  -0.408  0.00  0.00    -0.217 NA
ATOM     32  C   UNL     1       0.325   4.160  -0.412  0.00  0.00    +0.135 A 
ATOM     33  N   UNL     1       1.375   3.408  -0.144  0.00  0.00    -0.224 NA
ATOM     34  C   UNL     1       1.351  -1.952   1.085  0.00  0.00    +0.052 C 
BRANCH  32  35
ATOM     35  C   UNL     1       0.525   5.620  -0.729  0.00  0.00    +0.051 C 
ATOM     36  C   UNL     1       1.195   6.313   0.459  0.00  0.00    +0.015 C 
ATOM     37  C   UNL     1       1.414   5.755  -1.967  0.00  0.00    +0.015 C 
ENDBRANCH  32  35
ENDBRANCH  22  30
ENDBRANCH  21  22
ENDBRANCH  20  21
ENDBRANCH   1  20
TORSDOF 7
