REMARK  Name = ZINC13816063
REMARK  6 active torsions:
REMARK  status: ('A' for Active; 'I' for Inactive)
REMARK    1  A    between atoms: C_1  and  C_2
REMARK    2  A    between atoms: C_3  and  N_15
REMARK    3  A    between atoms: N_6  and  C_9
REMARK    4  A    between atoms: N_7  and  C_8
REMARK    5  A    between atoms: N_15  and  C_16
REMARK    6  A    between atoms: N_26  and  C_29
REMARK                            x       y       z     vdW  Elec       q    Type
REMARK                         _______ _______ _______ _____ _____    ______ ____
ROOT
ATOM      1  C   UNL     1       0.221  -1.363  -2.990  0.00  0.00    +0.086 C 
ATOM      2  C   UNL     1       0.279  -1.129  -4.348  0.00  0.00    +0.059 C 
ATOM      3  C   UNL     1       0.817   0.140  -4.879  0.00  0.00    +0.000 A 
ATOM      4  C   UNL     1       1.284   1.145  -4.039  0.00  0.00    +0.009 A 
ATOM      5  C   UNL     1       1.777   2.313  -4.584  0.00  0.00    +0.001 A 
ATOM      6  C   UNL     1       1.811   2.490  -5.960  0.00  0.00    +0.001 A 
ATOM      7  C   UNL     1       1.353   1.506  -6.808  0.00  0.00    +0.014 A 
ATOM      8  C   UNL     1       0.850   0.317  -6.278  0.00  0.00    +0.046 A 
ATOM      9  C   UNL     1       0.353  -0.758  -7.146  0.00  0.00    +0.258 C 
ATOM     10  O   UNL     1       0.379  -0.612  -8.354  0.00  0.00    -0.269 OA
ATOM     11  N   UNL     1      -0.130  -1.900  -6.629  0.00  0.00    -0.202 N 
ATOM     12  C   UNL     1      -0.185  -2.136  -5.308  0.00  0.00    +0.259 C 
ATOM     13  O   UNL     1      -0.629  -3.195  -4.904  0.00  0.00    -0.269 OA
ENDROOT
BRANCH  11  14
ATOM     14  C   UNL     1      -0.590  -2.890  -7.507  0.00  0.00    +0.045 A 
ATOM     15  C   UNL     1       0.299  -3.536  -8.355  0.00  0.00    +0.024 A 
ATOM     16  C   UNL     1      -0.158  -4.512  -9.219  0.00  0.00    +0.002 A 
ATOM     17  C   UNL     1      -1.500  -4.845  -9.240  0.00  0.00    +0.000 A 
ATOM     18  C   UNL     1      -2.388  -4.203  -8.397  0.00  0.00    +0.002 A 
ATOM     19  C   UNL     1      -1.936  -3.231  -7.526  0.00  0.00    +0.024 A 
ENDBRANCH  11  14
BRANCH   1  20
ATOM     20  N   UNL     1       0.122  -0.326  -2.129  0.00  0.00    -0.314 N 
ATOM     21  H   UNL     1      -0.018   0.573  -2.467  0.00  0.00    +0.152 HD
BRANCH  20  24
ATOM     22  C   UNL     1      -0.070   1.864   0.010  0.00  0.00    +0.067 C 
ATOM     23  C   UNL     1       0.141   0.388   0.228  0.00  0.00    +0.059 A 
ATOM     24  C   UNL     1       0.221  -0.549  -0.745  0.00  0.00    +0.119 A 
ATOM     25  C   UNL     1       0.429  -1.840  -0.086  0.00  0.00    +0.293 A 
ATOM     26  O   UNL     1       0.550  -2.922  -0.632  0.00  0.00    -0.264 OA
ATOM     27  N   UNL     1       0.462  -1.602   1.242  0.00  0.00    -0.216 N 
ATOM     28  N   UNL     1       0.291  -0.228   1.441  0.00  0.00    -0.282 N 
ATOM     29  C   UNL     1       0.271   0.445   2.742  0.00  0.00    +0.171 C 
BRANCH  27  30
ATOM     30  C   UNL     1       0.641  -2.561   2.244  0.00  0.00    +0.067 A 
ATOM     31  C   UNL     1      -0.271  -2.657   3.287  0.00  0.00    +0.028 A 
ATOM     32  C   UNL     1      -0.090  -3.605   4.274  0.00  0.00    +0.002 A 
ATOM     33  C   UNL     1       0.997  -4.459   4.226  0.00  0.00    +0.000 A 
ATOM     34  C   UNL     1       1.907  -4.366   3.188  0.00  0.00    +0.002 A 
ATOM     35  C   UNL     1       1.729  -3.424   2.195  0.00  0.00    +0.028 A 
ENDBRANCH  27  30
ENDBRANCH  20  24
ENDBRANCH   1  20
TORSDOF 4
