REMARK  Name = ZINC02734476
REMARK  5 active torsions:
REMARK  status: ('A' for Active; 'I' for Inactive)
REMARK    1  A    between atoms: C_1  and  C_2
REMARK    2  A    between atoms: C_5  and  C_7
REMARK    3  A    between atoms: C_8  and  C_21
REMARK    4  A    between atoms: C_9  and  N_20
REMARK    5  A    between atoms: C_10  and  C_18
REMARK                            x       y       z     vdW  Elec       q    Type
REMARK                         _______ _______ _______ _____ _____    ______ ____
ROOT
ATOM      1  C   UNL     1      -3.679   1.522  -0.249  0.00  0.00    -0.007 C 
ATOM      2  C   UNL     1      -2.473   0.892   0.019  0.00  0.00    +0.078 C 
ATOM      3  C   UNL     1      -1.214   1.639   0.017  0.00  0.00    +0.060 C 
ATOM      4  C   UNL     1      -1.236   3.036   0.030  0.00  0.00    +0.077 C 
ATOM      5  C   UNL     1      -2.568   3.692   0.065  0.00  0.00    -0.025 C 
ATOM      6  C   UNL     1      -2.693   4.837   0.716  0.00  0.00    -0.021 C 
ATOM      7  C   UNL     1      -4.038   5.497   0.877  0.00  0.00    +0.027 C 
ATOM      8  C   UNL     1      -5.100   4.392   0.949  0.00  0.00    +0.005 C 
ATOM      9  C   UNL     1      -5.063   3.602  -0.358  0.00  0.00    +0.013 C 
ATOM     10  C   UNL     1      -3.706   2.983  -0.601  0.00  0.00    +0.052 C 
ENDROOT
BRANCH   1  15
ATOM     11  C   UNL     1      -8.456  -1.150  -1.062  0.00  0.00    +0.053 C 
ATOM     12  C   UNL     1      -7.185  -0.497  -0.583  0.00  0.00    +0.001 A 
ATOM     13  C   UNL     1      -6.672  -0.469   0.678  0.00  0.00    +0.028 A 
ATOM     14  C   UNL     1      -5.490   0.186   0.906  0.00  0.00    +0.031 A 
ATOM     15  C   UNL     1      -4.881   0.791  -0.192  0.00  0.00    +0.019 A 
ATOM     16  S   UNL     1      -6.026   0.406  -1.504  0.00  0.00    -0.093 S 
ATOM     17 BR   UNL     1      -7.581  -1.324   2.098  0.00  0.00    -0.049 Br
ENDBRANCH   1  15
BRANCH   3  18
ATOM     18  N   UNL     1      -0.011   0.966   0.007  0.00  0.00    -0.356 N 
ATOM     19  H   UNL     1       0.934   1.529   0.006  0.00  0.00    +0.142 HD
ATOM     20  H   UNL     1       0.004  -0.134   0.001  0.00  0.00    +0.142 HD
ENDBRANCH   3  18
BRANCH   4  21
ATOM     21  C   UNL     1      -0.026   3.802   0.006  0.00  0.00    +0.101 C 
ATOM     22  N   UNL     1       0.933   4.410  -0.013  0.00  0.00    -0.191 NA
ENDBRANCH   4  21
BRANCH   2  23
ATOM     23  C   UNL     1      -2.459  -0.511   0.302  0.00  0.00    +0.101 C 
ATOM     24  N   UNL     1      -2.449  -1.625   0.527  0.00  0.00    -0.191 NA
ENDBRANCH   2  23
TORSDOF 4
