REMARK  Name = ZINC12477603
REMARK  15 active torsions:
REMARK  status: ('A' for Active; 'I' for Inactive)
REMARK    1  A    between atoms: C_1  and  C_2
REMARK    2  A    between atoms: C_5  and  C_39
REMARK    3  A    between atoms: C_6  and  N_8
REMARK    4  A    between atoms: N_8  and  C_9
REMARK    5  A    between atoms: C_9  and  C_11
REMARK    6  A    between atoms: C_9  and  C_18
REMARK    7  A    between atoms: C_14  and  O_17
REMARK    8  A    between atoms: N_20  and  C_21
REMARK    9  A    between atoms: C_21  and  C_22
REMARK   10  A    between atoms: C_21  and  C_23
REMARK   11  A    between atoms: C_21  and  C_24
REMARK   12  A    between atoms: C_25  and  C_27
REMARK   13  A    between atoms: C_27  and  N_28
REMARK   14  A    between atoms: C_30  and  C_33
REMARK   15  A    between atoms: C_36  and  C_38
REMARK                            x       y       z     vdW  Elec       q    Type
REMARK                         _______ _______ _______ _____ _____    ______ ____
ROOT
ATOM      1  N   UNL     1      -4.741   2.714   3.543  0.00  0.00    -0.254 N 
ATOM      2  C   UNL     1      -5.566   3.775   3.439  0.00  0.00    +0.244 C 
ATOM      3  O   UNL     1      -6.523   3.728   2.695  0.00  0.00    -0.273 OA
ENDROOT
BRANCH   1   9
ATOM      4  C   UNL     1      -0.037   3.915   4.318  0.00  0.00    +0.044 C 
ATOM      5  C   UNL     1      -1.345   3.345   4.803  0.00  0.00    -0.049 A 
ATOM      6  C   UNL     1      -1.455   2.874   6.098  0.00  0.00    +0.004 A 
ATOM      7  C   UNL     1      -2.653   2.349   6.547  0.00  0.00    +0.005 A 
ATOM      8  C   UNL     1      -3.744   2.295   5.702  0.00  0.00    -0.029 A 
ATOM      9  C   UNL     1      -3.637   2.768   4.401  0.00  0.00    +0.041 A 
ATOM     10  C   UNL     1      -2.433   3.298   3.955  0.00  0.00    +0.027 A 
ATOM     11  C   UNL     1      -5.050   1.725   6.193  0.00  0.00    +0.045 C 
ENDBRANCH   1   9
BRANCH   1  12
ATOM     12  C   UNL     1      -5.000   1.505   2.756  0.00  0.00    +0.197 C 
BRANCH  12  13
ATOM     13  C   UNL     1      -4.841   1.816   1.290  0.00  0.00    -0.018 A 
ATOM     14  C   UNL     1      -3.742   2.531   0.851  0.00  0.00    +0.009 A 
ATOM     15  C   UNL     1      -3.592   2.812  -0.493  0.00  0.00    +0.046 A 
ATOM     16  C   UNL     1      -4.550   2.387  -1.401  0.00  0.00    +0.117 A 
ATOM     17  C   UNL     1      -5.655   1.675  -0.957  0.00  0.00    +0.046 A 
ATOM     18  C   UNL     1      -5.798   1.391   0.387  0.00  0.00    +0.009 A 
BRANCH  16  19
ATOM     19  O   UNL     1      -4.408   2.668  -2.723  0.00  0.00    -0.507 OA
ATOM     20  H   UNL     1      -4.809   3.505  -2.992  0.00  0.00    +0.292 HD
ENDBRANCH  16  19
ENDBRANCH  12  13
BRANCH  12  21
ATOM     21  C   UNL     1      -4.020   0.430   3.151  0.00  0.00    +0.239 C 
ATOM     22  O   UNL     1      -2.842   0.696   3.265  0.00  0.00    -0.273 OA
ATOM     23  N   UNL     1      -4.452  -0.826   3.377  0.00  0.00    -0.309 N 
ATOM     24  H   UNL     1      -5.394  -1.038   3.286  0.00  0.00    +0.149 HD
BRANCH  23  25
ATOM     25  C   UNL     1      -3.500  -1.871   3.761  0.00  0.00    +0.026 C 
ATOM     26  C   UNL     1      -2.809  -1.477   5.068  0.00  0.00    +0.031 C 
ATOM     27  C   UNL     1      -4.245  -3.193   3.956  0.00  0.00    +0.031 C 
ATOM     28  C   UNL     1      -2.451  -2.034   2.659  0.00  0.00    +0.031 C 
ENDBRANCH  23  25
ENDBRANCH  12  21
ENDBRANCH   1  12
BRANCH   2  29
ATOM     29  C   UNL     1      -5.300   5.018   4.248  0.00  0.00    +0.264 C 
BRANCH  29  30
ATOM     30  N   UNL     1      -6.331   6.018   3.959  0.00  0.00    -0.154 N 
ATOM     31  N   UNL     1      -6.263   6.912   3.034  0.00  0.00    -0.127 NA
ATOM     32  C   UNL     1      -7.374   7.624   3.079  0.00  0.00    +0.239 A 
ATOM     33  N   UNL     1      -8.111   7.122   4.081  0.00  0.00    -0.105 NA
ATOM     34  N   UNL     1      -7.444   6.144   4.594  0.00  0.00    -0.045 NA
BRANCH  32  35
ATOM     35  C   UNL     1      -7.734   8.758   2.200  0.00  0.00    +0.175 A 
ATOM     36  C   UNL     1      -8.883   9.480   2.260  0.00  0.00    +0.053 A 
ATOM     37  C   UNL     1      -8.804  10.455   1.245  0.00  0.00    +0.045 A 
ATOM     38  C   UNL     1      -7.625  10.276   0.617  0.00  0.00    +0.103 A 
ATOM     39  O   UNL     1      -6.981   9.249   1.197  0.00  0.00    -0.457 OA
ATOM     40  C   UNL     1      -7.115  11.091  -0.543  0.00  0.00    +0.086 C 
ENDBRANCH  32  35
ENDBRANCH  29  30
ENDBRANCH   2  29
TORSDOF 9
