REMARK  Name = ZINC38620940
REMARK  9 active torsions:
REMARK  status: ('A' for Active; 'I' for Inactive)
REMARK    1  A    between atoms: C_1  and  C_2
REMARK    2  A    between atoms: C_2  and  C_4
REMARK    3  A    between atoms: C_7  and  S_10
REMARK    4  A    between atoms: S_10  and  N_13
REMARK    5  A    between atoms: N_13  and  C_14
REMARK    6  A    between atoms: C_14  and  C_15
REMARK    7  A    between atoms: C_15  and  C_17
REMARK    8  A    between atoms: C_15  and  N_26
REMARK    9  A    between atoms: N_29  and  C_32
REMARK                            x       y       z     vdW  Elec       q    Type
REMARK                         _______ _______ _______ _____ _____    ______ ____
ROOT
ATOM      1  C   UNL     1      -5.535  -4.534  -3.671  0.00  0.00    +0.102 C 
ENDROOT
BRANCH   1   2
ATOM      2  C   UNL     1      -4.904  -5.353  -4.768  0.00  0.00    -0.025 A 
ATOM      3  C   UNL     1      -3.588  -5.129  -5.127  0.00  0.00    +0.009 A 
ATOM      4  C   UNL     1      -3.005  -5.878  -6.131  0.00  0.00    +0.050 A 
ATOM      5  C   UNL     1      -3.739  -6.856  -6.782  0.00  0.00    +0.166 A 
ATOM      6  C   UNL     1      -5.065  -7.083  -6.420  0.00  0.00    +0.167 A 
ATOM      7  C   UNL     1      -5.641  -6.332  -5.408  0.00  0.00    +0.054 A 
ATOM      8  O   UNL     1      -5.564  -8.086  -7.199  0.00  0.00    -0.453 OA
ATOM      9  C   UNL     1      -4.660  -8.192  -8.315  0.00  0.00    +0.466 C 
ATOM     10  O   UNL     1      -3.408  -7.718  -7.787  0.00  0.00    -0.453 OA
ENDBRANCH   1   2
BRANCH   1  11
ATOM     11  N   UNL     1      -5.706  -3.150  -4.131  0.00  0.00    -0.291 NA
ATOM     12  C   UNL     1      -4.409  -2.534  -4.444  0.00  0.00    +0.104 C 
ATOM     13  C   UNL     1      -4.613  -1.045  -4.744  0.00  0.00    +0.120 C 
ATOM     14  N   UNL     1      -5.633  -0.916  -5.796  0.00  0.00    -0.325 N 
ATOM     15  C   UNL     1      -6.911  -1.620  -5.617  0.00  0.00    +0.120 C 
ATOM     16  C   UNL     1      -6.617  -3.086  -5.282  0.00  0.00    +0.104 C 
BRANCH  14  17
ATOM     17  C   UNL     1      -5.393  -0.144  -6.937  0.00  0.00    +0.065 A 
ATOM     18  C   UNL     1      -4.826  -0.724  -8.064  0.00  0.00    +0.026 A 
ATOM     19  C   UNL     1      -4.590   0.041  -9.189  0.00  0.00    +0.002 A 
ATOM     20  C   UNL     1      -4.918   1.384  -9.196  0.00  0.00    +0.003 A 
ATOM     21  C   UNL     1      -5.482   1.967  -8.076  0.00  0.00    +0.040 A 
ATOM     22  C   UNL     1      -5.726   1.206  -6.948  0.00  0.00    +0.144 A 
ATOM     23  F   UNL     1      -6.283   1.774  -5.856  0.00  0.00    -0.204 F 
ENDBRANCH  14  17
ENDBRANCH   1  11
BRANCH   1  24
ATOM     24  C   UNL     1      -4.631  -4.553  -2.437  0.00  0.00    +0.129 C 
BRANCH  24  25
ATOM     25  N   UNL     1      -5.184  -3.661  -1.414  0.00  0.00    -0.188 NA
ATOM     26  H   UNL     1      -5.868  -3.016  -1.651  0.00  0.00    +0.148 HD
BRANCH  25  27
ATOM     27  S   UNL     1      -4.641  -3.756   0.148  0.00  0.00    +0.058 S 
ATOM     28  O   UNL     1      -4.674  -5.130   0.507  0.00  0.00    -0.153 OA
ATOM     29  O   UNL     1      -5.339  -2.759   0.882  0.00  0.00    -0.153 OA
BRANCH  27  33
ATOM     30  C   UNL     1      -0.278  -2.529   0.126  0.00  0.00    +0.017 A 
ATOM     31  C   UNL     1      -1.277  -1.568   0.311  0.00  0.00    +0.013 A 
ATOM     32  C   UNL     1      -2.602  -1.949   0.316  0.00  0.00    +0.029 A 
ATOM     33  C   UNL     1      -2.945  -3.279   0.139  0.00  0.00    +0.105 A 
ATOM     34  C   UNL     1      -1.961  -4.235  -0.044  0.00  0.00    +0.029 A 
ATOM     35  C   UNL     1      -0.632  -3.869  -0.058  0.00  0.00    +0.013 A 
BRANCH  30  37
ATOM     36  C   UNL     1       1.516  -0.685   0.316  0.00  0.00    +0.091 C 
ATOM     37  C   UNL     1       1.139  -2.130   0.118  0.00  0.00    +0.160 C 
ATOM     38  O   UNL     1       2.002  -2.965  -0.048  0.00  0.00    -0.292 OA
ENDBRANCH  30  37
ENDBRANCH  27  33
ENDBRANCH  25  27
ENDBRANCH  24  25
ENDBRANCH   1  24
TORSDOF 8
