REMARK  Name = ZINC40147538
REMARK  11 active torsions:
REMARK  status: ('A' for Active; 'I' for Inactive)
REMARK    1  A    between atoms: C_1  and  C_2
REMARK    2  A    between atoms: C_5  and  C_8
REMARK    3  A    between atoms: C_8  and  C_9
REMARK    4  A    between atoms: N_15  and  N_16
REMARK    5  A    between atoms: C_17  and  C_18
REMARK    6  A    between atoms: C_20  and  O_28
REMARK    7  A    between atoms: C_21  and  O_26
REMARK    8  A    between atoms: C_22  and  O_24
REMARK    9  A    between atoms: O_24  and  C_25
REMARK   10  A    between atoms: O_26  and  C_27
REMARK   11  A    between atoms: O_28  and  C_29
REMARK                            x       y       z     vdW  Elec       q    Type
REMARK                         _______ _______ _______ _____ _____    ______ ____
ROOT
ATOM      1  C   UNL     1       1.508  -4.767  -0.032  0.00  0.00    +0.144 C 
ATOM      2  C   UNL     1       1.575  -6.285  -0.070  0.00  0.00    +0.232 C 
ATOM      3  O   UNL     1       1.127  -6.927  -0.996  0.00  0.00    -0.274 OA
ATOM      4  N   UNL     1       2.153  -6.862   0.970  0.00  0.00    -0.263 N 
ATOM      5  C   UNL     1       2.666  -6.139   2.027  0.00  0.00    +0.183 C 
ATOM      6  N   UNL     1       3.260  -6.594   3.110  0.00  0.00    -0.127 NA
ATOM      7  S   UNL     1       2.336  -4.440   1.579  0.00  0.00    -0.075 S 
ATOM      8  H   UNL     1       2.219  -7.829   0.991  0.00  0.00    +0.157 HD
ENDROOT
BRANCH   6   9
ATOM      9  N   UNL     1       3.418  -7.864   3.274  0.00  0.00    -0.155 NA
ATOM     10  C   UNL     1       4.008  -8.314   4.348  0.00  0.00    +0.143 C 
BRANCH  10  11
ATOM     11  C   UNL     1       4.188  -9.762   4.535  0.00  0.00    +0.002 A 
ATOM     12  C   UNL     1       3.734 -10.657   3.561  0.00  0.00    +0.059 A 
ATOM     13  C   UNL     1       3.906 -12.018   3.740  0.00  0.00    +0.166 A 
ATOM     14  C   UNL     1       4.530 -12.497   4.889  0.00  0.00    +0.204 A 
ATOM     15  C   UNL     1       4.982 -11.609   5.861  0.00  0.00    +0.166 A 
ATOM     16  C   UNL     1       4.819 -10.247   5.686  0.00  0.00    +0.059 A 
BRANCH  15  17
ATOM     17  O   UNL     1       5.590 -12.082   6.982  0.00  0.00    -0.491 OA
ATOM     18  C   UNL     1       6.029 -11.116   7.938  0.00  0.00    +0.277 C 
ENDBRANCH  15  17
BRANCH  14  19
ATOM     19  O   UNL     1       4.697 -13.836   5.062  0.00  0.00    -0.488 OA
ATOM     20  C   UNL     1       5.905 -14.409   4.559  0.00  0.00    +0.277 C 
ENDBRANCH  14  19
BRANCH  13  21
ATOM     21  O   UNL     1       3.466 -12.889   2.793  0.00  0.00    -0.491 OA
ATOM     22  C   UNL     1       2.834 -12.328   1.640  0.00  0.00    +0.277 C 
ENDBRANCH  13  21
ENDBRANCH  10  11
ENDBRANCH   6   9
BRANCH   1  23
ATOM     23  C   UNL     1       0.059  -4.275  -0.021  0.00  0.00    +0.059 C 
BRANCH  23  28
ATOM     24  C   UNL     1      -0.018   1.503   0.010  0.00  0.00    +0.044 C 
ATOM     25  C   UNL     1       0.002  -0.004   0.002  0.00  0.00    -0.050 A 
ATOM     26  C   UNL     1       0.006  -0.689  -1.199  0.00  0.00    +0.003 A 
ATOM     27  C   UNL     1       0.025  -2.071  -1.206  0.00  0.00    +0.004 A 
ATOM     28  C   UNL     1       0.040  -2.768  -0.013  0.00  0.00    -0.046 A 
ATOM     29  C   UNL     1       0.037  -2.084   1.188  0.00  0.00    +0.004 A 
ATOM     30  C   UNL     1       0.023  -0.702   1.195  0.00  0.00    +0.003 A 
ENDBRANCH  23  28
ENDBRANCH   1  23
TORSDOF 7
