REMARK  Name = ZINC40540326
REMARK  8 active torsions:
REMARK  status: ('A' for Active; 'I' for Inactive)
REMARK    1  A    between atoms: C_1  and  C_2
REMARK    2  A    between atoms: C_6  and  C_25
REMARK    3  A    between atoms: C_8  and  N_11
REMARK    4  A    between atoms: N_14  and  C_15
REMARK    5  A    between atoms: C_20  and  C_21
REMARK    6  A    between atoms: C_21  and  C_22
REMARK    7  A    between atoms: C_25  and  C_26
REMARK    8  A    between atoms: C_25  and  C_27
REMARK                            x       y       z     vdW  Elec       q    Type
REMARK                         _______ _______ _______ _____ _____    ______ ____
ROOT
ATOM      1  N   UNL     1      -0.606  -2.564   1.244  0.00  0.00    -0.296 N 
ATOM      2  C   UNL     1      -1.266  -2.696   2.412  0.00  0.00    +0.304 C 
ATOM      3  O   UNL     1      -0.720  -2.397   3.456  0.00  0.00    -0.253 OA
ATOM      4  N   UNL     1      -2.532  -3.158   2.421  0.00  0.00    -0.269 N 
ATOM      5  H   UNL     1      -1.042  -2.802   0.411  0.00  0.00    +0.151 HD
ATOM      6  H   UNL     1      -2.996  -3.319   1.585  0.00  0.00    +0.156 HD
ENDROOT
BRANCH   1  12
ATOM      7  C   UNL     1       0.002   1.497  -0.022  0.00  0.00    +0.007 C 
ATOM      8  C   UNL     1       0.019  -0.033  -0.017  0.00  0.00    -0.012 C 
ATOM      9  C   UNL     1       0.737  -0.539  -1.269  0.00  0.00    +0.004 C 
ATOM     10  C   UNL     1       0.754  -2.069  -1.264  0.00  0.00    +0.006 C 
ATOM     11  C   UNL     1       1.488  -2.567  -0.018  0.00  0.00    +0.012 C 
ATOM     12  C   UNL     1       0.770  -2.061   1.234  0.00  0.00    +0.078 C 
ATOM     13  C   UNL     1       0.753  -0.531   1.229  0.00  0.00    +0.026 C 
BRANCH  11  14
ATOM     14  C   UNL     1       1.505  -4.097  -0.013  0.00  0.00    -0.012 C 
ATOM     15  C   UNL     1       2.224  -4.603  -1.266  0.00  0.00    +0.007 C 
ATOM     16  C   UNL     1       2.239  -4.595   1.233  0.00  0.00    +0.007 C 
ENDBRANCH  11  14
ENDBRANCH   1  12
BRANCH   4  17
ATOM     17  C   UNL     1      -3.177  -3.407   3.638  0.00  0.00    +0.038 A 
ATOM     18  C   UNL     1      -2.432  -3.684   4.777  0.00  0.00    +0.023 A 
ATOM     19  C   UNL     1      -3.071  -3.928   5.976  0.00  0.00    +0.002 A 
ATOM     20  C   UNL     1      -4.452  -3.898   6.044  0.00  0.00    +0.000 A 
ATOM     21  C   UNL     1      -5.197  -3.624   4.912  0.00  0.00    +0.006 A 
ATOM     22  C   UNL     1      -4.563  -3.372   3.711  0.00  0.00    -0.017 A 
BRANCH  22  23
ATOM     23  C   UNL     1      -5.376  -3.067   2.479  0.00  0.00    +0.132 C 
BRANCH  23  24
ATOM     24  C   UNL     1      -5.593  -4.334   1.694  0.00  0.00    +0.215 C 
ATOM     25  O   UNL     1      -5.134  -5.383   2.095  0.00  0.00    -0.276 OA
ATOM     26  N   UNL     1      -6.298  -4.303   0.545  0.00  0.00    -0.329 N 
ATOM     27  H   UNL     1      -6.666  -3.465   0.225  0.00  0.00    +0.145 HD
ATOM     28  H   UNL     1      -6.439  -5.119   0.040  0.00  0.00    +0.145 HD
ENDBRANCH  23  24
ENDBRANCH  22  23
ENDBRANCH   4  17
TORSDOF 5
