REMARK  Name = ZINC53845101
REMARK  3 active torsions:
REMARK  status: ('A' for Active; 'I' for Inactive)
REMARK    1  A    between atoms: C_7  and  C_11
REMARK    2  A    between atoms: C_11  and  C_12
REMARK    3  A    between atoms: C_18  and  C_23
REMARK                            x       y       z     vdW  Elec       q    Type
REMARK                         _______ _______ _______ _____ _____    ______ ____
ROOT
ATOM      1  C   UNL     1       0.242  -3.584  -1.434  0.00  0.00    +0.115 A 
ATOM      2  N   UNL     1      -0.612  -4.614  -1.664  0.00  0.00    -0.310 N 
ATOM      3  H   UNL     1      -0.938  -5.138  -0.916  0.00  0.00    +0.170 HD
ATOM      4  C   UNL     1      -1.015  -4.923  -2.910  0.00  0.00    +0.260 A 
ATOM      5  O   UNL     1      -1.783  -5.850  -3.101  0.00  0.00    -0.267 OA
ATOM      6  C   UNL     1      -0.529  -4.145  -4.009  0.00  0.00    +0.083 A 
ATOM      7  C   UNL     1      -0.816  -4.280  -5.434  0.00  0.00    +0.039 A 
ATOM      8  C   UNL     1      -0.230  -3.415  -6.300  0.00  0.00    +0.059 A 
ATOM      9  S   UNL     1       0.745  -2.365  -5.240  0.00  0.00    -0.076 S 
ATOM     10  C   UNL     1       0.350  -3.102  -3.675  0.00  0.00    +0.116 A 
ATOM     11  N   UNL     1       0.699  -2.854  -2.415  0.00  0.00    -0.226 NA
ENDROOT
BRANCH   7  12
ATOM     12  C   UNL     1      -1.724  -5.337  -5.922  0.00  0.00    +0.136 A 
ATOM     13  C   UNL     1      -2.771  -5.160  -6.773  0.00  0.00    +0.050 A 
ATOM     14  C   UNL     1      -3.356  -6.428  -6.967  0.00  0.00    +0.042 A 
ATOM     15  C   UNL     1      -2.646  -7.306  -6.233  0.00  0.00    +0.196 A 
ATOM     16  O   UNL     1      -1.657  -6.645  -5.608  0.00  0.00    -0.463 OA
ENDBRANCH   7  12
BRANCH   1  17
ATOM     17  C   UNL     1       0.666  -3.275  -0.021  0.00  0.00    +0.111 C 
BRANCH  17  24
ATOM     18  C   UNL     1      -0.017   1.362   0.009  0.00  0.00    +0.001 A 
ATOM     19  C   UNL     1       1.170   2.083   0.002  0.00  0.00    +0.002 A 
ATOM     20  C   UNL     1       2.386   1.436  -0.013  0.00  0.00    +0.026 A 
ATOM     21  C   UNL     1       2.428   0.046  -0.021  0.00  0.00    +0.047 A 
ATOM     22  C   UNL     1       1.223  -0.681  -0.013  0.00  0.00    +0.003 A 
ATOM     23  C   UNL     1       0.002  -0.004   0.002  0.00  0.00    +0.010 A 
ATOM     24  C   UNL     1       1.604  -2.095  -0.025  0.00  0.00    -0.015 A 
ATOM     25  C   UNL     1       2.945  -2.141  -0.038  0.00  0.00    +0.087 A 
ATOM     26  N   UNL     1       3.455  -0.871  -0.036  0.00  0.00    -0.360 N 
ATOM     27  H   UNL     1       4.399  -0.650  -0.044  0.00  0.00    +0.165 HD
ENDBRANCH  17  24
ENDBRANCH   1  17
TORSDOF 3
