REMARK  Name = ZINC03357424
REMARK  12 active torsions:
REMARK  status: ('A' for Active; 'I' for Inactive)
REMARK    1  A    between atoms: C_1  and  C_2
REMARK    2  A    between atoms: C_2  and  N_3
REMARK    3  A    between atoms: N_3  and  C_4
REMARK    4  A    between atoms: N_3  and  S_6
REMARK    5  A    between atoms: C_4  and  C_5
REMARK    6  A    between atoms: S_6  and  C_9
REMARK    7  A    between atoms: C_13  and  C_15
REMARK    8  A    between atoms: N_17  and  C_18
REMARK    9  A    between atoms: C_18  and  C_20
REMARK   10  A    between atoms: C_18  and  C_23
REMARK   11  A    between atoms: C_20  and  C_21
REMARK   12  A    between atoms: C_20  and  C_22
REMARK                            x       y       z     vdW  Elec       q    Type
REMARK                         _______ _______ _______ _____ _____    ______ ____
ROOT
ATOM      1  C   UNL     1       3.935  -4.143  -1.911  0.00  0.00    +0.245 C 
ATOM      2  O   UNL     1       3.702  -4.901  -0.990  0.00  0.00    -0.270 OA
ATOM      3  N   UNL     1       5.177  -4.076  -2.431  0.00  0.00    -0.300 N 
ATOM      4  H   UNL     1       5.363  -3.471  -3.166  0.00  0.00    +0.150 HD
ENDROOT
BRANCH   1   9
ATOM      5  C   UNL     1       0.567  -2.570  -2.446  0.00  0.00    +0.106 A 
ATOM      6  C   UNL     1       0.834  -1.713  -3.499  0.00  0.00    +0.028 A 
ATOM      7  C   UNL     1       2.109  -1.638  -4.031  0.00  0.00    +0.003 A 
ATOM      8  C   UNL     1       3.120  -2.425  -3.521  0.00  0.00    +0.013 A 
ATOM      9  C   UNL     1       2.856  -3.296  -2.463  0.00  0.00    +0.039 A 
ATOM     10  C   UNL     1       1.569  -3.363  -1.927  0.00  0.00    +0.041 A 
BRANCH   5  11
ATOM     11  S   UNL     1      -1.059  -2.654  -1.772  0.00  0.00    +0.061 S 
ATOM     12  O   UNL     1      -1.180  -3.931  -1.161  0.00  0.00    -0.153 OA
ATOM     13  O   UNL     1      -1.945  -2.211  -2.791  0.00  0.00    -0.153 OA
BRANCH  11  14
ATOM     14  N   UNL     1      -1.142  -1.536  -0.554  0.00  0.00    -0.177 NA
BRANCH  14  16
ATOM     15  C   UNL     1      -0.337   0.714  -1.074  0.00  0.00    +0.022 C 
ATOM     16  C   UNL     1      -1.568  -0.165  -0.845  0.00  0.00    +0.106 C 
ENDBRANCH  14  16
BRANCH  14  17
ATOM     17  C   UNL     1      -0.789  -1.918   0.816  0.00  0.00    +0.106 C 
ATOM     18  C   UNL     1      -2.057  -2.306   1.580  0.00  0.00    +0.022 C 
ENDBRANCH  14  17
ENDBRANCH  11  14
ENDBRANCH   5  11
ENDBRANCH   1   9
BRANCH   3  19
ATOM     19  C   UNL     1       6.246  -4.915  -1.884  0.00  0.00    +0.162 C 
BRANCH  19  20
ATOM     20  C   UNL     1       7.300  -5.136  -2.939  0.00  0.00    +0.236 C 
ATOM     21  O   UNL     1       7.280  -4.484  -3.961  0.00  0.00    -0.274 OA
ATOM     22  N   UNL     1       8.264  -6.058  -2.745  0.00  0.00    -0.295 N 
ATOM     23  C   UNL     1       8.254  -6.941  -1.567  0.00  0.00    +0.113 C 
ATOM     24  C   UNL     1       8.074  -8.379  -2.067  0.00  0.00    +0.054 C 
ATOM     25  C   UNL     1       9.016  -8.671  -3.205  0.00  0.00    -0.041 A 
ATOM     26  C   UNL     1       9.286 -10.004  -3.492  0.00  0.00    +0.004 A 
ATOM     27  C   UNL     1      10.129 -10.342  -4.529  0.00  0.00    +0.000 A 
ATOM     28  C   UNL     1      10.714  -9.348  -5.292  0.00  0.00    +0.000 A 
ATOM     29  C   UNL     1      10.452  -8.024  -5.006  0.00  0.00    +0.005 A 
ATOM     30  C   UNL     1       9.605  -7.682  -3.960  0.00  0.00    -0.027 A 
ATOM     31  C   UNL     1       9.370  -6.216  -3.696  0.00  0.00    +0.143 C 
ENDBRANCH  19  20
BRANCH  19  32
ATOM     32  C   UNL     1       6.873  -4.220  -0.674  0.00  0.00    +0.012 C 
ATOM     33  C   UNL     1       7.324  -2.813  -1.072  0.00  0.00    +0.009 C 
ATOM     34  C   UNL     1       5.840  -4.125   0.451  0.00  0.00    +0.009 C 
ENDBRANCH  19  32
ENDBRANCH   3  19
TORSDOF 8
