REMARK  Name = ZINC36762299
REMARK  4 active torsions:
REMARK  status: ('A' for Active; 'I' for Inactive)
REMARK    1  A    between atoms: C_4  and  C_7
REMARK    2  A    between atoms: C_9  and  C_17
REMARK    3  A    between atoms: N_19  and  N_20
REMARK    4  A    between atoms: C_21  and  C_23
REMARK                            x       y       z     vdW  Elec       q    Type
REMARK                         _______ _______ _______ _____ _____    ______ ____
ROOT
ATOM      1  C   UNL     1       7.234  -0.963  -0.594  0.00  0.00    +0.280 C 
ATOM      2  O   UNL     1       8.000  -1.896  -0.440  0.00  0.00    -0.267 OA
ATOM      3  N   UNL     1       7.694   0.218  -1.051  0.00  0.00    -0.229 N 
ATOM      4  H   UNL     1       7.084   0.962  -1.174  0.00  0.00    +0.173 HD
ENDROOT
BRANCH   1   7
ATOM      5  C   UNL     1       3.696  -0.686  -0.037  0.00  0.00    +0.142 A 
ATOM      6  N   UNL     1       4.849  -0.179  -0.405  0.00  0.00    -0.223 NA
ATOM      7  C   UNL     1       5.804  -1.126  -0.281  0.00  0.00    +0.148 A 
ATOM      8  C   UNL     1       5.207  -2.258   0.186  0.00  0.00    +0.051 A 
ATOM      9  N   UNL     1       3.889  -1.986   0.333  0.00  0.00    -0.327 N 
ATOM     10  C   UNL     1       2.859  -2.924   0.789  0.00  0.00    +0.123 C 
ATOM     11  C   UNL     1       3.492  -3.970   1.710  0.00  0.00    +0.022 C 
ATOM     12  C   UNL     1       3.984  -5.157   0.883  0.00  0.00    +0.002 C 
ATOM     13  C   UNL     1       5.053  -4.708  -0.109  0.00  0.00    +0.006 C 
ATOM     14  C   UNL     1       5.872  -3.573   0.497  0.00  0.00    +0.056 C 
BRANCH   5  18
ATOM     15  C   UNL     1      -0.017   1.379   0.010  0.00  0.00    +0.000 A 
ATOM     16  C   UNL     1       1.168   2.093   0.002  0.00  0.00    +0.001 A 
ATOM     17  C   UNL     1       2.377   1.428  -0.013  0.00  0.00    +0.011 A 
ATOM     18  C   UNL     1       2.403   0.033  -0.021  0.00  0.00    +0.017 A 
ATOM     19  C   UNL     1       1.204  -0.680  -0.012  0.00  0.00    +0.011 A 
ATOM     20  C   UNL     1       0.002  -0.004   0.003  0.00  0.00    +0.001 A 
ENDBRANCH   5  18
ENDBRANCH   1   7
BRANCH   3  21
ATOM     21  N   UNL     1       9.055   0.372  -1.349  0.00  0.00    -0.231 N 
ATOM     22  C   UNL     1       9.515   1.554  -1.807  0.00  0.00    +0.273 C 
ATOM     23  O   UNL     1       8.751   2.483  -1.960  0.00  0.00    -0.270 OA
ATOM     24  H   UNL     1       9.665  -0.371  -1.227  0.00  0.00    +0.173 HD
BRANCH  22  25
ATOM     25  C   UNL     1      10.978   1.720  -2.127  0.00  0.00    +0.297 C 
ATOM     26  C   UNL     1      11.353   0.820  -3.312  0.00  0.00    +0.283 C 
ATOM     27  O   UNL     1      12.743   1.012  -3.599  0.00  0.00    -0.484 OA
ATOM     28  C   UNL     1      13.184   2.299  -3.649  0.00  0.00    +0.162 A 
ATOM     29  C   UNL     1      14.396   2.579  -4.264  0.00  0.00    +0.049 A 
ATOM     30  C   UNL     1      14.859   3.880  -4.320  0.00  0.00    +0.004 A 
ATOM     31  C   UNL     1      14.116   4.905  -3.765  0.00  0.00    +0.004 A 
ATOM     32  C   UNL     1      12.908   4.633  -3.153  0.00  0.00    +0.049 A 
ATOM     33  C   UNL     1      12.437   3.330  -3.094  0.00  0.00    +0.163 A 
ATOM     34  O   UNL     1      11.241   3.079  -2.494  0.00  0.00    -0.472 OA
ENDBRANCH  22  25
ENDBRANCH   3  21
TORSDOF 4
