REMARK  Name = ZINC40885974
REMARK  2 active torsions:
REMARK  status: ('A' for Active; 'I' for Inactive)
REMARK    1  A    between atoms: C_4  and  C_7
REMARK    2  A    between atoms: C_16  and  C_18
REMARK                            x       y       z     vdW  Elec       q    Type
REMARK                         _______ _______ _______ _____ _____    ______ ____
ROOT
ATOM      1  C   UNL     1       3.699  -0.689  -0.037  0.00  0.00    +0.205 A 
ATOM      2  N   UNL     1       4.915  -0.133  -0.041  0.00  0.00    -0.107 NA
ATOM      3  N   UNL     1       5.815  -1.051  -0.056  0.00  0.00    -0.039 NA
ATOM      4  N   UNL     1       5.253  -2.211  -0.064  0.00  0.00    -0.111 N 
ATOM      5  N   UNL     1       3.865  -1.999  -0.046  0.00  0.00    -0.124 NA
ATOM      6  C   UNL     1       5.904  -3.450  -0.082  0.00  0.00    +0.177 A 
ATOM      7  C   UNL     1       7.292  -3.497  -0.086  0.00  0.00    +0.051 A 
ATOM      8  C   UNL     1       7.925  -4.729  -0.104  0.00  0.00    +0.025 A 
ATOM      9  C   UNL     1       7.141  -5.875  -0.116  0.00  0.00    +0.064 A 
ATOM     10  C   UNL     1       5.763  -5.752  -0.110  0.00  0.00    +0.076 A 
ATOM     11  N   UNL     1       5.191  -4.564  -0.088  0.00  0.00    -0.229 NA
ATOM     12 CL   UNL     1       7.882  -7.445  -0.139  0.00  0.00    -0.082 Cl
ENDROOT
BRANCH   1  16
ATOM     13  C   UNL     1      -0.017   1.379   0.010  0.00  0.00    +0.000 A 
ATOM     14  C   UNL     1       1.169   2.092   0.002  0.00  0.00    +0.001 A 
ATOM     15  C   UNL     1       2.377   1.425  -0.013  0.00  0.00    +0.012 A 
ATOM     16  C   UNL     1       2.402   0.033  -0.021  0.00  0.00    +0.023 A 
ATOM     17  C   UNL     1       1.205  -0.680  -0.013  0.00  0.00    +0.012 A 
ATOM     18  C   UNL     1       0.002  -0.004   0.002  0.00  0.00    +0.001 A 
ENDBRANCH   1  16
BRANCH  10  19
ATOM     19  C   UNL     1       4.906  -6.991  -0.124  0.00  0.00    +0.165 C 
ATOM     20 CL   UNL     1       4.569  -7.508   1.571  0.00  0.00    -0.119 Cl
ENDBRANCH  10  19
TORSDOF 2
