REMARK  Name = ZINC08695682
REMARK  12 active torsions:
REMARK  status: ('A' for Active; 'I' for Inactive)
REMARK    1  A    between atoms: C_1  and  N_2
REMARK    2  A    between atoms: N_2  and  C_3
REMARK    3  A    between atoms: N_2  and  C_4
REMARK    4  A    between atoms: C_7  and  N_10
REMARK    5  A    between atoms: C_11  and  C_13
REMARK    6  A    between atoms: C_13  and  C_15
REMARK    7  A    between atoms: C_13  and  N_22
REMARK    8  A    between atoms: N_22  and  C_23
REMARK    9  A    between atoms: C_23  and  C_24
REMARK   10  A    between atoms: C_26  and  C_29
REMARK   11  A    between atoms: C_35  and  C_37
REMARK   12  A    between atoms: C_37  and  N_38
REMARK                            x       y       z     vdW  Elec       q    Type
REMARK                         _______ _______ _______ _____ _____    ______ ____
ROOT
ATOM      1  N   UNL     1      -6.632   2.237  -1.145  0.00  0.00    -0.282 N 
ATOM      2  C   UNL     1      -7.237   1.037  -1.244  0.00  0.00    +0.234 C 
ATOM      3  O   UNL     1      -7.690   0.672  -2.308  0.00  0.00    -0.274 OA
ENDROOT
BRANCH   1   4
ATOM      4  C   UNL     1      -6.423   3.054  -2.343  0.00  0.00    +0.166 C 
BRANCH   4   5
ATOM      5  C   UNL     1      -5.676   2.233  -3.396  0.00  0.00    +0.023 C 
ATOM      6  C   UNL     1      -5.396   3.105  -4.626  0.00  0.00    +0.010 C 
ATOM      7  C   UNL     1      -4.807   2.218  -5.725  0.00  0.00    +0.027 C 
ATOM      8  C   UNL     1      -3.686   1.385  -5.176  0.00  0.00    -0.031 C 
ATOM      9  C   UNL     1      -3.486   1.179  -3.914  0.00  0.00    -0.031 C 
ATOM     10  C   UNL     1      -4.341   1.753  -2.822  0.00  0.00    +0.032 C 
ENDBRANCH   4   5
BRANCH   4  12
ATOM     11  N   UNL     1      -7.819   4.447  -3.837  0.00  0.00    -0.284 N 
ATOM     12  C   UNL     1      -7.758   3.484  -2.896  0.00  0.00    +0.238 C 
ATOM     13  O   UNL     1      -8.777   2.964  -2.493  0.00  0.00    -0.273 OA
ATOM     14  H   UNL     1      -7.002   4.832  -4.190  0.00  0.00    +0.155 HD
BRANCH  11  18
ATOM     15  C   UNL     1     -11.520   5.770  -5.231  0.00  0.00    +0.029 A 
ATOM     16  C   UNL     1     -11.352   4.442  -4.859  0.00  0.00    +0.025 A 
ATOM     17  C   UNL     1     -10.127   4.005  -4.398  0.00  0.00    +0.025 A 
ATOM     18  C   UNL     1      -9.063   4.892  -4.305  0.00  0.00    +0.034 A 
ATOM     19  C   UNL     1      -9.232   6.220  -4.671  0.00  0.00    +0.025 A 
ATOM     20  C   UNL     1     -10.456   6.657  -5.138  0.00  0.00    +0.025 A 
BRANCH  15  22
ATOM     21  C   UNL     1     -13.916   5.311  -5.683  0.00  0.00    +0.129 C 
ATOM     22  N   UNL     1     -12.762   6.214  -5.699  0.00  0.00    -0.336 N 
ATOM     23  C   UNL     1     -12.907   7.580  -6.207  0.00  0.00    +0.129 C 
ENDBRANCH  15  22
ENDBRANCH  11  18
ENDBRANCH   4  12
ENDBRANCH   1   4
BRANCH   1  24
ATOM     24  C   UNL     1      -6.182   2.726   0.161  0.00  0.00    +0.171 C 
BRANCH  24  25
ATOM     25  C   UNL     1      -4.765   2.274   0.406  0.00  0.00    +0.096 A 
ATOM     26  N   UNL     1      -3.645   2.884   0.105  0.00  0.00    -0.242 NA
ATOM     27  C   UNL     1      -2.468   2.346   0.385  0.00  0.00    +0.078 A 
ATOM     28  C   UNL     1      -2.453   1.131   1.014  0.00  0.00    +0.075 A 
ATOM     29  S   UNL     1      -4.205   0.816   1.164  0.00  0.00    -0.078 S 
BRANCH  27  30
ATOM     30  C   UNL     1      -1.206   3.043   0.035  0.00  0.00    +0.001 A 
ATOM     31  C   UNL     1       0.021   2.417   0.248  0.00  0.00    +0.010 A 
ATOM     32  C   UNL     1       1.191   3.067  -0.085  0.00  0.00    +0.001 A 
ATOM     33  C   UNL     1       1.149   4.340  -0.625  0.00  0.00    +0.000 A 
ATOM     34  C   UNL     1      -0.065   4.968  -0.834  0.00  0.00    +0.001 A 
ATOM     35  C   UNL     1      -1.242   4.327  -0.504  0.00  0.00    +0.010 A 
ENDBRANCH  27  30
ENDBRANCH  24  25
ENDBRANCH   1  24
BRANCH   2  36
ATOM     36  C   UNL     1      -7.351   0.149  -0.032  0.00  0.00    +0.210 C 
BRANCH  36  37
ATOM     37  N   UNL     1      -7.944  -1.133  -0.420  0.00  0.00    -0.255 N 
ATOM     38  C   UNL     1      -9.311  -1.399  -0.412  0.00  0.00    +0.048 A 
ATOM     39  C   UNL     1     -10.400  -0.603  -0.081  0.00  0.00    +0.024 A 
ATOM     40  C   UNL     1     -11.683  -1.109  -0.164  0.00  0.00    +0.002 A 
ATOM     41  C   UNL     1     -11.904  -2.410  -0.584  0.00  0.00    +0.001 A 
ATOM     42  C   UNL     1     -10.837  -3.217  -0.924  0.00  0.00    +0.014 A 
ATOM     43  C   UNL     1      -9.538  -2.716  -0.843  0.00  0.00    +0.048 A 
ATOM     44  C   UNL     1      -8.214  -3.301  -1.125  0.00  0.00    +0.250 C 
ATOM     45  O   UNL     1      -7.968  -4.423  -1.516  0.00  0.00    -0.282 OA
ATOM     46  C   UNL     1      -7.238  -2.203  -0.824  0.00  0.00    +0.292 C 
ATOM     47  O   UNL     1      -6.030  -2.269  -0.925  0.00  0.00    -0.266 OA
ENDBRANCH  36  37
ENDBRANCH   2  36
TORSDOF 10
