REMARK  Name = ZINC05050533
REMARK  5 active torsions:
REMARK  status: ('A' for Active; 'I' for Inactive)
REMARK    1  A    between atoms: C_3  and  C_10
REMARK    2  A    between atoms: C_5  and  N_7
REMARK    3  A    between atoms: C_13  and  C_15
REMARK    4  A    between atoms: N_17  and  C_18
REMARK    5  A    between atoms: C_19  and  C_26
REMARK                            x       y       z     vdW  Elec       q    Type
REMARK                         _______ _______ _______ _____ _____    ______ ____
ROOT
ATOM      1  C   UNL     1      -0.070   5.322   0.033  0.00  0.00    +0.136 A 
ATOM      2  C   UNL     1      -1.190   6.103   0.042  0.00  0.00    +0.050 A 
ATOM      3  C   UNL     1      -0.763   7.434   0.051  0.00  0.00    +0.055 A 
ATOM      4  C   UNL     1       0.615   7.410   0.038  0.00  0.00    +0.190 A 
ATOM      5  O   UNL     1       1.011   6.120   0.027  0.00  0.00    -0.450 OA
ENDROOT
BRANCH   1   8
ATOM      6  C   UNL     1      -1.222   1.748   0.017  0.00  0.00    +0.003 A 
ATOM      7  C   UNL     1      -1.248   3.127   0.031  0.00  0.00    +0.012 A 
ATOM      8  C   UNL     1      -0.050   3.845   0.024  0.00  0.00    +0.019 A 
ATOM      9  C   UNL     1       1.167   3.160   0.008  0.00  0.00    +0.044 A 
ATOM     10  C   UNL     1       1.178   1.781   0.000  0.00  0.00    +0.127 A 
ATOM     11  C   UNL     1      -0.013   1.076   0.008  0.00  0.00    +0.033 A 
BRANCH  10  12
ATOM     12  N   UNL     1       2.467   1.053  -0.016  0.00  0.00    +0.056 N 
ATOM     13  O   UNL     1       2.479  -0.165  -0.022  0.00  0.00    -0.126 OA
ATOM     14  O   UNL     1       3.516   1.672  -0.022  0.00  0.00    -0.126 OA
ENDBRANCH  10  12
ENDBRANCH   1   8
BRANCH   4  15
ATOM     15  C   UNL     1       1.495   8.580   0.036  0.00  0.00    +0.284 C 
ATOM     16  O   UNL     1       1.019   9.700   0.047  0.00  0.00    -0.266 OA
ATOM     17  N   UNL     1       2.833   8.417   0.022  0.00  0.00    -0.272 N 
ATOM     18  H   UNL     1       3.213   7.524   0.014  0.00  0.00    +0.156 HD
BRANCH  17  19
ATOM     19  C   UNL     1       3.667   9.524   0.021  0.00  0.00    +0.090 A 
ATOM     20  C   UNL     1       5.050   9.559   0.008  0.00  0.00    +0.084 A 
ATOM     21  C   UNL     1       5.695  10.872   0.008  0.00  0.00    -0.018 A 
ATOM     22  C   UNL     1       4.853  11.921   0.023  0.00  0.00    -0.004 A 
ATOM     23  S   UNL     1       3.230  11.199   0.027  0.00  0.00    -0.077 S 
ATOM     24  C   UNL     1       5.588  13.234   0.025  0.00  0.00    +0.043 C 
ATOM     25  C   UNL     1       7.030  12.872   0.445  0.00  0.00    +0.010 C 
ATOM     26  C   UNL     1       7.129  11.402  -0.008  0.00  0.00    +0.037 C 
BRANCH  20  27
ATOM     27  C   UNL     1       5.823   8.354  -0.005  0.00  0.00    +0.102 C 
ATOM     28  N   UNL     1       6.436   7.397  -0.015  0.00  0.00    -0.191 NA
ENDBRANCH  20  27
ENDBRANCH  17  19
ENDBRANCH   4  15
TORSDOF 5
