REMARK  Name = ZINC39571242
REMARK  4 active torsions:
REMARK  status: ('A' for Active; 'I' for Inactive)
REMARK    1  A    between atoms: C_6  and  C_11
REMARK    2  A    between atoms: C_13  and  C_17
REMARK    3  A    between atoms: N_19  and  N_20
REMARK    4  A    between atoms: C_21  and  C_22
REMARK                            x       y       z     vdW  Elec       q    Type
REMARK                         _______ _______ _______ _____ _____    ______ ____
ROOT
ATOM      1  C   UNL     1       4.982  -2.713  -0.060  0.00  0.00    +0.092 C 
ATOM      2  C   UNL     1       5.119  -4.053  -0.074  0.00  0.00    +0.041 C 
ATOM      3  C   UNL     1       6.622  -4.266  -0.087  0.00  0.00    +0.240 C 
ATOM      4  N   UNL     1       7.155  -2.894  -0.079  0.00  0.00    -0.170 NA
ATOM      5  N   UNL     1       6.202  -2.112  -0.070  0.00  0.00    -0.153 NA
ENDROOT
BRANCH   1  11
ATOM      6  C   UNL     1      -0.016   1.357   0.009  0.00  0.00    +0.001 A 
ATOM      7  C   UNL     1       1.168   2.091   0.002  0.00  0.00    +0.001 A 
ATOM      8  C   UNL     1       2.378   1.468  -0.013  0.00  0.00    +0.008 A 
ATOM      9  C   UNL     1       2.437   0.063  -0.021  0.00  0.00    -0.017 A 
ATOM     10  C   UNL     1       3.667  -0.612  -0.036  0.00  0.00    +0.018 A 
ATOM     11  C   UNL     1       3.685  -1.994  -0.044  0.00  0.00    +0.002 A 
ATOM     12  C   UNL     1       2.485  -2.724  -0.036  0.00  0.00    +0.011 A 
ATOM     13  C   UNL     1       1.284  -2.089  -0.021  0.00  0.00    +0.009 A 
ATOM     14  C   UNL     1       1.232  -0.684  -0.013  0.00  0.00    -0.018 A 
ATOM     15  C   UNL     1       0.002  -0.004   0.002  0.00  0.00    +0.008 A 
ENDBRANCH   1  11
BRANCH   3  16
ATOM     16  C   UNL     1       7.045  -4.997  -1.335  0.00  0.00    +0.263 C 
ATOM     17  O   UNL     1       7.512  -4.381  -2.270  0.00  0.00    -0.271 OA
ATOM     18  N   UNL     1       6.903  -6.335  -1.413  0.00  0.00    -0.205 N 
ATOM     19  H   UNL     1       6.529  -6.828  -0.666  0.00  0.00    +0.177 HD
BRANCH  18  20
ATOM     20  N   UNL     1       7.296  -7.015  -2.573  0.00  0.00    -0.188 NA
ATOM     21  C   UNL     1       7.160  -8.303  -2.648  0.00  0.00    +0.139 C 
BRANCH  21  22
ATOM     22  C   UNL     1       7.574  -9.019  -3.869  0.00  0.00    +0.013 A 
ATOM     23  C   UNL     1       7.424 -10.405  -3.956  0.00  0.00    +0.011 A 
ATOM     24  C   UNL     1       7.812 -11.067  -5.101  0.00  0.00    +0.001 A 
ATOM     25  C   UNL     1       8.351 -10.363  -6.164  0.00  0.00    +0.001 A 
ATOM     26  C   UNL     1       8.503  -8.990  -6.087  0.00  0.00    +0.020 A 
ATOM     27  C   UNL     1       8.113  -8.312  -4.949  0.00  0.00    +0.050 A 
ATOM     28 CL   UNL     1       8.298  -6.589  -4.856  0.00  0.00    -0.083 Cl
ENDBRANCH  21  22
ENDBRANCH  18  20
ENDBRANCH   3  16
TORSDOF 4
