REMARK  Name = ZINC00659110
REMARK  5 active torsions:
REMARK  status: ('A' for Active; 'I' for Inactive)
REMARK    1  A    between atoms: C_3  and  C_6
REMARK    2  A    between atoms: C_6  and  N_7
REMARK    3  A    between atoms: C_8  and  C_10
REMARK    4  A    between atoms: C_16  and  C_25
REMARK    5  A    between atoms: C_19  and  C_21
REMARK                            x       y       z     vdW  Elec       q    Type
REMARK                         _______ _______ _______ _____ _____    ______ ____
ROOT
ATOM      1  C   UNL     1       5.957   2.609   2.970  0.00  0.00    +0.096 A 
ATOM      2  C   UNL     1       5.226   2.330   4.152  0.00  0.00    +0.149 A 
ATOM      3  N   UNL     1       5.989   2.598   5.177  0.00  0.00    -0.177 NA
ATOM      4  N   UNL     1       7.225   3.055   4.722  0.00  0.00    -0.238 N 
ATOM      5  C   UNL     1       7.204   3.053   3.368  0.00  0.00    +0.130 A 
ATOM      6  N   UNL     1       8.285   3.445   2.598  0.00  0.00    -0.322 N 
ATOM      7  C   UNL     1       9.571   3.593   3.308  0.00  0.00    +0.104 C 
ATOM      8  C   UNL     1       9.312   4.314   4.636  0.00  0.00    +0.063 C 
ATOM      9  C   UNL     1       8.384   3.473   5.516  0.00  0.00    +0.215 C 
ATOM     10  H   UNL     1       8.203   3.612   1.646  0.00  0.00    +0.148 HD
ENDROOT
BRANCH   7  11
ATOM     11  C   UNL     1      10.525   4.400   2.466  0.00  0.00    -0.027 A 
ATOM     12  C   UNL     1      10.066   5.498   1.762  0.00  0.00    +0.006 A 
ATOM     13  C   UNL     1      10.940   6.239   0.990  0.00  0.00    +0.015 A 
ATOM     14  C   UNL     1      12.275   5.882   0.921  0.00  0.00    +0.018 A 
ATOM     15  C   UNL     1      12.733   4.783   1.625  0.00  0.00    +0.015 A 
ATOM     16  C   UNL     1      11.859   4.046   2.401  0.00  0.00    +0.006 A 
ATOM     17 BR   UNL     1      13.471   6.895  -0.136  0.00  0.00    -0.050 Br
ENDBRANCH   7  11
BRANCH   1  19
ATOM     18  N   UNL     1       4.234   2.004   1.353  0.00  0.00    -0.307 N 
ATOM     19  C   UNL     1       5.483   2.450   1.589  0.00  0.00    +0.249 C 
ATOM     20  O   UNL     1       6.218   2.723   0.659  0.00  0.00    -0.270 OA
ATOM     21  H   UNL     1       3.648   1.787   2.095  0.00  0.00    +0.149 HD
BRANCH  18  22
ATOM     22  C   UNL     1       3.761   1.845  -0.024  0.00  0.00    +0.147 C 
BRANCH  22  25
ATOM     23  C   UNL     1      -0.016   1.351   0.009  0.00  0.00    +0.008 A 
ATOM     24  C   UNL     1       1.183   2.038   0.002  0.00  0.00    +0.013 A 
ATOM     25  C   UNL     1       2.343   1.336  -0.013  0.00  0.00    +0.007 A 
ATOM     26  S   UNL     1       1.754  -0.349  -0.017  0.00  0.00    -0.100 S 
ATOM     27  C   UNL     1       0.002  -0.004   0.002  0.00  0.00    +0.045 A 
ENDBRANCH  22  25
ENDBRANCH  18  22
ENDBRANCH   1  19
BRANCH   9  28
ATOM     28  C   UNL     1       7.914   4.296   6.717  0.00  0.00    +0.412 C 
ATOM     29  F   UNL     1       7.062   3.519   7.510  0.00  0.00    -0.168 F 
ATOM     30  F   UNL     1       9.022   4.694   7.473  0.00  0.00    -0.168 F 
ATOM     31  F   UNL     1       7.227   5.428   6.265  0.00  0.00    -0.168 F 
ENDBRANCH   9  28
TORSDOF 5
