REMARK  Name = ZINC34968813
REMARK  18 active torsions:
REMARK  status: ('A' for Active; 'I' for Inactive)
REMARK    1  A    between atoms: C_1  and  C_2
REMARK    2  A    between atoms: C_2  and  C_3
REMARK    3  A    between atoms: C_3  and  C_4
REMARK    4  A    between atoms: C_4  and  C_5
REMARK    5  A    between atoms: C_5  and  C_7
REMARK    6  A    between atoms: C_5  and  C_9
REMARK    7  A    between atoms: C_7  and  C_8
REMARK    8  A    between atoms: N_11  and  C_12
REMARK    9  A    between atoms: N_11  and  C_32
REMARK   10  A    between atoms: C_12  and  C_13
REMARK   11  A    between atoms: C_13  and  C_14
REMARK   12  A    between atoms: N_16  and  C_17
REMARK   13  A    between atoms: N_16  and  C_25
REMARK   14  A    between atoms: C_17  and  C_18
REMARK   15  A    between atoms: C_18  and  C_19
REMARK   16  A    between atoms: C_25  and  C_26
REMARK   17  A    between atoms: C_32  and  C_34
REMARK   18  A    between atoms: C_32  and  C_35
REMARK                            x       y       z     vdW  Elec       q    Type
REMARK                         _______ _______ _______ _____ _____    ______ ____
ROOT
ATOM      1  C   UNL     1       0.790  -5.763  -3.745  0.00  0.00    +0.117 C 
ENDROOT
BRANCH   1   4
ATOM      2  C   UNL     1       0.626  -3.489  -2.885  0.00  0.00    +0.219 C 
ATOM      3  O   UNL     1      -0.360  -3.824  -2.264  0.00  0.00    -0.275 OA
ATOM      4  N   UNL     1       1.307  -4.398  -3.611  0.00  0.00    -0.294 N 
BRANCH   4   5
ATOM      5  C   UNL     1       2.563  -4.023  -4.264  0.00  0.00    +0.103 C 
ATOM      6  C   UNL     1       3.655  -3.846  -3.206  0.00  0.00    +0.033 C 
BRANCH   5   7
ATOM      7  C   UNL     1       2.970  -5.105  -5.230  0.00  0.00    -0.027 A 
ATOM      8  C   UNL     1       3.361  -6.343  -4.756  0.00  0.00    +0.005 A 
ATOM      9  C   UNL     1       3.734  -7.336  -5.643  0.00  0.00    +0.000 A 
ATOM     10  C   UNL     1       3.716  -7.091  -7.003  0.00  0.00    +0.000 A 
ATOM     11  C   UNL     1       3.324  -5.853  -7.477  0.00  0.00    +0.000 A 
ATOM     12  C   UNL     1       2.947  -4.861  -6.591  0.00  0.00    +0.005 A 
ENDBRANCH   5   7
ENDBRANCH   4   5
BRANCH   2  13
ATOM     13  C   UNL     1       1.090  -2.055  -2.847  0.00  0.00    +0.075 C 
BRANCH  13  14
ATOM     14  C   UNL     1       0.748  -1.373  -4.173  0.00  0.00    +0.009 C 
ATOM     15  C   UNL     1      -0.772  -1.299  -4.332  0.00  0.00    +0.004 C 
ENDBRANCH  13  14
BRANCH  13  16
ATOM     16  C   UNL     1       0.389  -1.323  -1.701  0.00  0.00    +0.013 C 
BRANCH  16  17
ATOM     17  C   UNL     1       0.936   0.102  -1.596  0.00  0.00    +0.000 C 
BRANCH  17  19
ATOM     18  C   UNL     1       0.703   2.296  -0.423  0.00  0.00    +0.004 C 
ATOM     19  C   UNL     1       0.156   0.871  -0.528  0.00  0.00    -0.003 C 
ENDBRANCH  17  19
ENDBRANCH  16  17
ENDBRANCH  13  16
ENDBRANCH   2  13
ENDBRANCH   1   4
BRANCH   1  20
ATOM     20  C   UNL     1      -0.182  -5.826  -4.925  0.00  0.00    +0.115 C 
BRANCH  20  21
ATOM     21  C   UNL     1      -0.713  -7.229  -5.064  0.00  0.00    +0.217 C 
ATOM     22  O   UNL     1      -0.278  -8.115  -4.358  0.00  0.00    -0.276 OA
ATOM     23  N   UNL     1      -1.671  -7.500  -5.972  0.00  0.00    -0.297 N 
BRANCH  23  24
ATOM     24  C   UNL     1      -2.277  -8.834  -6.022  0.00  0.00    +0.113 C 
BRANCH  24  25
ATOM     25  C   UNL     1      -3.497  -8.875  -5.100  0.00  0.00    +0.054 C 
BRANCH  25  26
ATOM     26  C   UNL     1      -4.120 -10.246  -5.152  0.00  0.00    -0.046 A 
ATOM     27  C   UNL     1      -5.099 -10.526  -6.087  0.00  0.00    +0.004 A 
ATOM     28  C   UNL     1      -5.670 -11.784  -6.135  0.00  0.00    +0.000 A 
ATOM     29  C   UNL     1      -5.262 -12.762  -5.247  0.00  0.00    +0.000 A 
ATOM     30  C   UNL     1      -4.282 -12.483  -4.313  0.00  0.00    +0.000 A 
ATOM     31  C   UNL     1      -3.708 -11.226  -4.268  0.00  0.00    +0.004 A 
ENDBRANCH  25  26
ENDBRANCH  24  25
ENDBRANCH  23  24
BRANCH  23  32
ATOM     32  C   UNL     1      -2.108  -6.462  -6.909  0.00  0.00    +0.142 C 
BRANCH  32  33
ATOM     33  C   UNL     1      -1.345  -6.599  -8.201  0.00  0.00    -0.030 A 
ATOM     34  C   UNL     1      -0.207  -5.845  -8.415  0.00  0.00    +0.005 A 
ATOM     35  C   UNL     1       0.493  -5.970  -9.600  0.00  0.00    +0.000 A 
ATOM     36  C   UNL     1       0.054  -6.850 -10.572  0.00  0.00    +0.000 A 
ATOM     37  C   UNL     1      -1.084  -7.605 -10.358  0.00  0.00    +0.000 A 
ATOM     38  C   UNL     1      -1.781  -7.482  -9.171  0.00  0.00    +0.005 A 
ENDBRANCH  32  33
ENDBRANCH  23  32
ENDBRANCH  20  21
ENDBRANCH   1  20
TORSDOF 15
