REMARK  Name = ZINC39693477
REMARK  11 active torsions:
REMARK  status: ('A' for Active; 'I' for Inactive)
REMARK    1  A    between atoms: C_1  and  C_2
REMARK    2  A    between atoms: C_5  and  C_10
REMARK    3  A    between atoms: C_14  and  C_23
REMARK    4  A    between atoms: N_25  and  C_26
REMARK    5  A    between atoms: C_26  and  C_27
REMARK    6  A    between atoms: C_27  and  N_28
REMARK    7  A    between atoms: C_29  and  O_31
REMARK    8  A    between atoms: O_31  and  C_32
REMARK    9  A    between atoms: C_32  and  C_33
REMARK   10  A    between atoms: C_32  and  C_34
REMARK   11  A    between atoms: C_32  and  C_35
REMARK                            x       y       z     vdW  Elec       q    Type
REMARK                         _______ _______ _______ _____ _____    ______ ____
ROOT
ATOM      1  C   UNL     1       0.161  -4.532   0.066  0.00  0.00    +0.250 C 
ATOM      2  O   UNL     1       0.289  -5.231   1.052  0.00  0.00    -0.270 OA
ATOM      3  N   UNL     1       0.024  -5.098  -1.149  0.00  0.00    -0.296 N 
ATOM      4  C   UNL     1      -0.036  -4.421  -2.466  0.00  0.00    +0.121 C 
ATOM      5  C   UNL     1       0.779  -5.332  -3.411  0.00  0.00    +0.100 C 
ATOM      6  C   UNL     1       0.732  -6.721  -2.754  0.00  0.00    -0.004 C 
ATOM      7  C   UNL     1      -0.093  -6.541  -1.472  0.00  0.00    +0.115 C 
ATOM      8  C   UNL     1       0.053  -7.723  -3.684  0.00  0.00    -0.010 C 
ATOM      9  C   UNL     1       0.070  -9.109  -3.033  0.00  0.00    -0.082 C 
ATOM     10  N   UNL     1       1.457  -9.513  -2.775  0.00  0.00    +0.379 N 
ATOM     11  C   UNL     1       2.073  -8.597  -1.808  0.00  0.00    -0.082 C 
ATOM     12  C   UNL     1       2.141  -7.190  -2.407  0.00  0.00    -0.010 C 
ATOM     13  H   UNL     1       1.468 -10.451  -2.403  0.00  0.00    -0.086 HD
ATOM     14  H   UNL     1       1.979  -9.490  -3.638  0.00  0.00    -0.086 HD
ENDROOT
BRANCH   1  19
ATOM     15  C   UNL     1       0.126   1.201   0.584  0.00  0.00    +0.047 C 
ATOM     16  C   UNL     1       0.137  -0.300   0.450  0.00  0.00    -0.012 A 
ATOM     17  C   UNL     1      -0.641  -0.910  -0.519  0.00  0.00    +0.007 A 
ATOM     18  C   UNL     1      -0.637  -2.283  -0.648  0.00  0.00    +0.016 A 
ATOM     19  C   UNL     1       0.153  -3.061   0.200  0.00  0.00    +0.075 A 
ATOM     20  C   UNL     1       0.938  -2.441   1.177  0.00  0.00    +0.171 A 
ATOM     21  C   UNL     1       0.929  -1.061   1.292  0.00  0.00    +0.162 A 
ATOM     22  F   UNL     1       1.690  -0.457   2.231  0.00  0.00    -0.202 F 
ATOM     23  F   UNL     1       1.706  -3.186   2.002  0.00  0.00    -0.202 F 
ENDBRANCH   1  19
BRANCH   5  24
ATOM     24  C   UNL     1       2.201  -4.845  -3.513  0.00  0.00    +0.218 C 
ATOM     25  O   UNL     1       2.714  -4.271  -2.575  0.00  0.00    -0.275 OA
ATOM     26  N   UNL     1       2.904  -5.046  -4.645  0.00  0.00    -0.314 N 
ATOM     27  H   UNL     1       2.494  -5.505  -5.395  0.00  0.00    +0.149 HD
BRANCH  26  28
ATOM     28  C   UNL     1       4.287  -4.573  -4.743  0.00  0.00    +0.123 C 
BRANCH  28  29
ATOM     29  C   UNL     1       4.850  -4.927  -6.121  0.00  0.00    +0.126 C 
BRANCH  29  30
ATOM     30  N   UNL     1       6.233  -4.453  -6.219  0.00  0.00    -0.280 N 
ATOM     31  C   UNL     1       6.936  -4.655  -7.352  0.00  0.00    +0.401 C 
ATOM     32  O   UNL     1       6.422  -5.230  -8.291  0.00  0.00    -0.226 OA
ATOM     33  H   UNL     1       6.643  -3.995  -5.469  0.00  0.00    +0.152 HD
BRANCH  31  34
ATOM     34  O   UNL     1       8.207  -4.220  -7.442  0.00  0.00    -0.445 OA
BRANCH  34  35
ATOM     35  C   UNL     1       8.891  -4.468  -8.671  0.00  0.00    +0.107 C 
ATOM     36  C   UNL     1       8.142  -3.788  -9.819  0.00  0.00    +0.055 C 
ATOM     37  C   UNL     1      10.312  -3.906  -8.587  0.00  0.00    +0.055 C 
ATOM     38  C   UNL     1       8.954  -5.976  -8.925  0.00  0.00    +0.055 C 
ENDBRANCH  34  35
ENDBRANCH  31  34
ENDBRANCH  29  30
ENDBRANCH  28  29
ENDBRANCH  26  28
ENDBRANCH   5  24
TORSDOF 7
