REMARK  Name = ZINC07737151
REMARK  7 active torsions:
REMARK  status: ('A' for Active; 'I' for Inactive)
REMARK    1  A    between atoms: C_1  and  C_2
REMARK    2  A    between atoms: C_2  and  C_3
REMARK    3  A    between atoms: C_2  and  C_4
REMARK    4  A    between atoms: C_2  and  C_5
REMARK    5  A    between atoms: C_7  and  N_10
REMARK    6  A    between atoms: C_11  and  C_13
REMARK    7  A    between atoms: N_22  and  C_24
REMARK                            x       y       z     vdW  Elec       q    Type
REMARK                         _______ _______ _______ _____ _____    ______ ____
ROOT
ATOM      1  C   UNL     1       3.752   4.620  -0.358  0.00  0.00    +0.154 A 
ATOM      2  C   UNL     1       5.178   4.796  -0.039  0.00  0.00    +0.020 A 
ATOM      3  C   UNL     1       6.092   3.749  -0.070  0.00  0.00    +0.011 A 
ATOM      4  C   UNL     1       7.413   3.994   0.242  0.00  0.00    +0.001 A 
ATOM      5  C   UNL     1       7.838   5.271   0.584  0.00  0.00    +0.001 A 
ATOM      6  C   UNL     1       6.948   6.323   0.621  0.00  0.00    +0.014 A 
ATOM      7  C   UNL     1       5.611   6.097   0.311  0.00  0.00    +0.051 A 
ATOM      8  C   UNL     1       4.597   7.160   0.325  0.00  0.00    +0.280 A 
ATOM      9  O   UNL     1       4.898   8.303   0.616  0.00  0.00    -0.265 OA
ATOM     10  N   UNL     1       3.326   6.841   0.007  0.00  0.00    -0.196 N 
ATOM     11  N   UNL     1       2.953   5.659  -0.312  0.00  0.00    -0.158 NA
ENDROOT
BRANCH  10  12
ATOM     12  C   UNL     1       2.364   7.857   0.022  0.00  0.00    +0.069 A 
ATOM     13  C   UNL     1       2.262   8.702   1.120  0.00  0.00    +0.028 A 
ATOM     14  C   UNL     1       1.316   9.708   1.129  0.00  0.00    +0.002 A 
ATOM     15  C   UNL     1       0.463   9.867   0.052  0.00  0.00    +0.000 A 
ATOM     16  C   UNL     1       0.558   9.024  -1.040  0.00  0.00    +0.002 A 
ATOM     17  C   UNL     1       1.506   8.020  -1.058  0.00  0.00    +0.028 A 
ENDBRANCH  10  12
BRANCH   1  19
ATOM     18  N   UNL     1       1.922   3.139  -1.021  0.00  0.00    -0.249 N 
ATOM     19  C   UNL     1       3.229   3.292  -0.731  0.00  0.00    +0.271 C 
ATOM     20  O   UNL     1       3.977   2.334  -0.776  0.00  0.00    -0.268 OA
ATOM     21  H   UNL     1       1.325   3.903  -0.985  0.00  0.00    +0.158 HD
BRANCH  18  24
ATOM     22  C   UNL     1       0.183   0.197  -1.963  0.00  0.00    +0.091 A 
ATOM     23  C   UNL     1       0.140   1.579  -1.691  0.00  0.00    +0.092 A 
ATOM     24  C   UNL     1       1.430   1.892  -1.372  0.00  0.00    +0.224 A 
ATOM     25  O   UNL     1       2.128   0.748  -1.464  0.00  0.00    -0.339 OA
ATOM     26  N   UNL     1       1.421  -0.176  -1.792  0.00  0.00    -0.081 NA
BRANCH  22  28
ATOM     27  C   UNL     1      -1.326  -0.408  -3.835  0.00  0.00    +0.017 C 
ATOM     28  C   UNL     1      -0.974  -0.678  -2.371  0.00  0.00    +0.008 C 
ATOM     29  C   UNL     1      -0.585  -2.149  -2.203  0.00  0.00    +0.017 C 
ATOM     30  C   UNL     1      -2.184  -0.367  -1.489  0.00  0.00    +0.017 C 
ENDBRANCH  22  28
ENDBRANCH  18  24
ENDBRANCH   1  19
TORSDOF 4
