REMARK  Name = ZINC15671843
REMARK  5 active torsions:
REMARK  status: ('A' for Active; 'I' for Inactive)
REMARK    1  A    between atoms: C_1  and  C_2
REMARK    2  A    between atoms: C_16  and  C_19
REMARK    3  A    between atoms: C_21  and  C_22
REMARK    4  A    between atoms: N_24  and  C_25
REMARK    5  A    between atoms: C_25  and  C_26
REMARK                            x       y       z     vdW  Elec       q    Type
REMARK                         _______ _______ _______ _____ _____    ______ ____
ROOT
ATOM      1  C   UNL     1      -5.064   8.187  -2.373  0.00  0.00    +0.048 C 
ATOM      2  C   UNL     1      -5.494   7.427  -1.145  0.00  0.00    +0.008 A 
ATOM      3  C   UNL     1      -6.764   7.478  -0.524  0.00  0.00    +0.038 A 
ATOM      4  C   UNL     1      -6.703   6.610   0.578  0.00  0.00    +0.137 A 
ATOM      5  C   UNL     1      -7.823   6.450   1.389  0.00  0.00    +0.050 A 
ATOM      6  C   UNL     1      -8.989   7.132   1.121  0.00  0.00    +0.050 A 
ATOM      7  C   UNL     1      -9.075   8.000   0.035  0.00  0.00    +0.133 A 
ATOM      8  C   UNL     1      -7.959   8.181  -0.792  0.00  0.00    +0.070 A 
ATOM      9  C   UNL     1      -8.052   9.110  -1.926  0.00  0.00    +0.171 C 
ATOM     10  O   UNL     1      -7.067   9.464  -2.540  0.00  0.00    -0.292 OA
ATOM     11  C   UNL     1      -9.440   9.604  -2.290  0.00  0.00    +0.127 C 
ATOM     12  C   UNL     1     -10.188   9.862  -0.975  0.00  0.00    +0.118 C 
ATOM     13  O   UNL     1     -10.233   8.656  -0.212  0.00  0.00    -0.485 OA
ATOM     14  C   UNL     1      -9.456  10.945  -0.180  0.00  0.00    +0.049 C 
ATOM     15  C   UNL     1      -9.408  12.236  -0.999  0.00  0.00    +0.007 C 
ATOM     16  C   UNL     1     -10.835  12.701  -1.301  0.00  0.00    -0.014 C 
ATOM     17  C   UNL     1     -11.563  11.619  -2.102  0.00  0.00    +0.007 C 
ATOM     18  C   UNL     1     -11.612  10.327  -1.284  0.00  0.00    +0.049 C 
ATOM     19  C   UNL     1     -10.788  13.994  -2.117  0.00  0.00    +0.007 C 
ATOM     20  O   UNL     1      -5.465   6.074   0.603  0.00  0.00    -0.450 OA
ATOM     21  C   UNL     1      -4.735   6.562  -0.422  0.00  0.00    +0.193 A 
ENDROOT
BRANCH  21  22
ATOM     22  C   UNL     1      -3.338   6.207  -0.716  0.00  0.00    +0.280 C 
ATOM     23  O   UNL     1      -2.772   6.702  -1.672  0.00  0.00    -0.267 OA
ATOM     24  N   UNL     1      -2.684   5.333   0.075  0.00  0.00    -0.306 N 
ATOM     25  H   UNL     1      -3.135   4.938   0.838  0.00  0.00    +0.149 HD
BRANCH  24  26
ATOM     26  C   UNL     1      -1.293   4.979  -0.216  0.00  0.00    +0.136 C 
BRANCH  26  27
ATOM     27  C   UNL     1      -0.792   3.977   0.826  0.00  0.00    +0.135 C 
ATOM     28  C   UNL     1       0.675   3.589   0.537  0.00  0.00    +0.035 C 
ATOM     29  C   UNL     1       1.311   3.456   1.939  0.00  0.00    +0.031 C 
ATOM     30  C   UNL     1       0.155   3.781   2.911  0.00  0.00    +0.160 C 
ATOM     31  O   UNL     1      -0.762   4.586   2.135  0.00  0.00    -0.375 OA
ENDBRANCH  26  27
ENDBRANCH  24  26
ENDBRANCH  21  22
TORSDOF 3
