REMARK  Name = ZINC27145531
REMARK  13 active torsions:
REMARK  status: ('A' for Active; 'I' for Inactive)
REMARK    1  A    between atoms: C_1  and  C_2
REMARK    2  A    between atoms: C_2  and  C_3
REMARK    3  A    between atoms: C_6  and  C_9
REMARK    4  A    between atoms: C_9  and  C_11
REMARK    5  A    between atoms: C_9  and  N_32
REMARK    6  A    between atoms: C_11  and  N_12
REMARK    7  A    between atoms: C_13  and  C_15
REMARK    8  A    between atoms: C_19  and  S_21
REMARK    9  A    between atoms: S_21  and  N_24
REMARK   10  A    between atoms: N_24  and  C_25
REMARK   11  A    between atoms: N_24  and  C_26
REMARK   12  A    between atoms: N_32  and  C_33
REMARK   13  A    between atoms: N_32  and  C_34
REMARK                            x       y       z     vdW  Elec       q    Type
REMARK                         _______ _______ _______ _____ _____    ______ ____
ROOT
ATOM      1  N   UNL     1       4.765   6.491   3.299  0.00  0.00    -0.313 N 
ATOM      2  C   UNL     1       4.259   6.312   4.535  0.00  0.00    +0.244 C 
ATOM      3  O   UNL     1       4.989   5.982   5.449  0.00  0.00    -0.270 OA
ATOM      4  H   UNL     1       4.104   6.789   2.472  0.00  0.00    +0.149 HD
ENDROOT
BRANCH   2   5
ATOM      5  C   UNL     1       2.815   6.517   4.780  0.00  0.00    +0.039 A 
ATOM      6  C   UNL     1       1.973   6.895   3.732  0.00  0.00    +0.013 A 
ATOM      7  C   UNL     1       0.627   7.084   3.967  0.00  0.00    +0.003 A 
ATOM      8  C   UNL     1       0.111   6.899   5.237  0.00  0.00    +0.029 A 
ATOM      9  C   UNL     1       0.939   6.523   6.280  0.00  0.00    +0.109 A 
ATOM     10  C   UNL     1       2.287   6.327   6.057  0.00  0.00    +0.041 A 
BRANCH   9  11
ATOM     11  S   UNL     1       0.271   6.290   7.893  0.00  0.00    +0.074 S 
ATOM     12  O   UNL     1       1.345   6.468   8.807  0.00  0.00    -0.150 OA
ATOM     13  O   UNL     1      -0.919   7.063   7.956  0.00  0.00    -0.150 OA
BRANCH  11  14
ATOM     14  N   UNL     1      -0.189   4.703   8.008  0.00  0.00    -0.206 N 
ATOM     15  C   UNL     1      -1.578   4.322   7.741  0.00  0.00    +0.157 C 
BRANCH  14  16
ATOM     16  C   UNL     1       0.748   3.728   8.359  0.00  0.00    +0.051 A 
ATOM     17  C   UNL     1       1.738   3.357   7.458  0.00  0.00    +0.025 A 
ATOM     18  C   UNL     1       2.665   2.396   7.811  0.00  0.00    +0.002 A 
ATOM     19  C   UNL     1       2.602   1.796   9.055  0.00  0.00    +0.000 A 
ATOM     20  C   UNL     1       1.615   2.160   9.953  0.00  0.00    +0.002 A 
ATOM     21  C   UNL     1       0.688   3.124   9.609  0.00  0.00    +0.025 A 
ENDBRANCH  14  16
ENDBRANCH  11  14
ENDBRANCH   9  11
ENDBRANCH   2   5
BRANCH   1  22
ATOM     22  C   UNL     1       6.195   6.288   3.057  0.00  0.00    +0.094 C 
BRANCH  22  23
ATOM     23  C   UNL     1       6.477   6.381   1.556  0.00  0.00    -0.021 C 
BRANCH  23  27
ATOM     24  C   UNL     1      10.661   5.878   0.858  0.00  0.00    -0.048 A 
ATOM     25  C   UNL     1      10.146   7.140   1.089  0.00  0.00    +0.004 A 
ATOM     26  C   UNL     1       8.791   7.303   1.315  0.00  0.00    +0.002 A 
ATOM     27  C   UNL     1       7.953   6.204   1.309  0.00  0.00    -0.059 A 
ATOM     28  C   UNL     1       8.469   4.942   1.083  0.00  0.00    +0.002 A 
ATOM     29  C   UNL     1       9.822   4.779   0.852  0.00  0.00    +0.004 A 
BRANCH  24  31
ATOM     30  C   UNL     1      12.851   5.468   1.945  0.00  0.00    +0.009 C 
ATOM     31  C   UNL     1      12.137   5.700   0.613  0.00  0.00    +0.032 C 
ENDBRANCH  24  31
ENDBRANCH  23  27
BRANCH  23  32
ATOM     32  N   UNL     1       5.732   5.329   0.852  0.00  0.00    +0.382 N 
ATOM     33  C   UNL     1       5.576   4.139   1.698  0.00  0.00    -0.096 C 
ATOM     34  C   UNL     1       4.428   5.824   0.392  0.00  0.00    -0.096 C 
ATOM     35  H   UNL     1       6.315   5.038  -0.035  0.00  0.00    -0.082 HD
ENDBRANCH  23  32
ENDBRANCH  22  23
ENDBRANCH   1  22
TORSDOF 9
