REMARK  Name = ZINC39710403
REMARK  11 active torsions:
REMARK  status: ('A' for Active; 'I' for Inactive)
REMARK    1  A    between atoms: C_1  and  C_2
REMARK    2  A    between atoms: C_2  and  C_3
REMARK    3  A    between atoms: C_10  and  C_15
REMARK    4  A    between atoms: C_15  and  C_17
REMARK    5  A    between atoms: C_15  and  N_27
REMARK    6  A    between atoms: N_22  and  C_23
REMARK    7  A    between atoms: C_23  and  C_24
REMARK    8  A    between atoms: C_23  and  C_25
REMARK    9  A    between atoms: C_23  and  C_26
REMARK   10  A    between atoms: N_30  and  C_33
REMARK   11  A    between atoms: C_36  and  N_39
REMARK                            x       y       z     vdW  Elec       q    Type
REMARK                         _______ _______ _______ _____ _____    ______ ____
ROOT
ATOM      1  C   UNL     1      -6.416  -1.076  -2.789  0.00  0.00    -0.009 C 
ENDROOT
BRANCH   1   9
ATOM      2  C   UNL     1      -1.147  -0.147  -0.461  0.00  0.00    -0.047 A 
ATOM      3  C   UNL     1      -1.568  -0.596   0.792  0.00  0.00    +0.005 A 
ATOM      4  C   UNL     1      -2.745  -1.248   0.979  0.00  0.00    +0.024 A 
ATOM      5  C   UNL     1      -3.603  -1.500  -0.108  0.00  0.00    +0.040 A 
ATOM      6  N   UNL     1      -4.756  -2.139   0.088  0.00  0.00    -0.285 N 
ATOM      7  C   UNL     1      -5.606  -2.409  -0.888  0.00  0.00    +0.223 C 
ATOM      8  O   UNL     1      -6.644  -2.996  -0.648  0.00  0.00    -0.275 OA
ATOM      9  C   UNL     1      -5.285  -1.984  -2.303  0.00  0.00    +0.088 C 
ATOM     10  C   UNL     1      -3.974  -1.255  -2.531  0.00  0.00    -0.006 C 
ATOM     11  C   UNL     1      -3.183  -1.037  -1.442  0.00  0.00    -0.007 A 
ATOM     12  C   UNL     1      -1.905  -0.337  -1.571  0.00  0.00    +0.013 A 
ATOM     13  H   UNL     1      -4.981  -2.421   0.988  0.00  0.00    +0.155 HD
BRANCH   2  15
ATOM     14  C   UNL     1      -0.040   2.070  -0.387  0.00  0.00    +0.009 C 
ATOM     15  C   UNL     1       0.174   0.568  -0.582  0.00  0.00    +0.032 C 
ENDBRANCH   2  15
ENDBRANCH   1   9
BRANCH   1  16
ATOM     16  N   UNL     1      -7.688  -1.809  -2.738  0.00  0.00    +0.387 N 
ATOM     17  C   UNL     1      -7.531  -3.106  -3.408  0.00  0.00    -0.059 C 
ATOM     18  C   UNL     1      -8.822  -3.918  -3.255  0.00  0.00    +0.086 C 
ATOM     19  N   UNL     1      -9.944  -3.109  -3.754  0.00  0.00    -0.333 N 
ATOM     20  C   UNL     1     -10.081  -1.732  -3.255  0.00  0.00    +0.086 C 
ATOM     21  C   UNL     1      -8.732  -1.023  -3.408  0.00  0.00    -0.059 C 
ATOM     22  H   UNL     1      -7.949  -1.960  -1.775  0.00  0.00    -0.081 HD
BRANCH  19  23
ATOM     23  C   UNL     1     -10.854  -3.633  -4.675  0.00  0.00    +0.030 A 
ATOM     24  C   UNL     1     -10.778  -4.970  -5.044  0.00  0.00    +0.025 A 
ATOM     25  C   UNL     1     -11.680  -5.485  -5.955  0.00  0.00    +0.034 A 
ATOM     26  C   UNL     1     -12.657  -4.671  -6.499  0.00  0.00    +0.126 A 
ATOM     27  C   UNL     1     -12.735  -3.340  -6.134  0.00  0.00    +0.034 A 
ATOM     28  C   UNL     1     -11.839  -2.820  -5.220  0.00  0.00    +0.025 A 
BRANCH  26  29
ATOM     29  N   UNL     1     -13.621  -5.227  -7.475  0.00  0.00    +0.056 N 
ATOM     30  O   UNL     1     -13.553  -6.391  -7.796  0.00  0.00    -0.126 OA
ATOM     31  O   UNL     1     -14.475  -4.517  -7.952  0.00  0.00    -0.126 OA
ENDBRANCH  26  29
ENDBRANCH  19  23
ENDBRANCH   1  16
BRANCH   1  32
ATOM     32  C   UNL     1      -6.502   0.159  -1.890  0.00  0.00    +0.205 C 
ATOM     33  N   UNL     1      -7.056  -0.200  -0.578  0.00  0.00    -0.152 NA
ATOM     34  N   UNL     1      -8.105   0.424  -0.403  0.00  0.00    -0.070 NA
ATOM     35  N   UNL     1      -8.428   1.253  -1.477  0.00  0.00    -0.179 N 
ATOM     36  N   UNL     1      -7.462   1.136  -2.446  0.00  0.00    -0.183 NA
ATOM     37  H   UNL     1      -9.211   1.823  -1.531  0.00  0.00    +0.191 HD
BRANCH  36  38
ATOM     38  C   UNL     1      -6.810   2.427  -2.701  0.00  0.00    +0.035 C 
ATOM     39  C   UNL     1      -5.652   2.229  -3.681  0.00  0.00    +0.029 C 
ATOM     40  C   UNL     1      -7.825   3.401  -3.301  0.00  0.00    +0.029 C 
ATOM     41  C   UNL     1      -6.274   2.997  -1.386  0.00  0.00    +0.029 C 
ENDBRANCH  36  38
ENDBRANCH   1  32
TORSDOF 7
