REMARK  Name = ZINC17093657
REMARK  6 active torsions:
REMARK  status: ('A' for Active; 'I' for Inactive)
REMARK    1  A    between atoms: C_1  and  C_2
REMARK    2  A    between atoms: C_9  and  N_14
REMARK    3  A    between atoms: C_10  and  C_11
REMARK    4  A    between atoms: N_14  and  C_15
REMARK    5  A    between atoms: C_15  and  N_17
REMARK    6  A    between atoms: C_18  and  C_20
REMARK                            x       y       z     vdW  Elec       q    Type
REMARK                         _______ _______ _______ _____ _____    ______ ____
ROOT
ATOM      1  N   UNL     1      -1.205   6.250  -0.158  0.00  0.00    -0.291 N 
ATOM      2  H   UNL     1      -2.037   5.756  -0.226  0.00  0.00    +0.154 HD
ENDROOT
BRANCH   1  10
ATOM      3  C   UNL     1      -0.868  14.062   0.013  0.00  0.00    +0.008 C 
ATOM      4  C   UNL     1      -1.342  12.627   0.252  0.00  0.00    -0.009 C 
ATOM      5  C   UNL     1      -2.514  12.309  -0.681  0.00  0.00    +0.008 C 
ATOM      6  C   UNL     1      -3.149  10.976  -0.282  0.00  0.00    +0.037 C 
ATOM      7  C   UNL     1      -2.057   9.916  -0.202  0.00  0.00    -0.023 A 
ATOM      8  C   UNL     1      -0.756  10.264  -0.098  0.00  0.00    -0.004 A 
ATOM      9  S   UNL     1       0.120   8.727  -0.032  0.00  0.00    -0.077 S 
ATOM     10  C   UNL     1      -1.221   7.636  -0.151  0.00  0.00    +0.084 A 
ATOM     11  C   UNL     1      -2.315   8.486  -0.231  0.00  0.00    +0.068 A 
ATOM     12  C   UNL     1      -0.194  11.651  -0.045  0.00  0.00    +0.046 C 
BRANCH  11  13
ATOM     13  C   UNL     1      -3.679   7.962  -0.340  0.00  0.00    +0.244 C 
ATOM     14  O   UNL     1      -4.327   7.737   0.665  0.00  0.00    -0.270 OA
ATOM     15  N   UNL     1      -4.216   7.728  -1.554  0.00  0.00    -0.325 N 
ATOM     16  H   UNL     1      -3.700   7.906  -2.356  0.00  0.00    +0.145 HD
ATOM     17  H   UNL     1      -5.119   7.381  -1.627  0.00  0.00    +0.145 HD
ENDBRANCH  11  13
ENDBRANCH   1  10
BRANCH   1  18
ATOM     18  C   UNL     1      -0.034   5.589  -0.070  0.00  0.00    +0.141 C 
ATOM     19  S   UNL     1       1.435   6.461   0.049  0.00  0.00    -0.018 S 
BRANCH  18  20
ATOM     20  N   UNL     1      -0.018   4.241  -0.077  0.00  0.00    -0.264 N 
ATOM     21  C   UNL     1       1.153   3.580   0.010  0.00  0.00    +0.250 C 
ATOM     22  O   UNL     1       2.196   4.200   0.095  0.00  0.00    -0.270 OA
ATOM     23  H   UNL     1      -0.850   3.747  -0.145  0.00  0.00    +0.157 HD
BRANCH  21  24
ATOM     24  C   UNL     1       1.170   2.107   0.002  0.00  0.00    +0.045 A 
ATOM     25  C   UNL     1      -0.017   1.384   0.026  0.00  0.00    +0.014 A 
ATOM     26  C   UNL     1       0.002  -0.004   0.018  0.00  0.00    +0.001 A 
ATOM     27  C   UNL     1       1.168  -0.706  -0.013  0.00  0.00    +0.008 A 
ATOM     28  C   UNL     1       2.405  -0.041  -0.038  0.00  0.00    -0.017 A 
ATOM     29  C   UNL     1       2.434   1.375  -0.032  0.00  0.00    -0.006 A 
ATOM     30  C   UNL     1       3.665   2.042  -0.058  0.00  0.00    +0.009 A 
ATOM     31  C   UNL     1       4.821   1.321  -0.089  0.00  0.00    +0.001 A 
ATOM     32  C   UNL     1       4.796  -0.072  -0.096  0.00  0.00    +0.001 A 
ATOM     33  C   UNL     1       3.617  -0.752  -0.071  0.00  0.00    +0.008 A 
ENDBRANCH  21  24
ENDBRANCH  18  20
ENDBRANCH   1  18
TORSDOF 5
