REMARK  Name = ZINC63234393
REMARK  8 active torsions:
REMARK  status: ('A' for Active; 'I' for Inactive)
REMARK    1  A    between atoms: C_1  and  C_2
REMARK    2  A    between atoms: C_4  and  C_34
REMARK    3  A    between atoms: N_5  and  C_7
REMARK    4  A    between atoms: C_10  and  C_13
REMARK    5  A    between atoms: N_15  and  C_16
REMARK    6  A    between atoms: C_16  and  C_17
REMARK    7  A    between atoms: C_17  and  C_19
REMARK    8  A    between atoms: C_17  and  C_25
REMARK                            x       y       z     vdW  Elec       q    Type
REMARK                         _______ _______ _______ _____ _____    ______ ____
ROOT
ATOM      1  C   UNL     1       1.131  -8.683   4.815  0.00  0.00    +0.117 C 
ENDROOT
BRANCH   1   4
ATOM      2  C   UNL     1       0.384  -7.244   2.996  0.00  0.00    +0.244 C 
ATOM      3  O   UNL     1      -0.155  -8.210   2.492  0.00  0.00    -0.270 OA
ATOM      4  N   UNL     1       1.053  -7.375   4.158  0.00  0.00    -0.310 N 
ATOM      5  H   UNL     1       1.483  -6.604   4.561  0.00  0.00    +0.149 HD
BRANCH   2   9
ATOM      6  C   UNL     1       0.155  -3.453   1.093  0.00  0.00    +0.066 A 
ATOM      7  C   UNL     1      -0.460  -4.557   0.515  0.00  0.00    +0.028 A 
ATOM      8  C   UNL     1      -0.388  -5.788   1.129  0.00  0.00    +0.015 A 
ATOM      9  C   UNL     1       0.305  -5.926   2.334  0.00  0.00    +0.037 A 
ATOM     10  C   UNL     1       0.923  -4.814   2.912  0.00  0.00    +0.015 A 
ATOM     11  C   UNL     1       0.851  -3.588   2.290  0.00  0.00    +0.028 A 
BRANCH   6  16
ATOM     12  C   UNL     1       1.471   0.989  -0.669  0.00  0.00    +0.067 C 
ATOM     13  C   UNL     1       0.674  -0.239  -0.309  0.00  0.00    +0.061 A 
ATOM     14  C   UNL     1      -0.677  -0.453  -0.602  0.00  0.00    +0.047 A 
ATOM     15  C   UNL     1      -1.022  -1.667  -0.116  0.00  0.00    +0.042 A 
ATOM     16  N   UNL     1       0.080  -2.205   0.467  0.00  0.00    -0.237 N 
ATOM     17  N   UNL     1       1.130  -1.288   0.325  0.00  0.00    -0.171 NA
ATOM     18  C   UNL     1      -2.384  -2.308  -0.205  0.00  0.00    +0.066 C 
ENDBRANCH   6  16
ENDBRANCH   2   9
ENDBRANCH   1   4
BRANCH   1  19
ATOM     19  C   UNL     1       1.941  -8.557   6.107  0.00  0.00    +0.064 C 
BRANCH  19  20
ATOM     20  C   UNL     1       2.126  -9.922   6.718  0.00  0.00    -0.033 C 
ATOM     21  C   UNL     1       3.299 -10.546   6.974  0.00  0.00    -0.000 A 
ATOM     22  C   UNL     1       4.699 -10.157   6.766  0.00  0.00    +0.010 A 
ATOM     23  C   UNL     1       5.679 -11.014   7.131  0.00  0.00    +0.001 A 
ATOM     24  C   UNL     1       5.392 -12.262   7.700  0.00  0.00    +0.002 A 
ATOM     25  C   UNL     1       4.132 -12.690   7.922  0.00  0.00    +0.026 A 
ATOM     26  C   UNL     1       3.023 -11.869   7.578  0.00  0.00    +0.043 A 
ATOM     27  N   UNL     1       1.730 -12.056   7.691  0.00  0.00    -0.380 N 
ATOM     28  C   UNL     1       1.039 -10.868   7.177  0.00  0.00    +0.145 C 
ATOM     29  H   UNL     1       1.302 -12.845   8.057  0.00  0.00    +0.160 HD
ENDBRANCH  19  20
BRANCH  19  30
ATOM     30  C   UNL     1       1.206  -7.668   7.076  0.00  0.00    -0.039 A 
ATOM     31  C   UNL     1      -0.058  -8.017   7.512  0.00  0.00    +0.004 A 
ATOM     32  C   UNL     1      -0.733  -7.202   8.402  0.00  0.00    +0.000 A 
ATOM     33  C   UNL     1      -0.143  -6.036   8.854  0.00  0.00    +0.000 A 
ATOM     34  C   UNL     1       1.121  -5.687   8.419  0.00  0.00    +0.000 A 
ATOM     35  C   UNL     1       1.798  -6.505   7.533  0.00  0.00    +0.004 A 
ENDBRANCH  19  30
ENDBRANCH   1  19
TORSDOF 6
