REMARK  Name = ZINC09348421
REMARK  12 active torsions:
REMARK  status: ('A' for Active; 'I' for Inactive)
REMARK    1  A    between atoms: C_1  and  C_2
REMARK    2  A    between atoms: C_2  and  C_3
REMARK    3  A    between atoms: C_9  and  C_10
REMARK    4  A    between atoms: C_15  and  O_16
REMARK    5  A    between atoms: O_16  and  C_17
REMARK    6  A    between atoms: C_17  and  C_18
REMARK    7  A    between atoms: C_18  and  O_19
REMARK    8  A    between atoms: O_19  and  C_20
REMARK    9  A    between atoms: C_23  and  C_26
REMARK   10  A    between atoms: C_26  and  C_28
REMARK   11  A    between atoms: C_26  and  C_29
REMARK   12  A    between atoms: C_29  and  C_30
REMARK                            x       y       z     vdW  Elec       q    Type
REMARK                         _______ _______ _______ _____ _____    ______ ____
ROOT
ATOM      1  C   UNL     1       5.546  -0.805   6.460  0.00  0.00    +0.019 A 
ATOM      2  C   UNL     1       5.469  -2.204   6.482  0.00  0.00    +0.031 A 
ATOM      3  C   UNL     1       6.392  -2.930   7.202  0.00  0.00    +0.042 A 
ATOM      4  C   UNL     1       7.397  -2.283   7.906  0.00  0.00    +0.023 A 
ATOM      5  C   UNL     1       7.486  -0.905   7.894  0.00  0.00    +0.047 A 
ATOM      6  C   UNL     1       6.571  -0.155   7.171  0.00  0.00    +0.128 A 
ATOM      7 CL   UNL     1       6.296  -4.663   7.230  0.00  0.00    -0.084 Cl
ENDROOT
BRANCH   1  14
ATOM      8  C   UNL     1      -0.551  -1.251   3.002  0.00  0.00    +0.100 C 
ATOM      9  N   UNL     1       0.432  -0.438   3.266  0.00  0.00    -0.169 NA
ATOM     10  N   UNL     1       1.216  -0.603   4.387  0.00  0.00    -0.152 N 
ATOM     11  C   UNL     1       2.244   0.267   4.811  0.00  0.00    +0.153 C 
ATOM     12  N   UNL     1       2.312   1.522   4.457  0.00  0.00    -0.283 NA
ATOM     13  C   UNL     1       3.241  -0.388   5.704  0.00  0.00    +0.081 C 
ATOM     14  C   UNL     1       4.570  -0.025   5.697  0.00  0.00    +0.028 C 
ATOM     15  C   UNL     1       2.727  -1.453   6.600  0.00  0.00    +0.273 C 
ATOM     16  O   UNL     1       3.300  -1.728   7.642  0.00  0.00    -0.268 OA
ATOM     17  N   UNL     1       1.609  -2.108   6.230  0.00  0.00    -0.152 NA
ATOM     18  C   UNL     1       0.950  -1.703   5.173  0.00  0.00    +0.181 C 
ATOM     19  S   UNL     1      -0.473  -2.396   4.372  0.00  0.00    -0.038 S 
ATOM     20  H   UNL     1       1.636   1.900   3.874  0.00  0.00    +0.188 HD
BRANCH   8  22
ATOM     21  C   UNL     1      -1.177  -0.050   0.925  0.00  0.00    +0.011 C 
ATOM     22  C   UNL     1      -1.512  -1.228   1.842  0.00  0.00    +0.061 C 
ENDBRANCH   8  22
ENDBRANCH   1  14
BRANCH   6  23
ATOM     23  O   UNL     1       6.661   1.198   7.154  0.00  0.00    -0.488 OA
BRANCH  23  24
ATOM     24  C   UNL     1       7.728   1.787   7.899  0.00  0.00    +0.270 C 
BRANCH  24  25
ATOM     25  C   UNL     1       7.667   3.309   7.761  0.00  0.00    +0.270 C 
BRANCH  25  26
ATOM     26  O   UNL     1       6.469   3.795   8.369  0.00  0.00    -0.489 OA
BRANCH  26  27
ATOM     27  C   UNL     1       6.259   5.138   8.334  0.00  0.00    +0.121 A 
ATOM     28  C   UNL     1       7.185   5.969   7.721  0.00  0.00    +0.046 A 
ATOM     29  C   UNL     1       6.970   7.333   7.686  0.00  0.00    +0.007 A 
ATOM     30  C   UNL     1       5.832   7.870   8.261  0.00  0.00    -0.044 A 
ATOM     31  C   UNL     1       4.908   7.043   8.872  0.00  0.00    +0.007 A 
ATOM     32  C   UNL     1       5.116   5.678   8.905  0.00  0.00    +0.046 A 
BRANCH  30  33
ATOM     33  C   UNL     1       5.600   9.358   8.222  0.00  0.00    +0.016 C 
ATOM     34  C   UNL     1       5.507   9.898   9.650  0.00  0.00    +0.012 C 
BRANCH  33  35
ATOM     35  C   UNL     1       4.294   9.651   7.480  0.00  0.00    +0.004 C 
ATOM     36  C   UNL     1       4.121  11.164   7.331  0.00  0.00    +0.004 C 
ENDBRANCH  33  35
ENDBRANCH  30  33
ENDBRANCH  26  27
ENDBRANCH  25  26
ENDBRANCH  24  25
ENDBRANCH  23  24
ENDBRANCH   6  23
TORSDOF 9
