REMARK  Name = ZINC00756357
REMARK  6 active torsions:
REMARK  status: ('A' for Active; 'I' for Inactive)
REMARK    1  A    between atoms: C_1  and  C_2
REMARK    2  A    between atoms: C_3  and  C_19
REMARK    3  A    between atoms: C_4  and  C_12
REMARK    4  A    between atoms: C_6  and  C_10
REMARK    5  A    between atoms: C_7  and  N_9
REMARK    6  A    between atoms: N_24  and  C_27
REMARK                            x       y       z     vdW  Elec       q    Type
REMARK                         _______ _______ _______ _____ _____    ______ ____
ROOT
ATOM      1  C   UNL     1       0.371   5.359   4.408  0.00  0.00    +0.087 C 
ATOM      2  C   UNL     1       0.520   3.859   4.420  0.00  0.00    +0.113 C 
ATOM      3  C   UNL     1       0.118   3.159   3.353  0.00  0.00    +0.065 C 
ATOM      4  C   UNL     1       0.238   1.660   3.316  0.00  0.00    +0.104 C 
ATOM      5  C   UNL     1       1.192   1.196   4.385  0.00  0.00    +0.098 C 
ATOM      6  C   UNL     1       1.538   2.015   5.408  0.00  0.00    +0.198 C 
ATOM      7  O   UNL     1       1.051   3.266   5.501  0.00  0.00    -0.445 OA
ENDROOT
BRANCH   3   8
ATOM      8  C   UNL     1      -0.453   3.861   2.207  0.00  0.00    +0.247 C 
ATOM      9  O   UNL     1      -1.661   3.964   2.095  0.00  0.00    -0.270 OA
ATOM     10  N   UNL     1       0.357   4.396   1.272  0.00  0.00    -0.295 N 
ATOM     11  C   UNL     1       1.819   4.374   1.438  0.00  0.00    +0.127 C 
ATOM     12  C   UNL     1       2.354   5.794   1.226  0.00  0.00    +0.124 C 
ATOM     13  N   UNL     1       1.884   6.304  -0.068  0.00  0.00    -0.327 N 
ATOM     14  C   UNL     1       0.419   6.412  -0.098  0.00  0.00    +0.124 C 
ATOM     15  C   UNL     1      -0.196   5.018   0.059  0.00  0.00    +0.127 C 
BRANCH  13  16
ATOM     16  C   UNL     1       2.483   7.530  -0.371  0.00  0.00    +0.030 A 
ATOM     17  C   UNL     1       3.387   8.100   0.516  0.00  0.00    +0.026 A 
ATOM     18  C   UNL     1       3.982   9.309   0.212  0.00  0.00    +0.040 A 
ATOM     19  C   UNL     1       3.669   9.958  -0.971  0.00  0.00    +0.124 A 
ATOM     20  C   UNL     1       2.764   9.394  -1.854  0.00  0.00    +0.040 A 
ATOM     21  C   UNL     1       2.171   8.183  -1.557  0.00  0.00    +0.026 A 
ATOM     22  F   UNL     1       4.248  11.143  -1.263  0.00  0.00    -0.205 F 
ENDBRANCH  13  16
ENDBRANCH   3   8
BRANCH   4  23
ATOM     23  C   UNL     1      -1.117   1.043   3.546  0.00  0.00    -0.016 A 
ATOM     24  C   UNL     1      -1.756   1.212   4.760  0.00  0.00    +0.006 A 
ATOM     25  C   UNL     1      -3.002   0.650   4.970  0.00  0.00    +0.000 A 
ATOM     26  C   UNL     1      -3.604  -0.089   3.969  0.00  0.00    +0.001 A 
ATOM     27  C   UNL     1      -2.964  -0.263   2.757  0.00  0.00    +0.020 A 
ATOM     28  C   UNL     1      -1.720   0.303   2.544  0.00  0.00    +0.045 A 
ATOM     29 CL   UNL     1      -0.915   0.085   1.022  0.00  0.00    -0.083 Cl
ENDBRANCH   4  23
BRANCH   6  30
ATOM     30  N   UNL     1       2.406   1.559   6.369  0.00  0.00    -0.328 N 
ATOM     31  H   UNL     1       2.661   2.137   7.106  0.00  0.00    +0.145 HD
ATOM     32  H   UNL     1       2.763   0.660   6.312  0.00  0.00    +0.145 HD
ENDBRANCH   6  30
BRANCH   5  33
ATOM     33  C   UNL     1       1.735  -0.128   4.325  0.00  0.00    +0.101 C 
ATOM     34  N   UNL     1       2.165  -1.178   4.277  0.00  0.00    -0.191 NA
ENDBRANCH   5  33
TORSDOF 5
