REMARK  Name = ZINC04554606
REMARK  7 active torsions:
REMARK  status: ('A' for Active; 'I' for Inactive)
REMARK    1  A    between atoms: C_1  and  C_2
REMARK    2  A    between atoms: C_2  and  C_3
REMARK    3  A    between atoms: C_3  and  C_4
REMARK    4  A    between atoms: C_3  and  C_5
REMARK    5  A    between atoms: C_3  and  C_6
REMARK    6  A    between atoms: C_15  and  O_28
REMARK    7  A    between atoms: C_17  and  C_20
REMARK                            x       y       z     vdW  Elec       q    Type
REMARK                         _______ _______ _______ _____ _____    ______ ____
ROOT
ATOM      1  C   UNL     1       0.763  -2.041   1.233  0.00  0.00    -0.000 C 
ATOM      2  C   UNL     1       1.498  -2.551   2.476  0.00  0.00    +0.009 C 
ATOM      3  C   UNL     1       1.740  -4.057   2.356  0.00  0.00    +0.037 C 
ATOM      4  C   UNL     1       0.418  -4.741   2.039  0.00  0.00    -0.023 A 
ATOM      5  C   UNL     1      -0.631  -4.041   1.550  0.00  0.00    -0.004 A 
ATOM      6  S   UNL     1      -1.918  -5.242   1.343  0.00  0.00    -0.078 S 
ATOM      7  C   UNL     1      -1.120  -6.594   1.876  0.00  0.00    +0.080 A 
ATOM      8  C   UNL     1       0.165  -6.158   2.222  0.00  0.00    +0.068 A 
ATOM      9  C   UNL     1       1.121  -7.177   2.727  0.00  0.00    +0.220 C 
ATOM     10  N   UNL     1       0.643  -8.348   3.052  0.00  0.00    -0.223 NA
ATOM     11  C   UNL     1      -0.770  -8.703   3.014  0.00  0.00    +0.228 C 
ATOM     12  N   UNL     1      -1.503  -7.909   2.011  0.00  0.00    -0.313 N 
ATOM     13  C   UNL     1      -0.677  -2.575   1.250  0.00  0.00    +0.046 C 
ATOM     14  H   UNL     1      -2.216  -8.292   1.477  0.00  0.00    +0.149 HD
ENDROOT
BRANCH  11  15
ATOM     15  C   UNL     1      -1.376  -8.457   4.372  0.00  0.00    +0.048 A 
ATOM     16  C   UNL     1      -2.713  -8.116   4.483  0.00  0.00    +0.132 A 
ATOM     17  C   UNL     1      -3.268  -7.890   5.731  0.00  0.00    +0.039 A 
ATOM     18  C   UNL     1      -2.487  -8.006   6.866  0.00  0.00    +0.004 A 
ATOM     19  C   UNL     1      -1.153  -8.348   6.755  0.00  0.00    +0.020 A 
ATOM     20  C   UNL     1      -0.597  -8.579   5.509  0.00  0.00    +0.050 A 
ATOM     21 CL   UNL     1       1.077  -9.014   5.372  0.00  0.00    -0.083 Cl
ATOM     22  F   UNL     1      -3.475  -8.002   3.374  0.00  0.00    -0.205 F 
ENDBRANCH  11  15
BRANCH   1  23
ATOM     23  C   UNL     1       0.742  -0.511   1.242  0.00  0.00    -0.032 C 
ATOM     24  C   UNL     1       2.178   0.019   1.231  0.00  0.00    +0.011 C 
ATOM     25  C   UNL     1       0.026  -0.018   2.500  0.00  0.00    +0.011 C 
BRANCH  23  27
ATOM     26  C   UNL     1      -0.019   1.526   0.010  0.00  0.00    +0.004 C 
ATOM     27  C   UNL     1       0.002  -0.004   0.002  0.00  0.00    +0.003 C 
ENDBRANCH  23  27
ENDBRANCH   1  23
BRANCH   9  28
ATOM     28  O   UNL     1       2.440  -6.901   2.846  0.00  0.00    -0.492 OA
ATOM     29  H   UNL     1       2.967  -7.638   3.185  0.00  0.00    +0.294 HD
ENDBRANCH   9  28
TORSDOF 4
