REMARK  Name = ZINC34929811
REMARK  7 active torsions:
REMARK  status: ('A' for Active; 'I' for Inactive)
REMARK    1  A    between atoms: C_4  and  C_7
REMARK    2  A    between atoms: C_7  and  C_8
REMARK    3  A    between atoms: C_8  and  C_10
REMARK    4  A    between atoms: C_8  and  N_25
REMARK    5  A    between atoms: N_15  and  C_18
REMARK    6  A    between atoms: C_18  and  C_19
REMARK    7  A    between atoms: N_28  and  C_29
REMARK                            x       y       z     vdW  Elec       q    Type
REMARK                         _______ _______ _______ _____ _____    ______ ____
ROOT
ATOM      1  C   UNL     1       4.172  -0.963   1.397  0.00  0.00    +0.165 C 
ENDROOT
BRANCH   1   2
ATOM      2  C   UNL     1       5.348  -1.904   1.389  0.00  0.00    +0.236 C 
ATOM      3  O   UNL     1       6.466  -1.480   1.597  0.00  0.00    -0.274 OA
ATOM      4  N   UNL     1       5.159  -3.217   1.151  0.00  0.00    -0.298 N 
ATOM      5  C   UNL     1       3.832  -3.735   0.786  0.00  0.00    +0.123 C 
ATOM      6  C   UNL     1       3.973  -4.585  -0.481  0.00  0.00    +0.103 C 
ATOM      7  N   UNL     1       5.002  -5.611  -0.268  0.00  0.00    -0.295 NA
ATOM      8  C   UNL     1       6.319  -5.003  -0.035  0.00  0.00    +0.103 C 
ATOM      9  C   UNL     1       6.276  -4.170   1.245  0.00  0.00    +0.123 C 
BRANCH   7  10
ATOM     10  C   UNL     1       5.048  -6.553  -1.394  0.00  0.00    +0.119 C 
BRANCH  10  11
ATOM     11  C   UNL     1       5.931  -7.721  -1.036  0.00  0.00    -0.033 A 
ATOM     12  C   UNL     1       7.285  -7.674  -1.313  0.00  0.00    +0.005 A 
ATOM     13  C   UNL     1       8.095  -8.745  -0.985  0.00  0.00    +0.000 A 
ATOM     14  C   UNL     1       7.551  -9.862  -0.379  0.00  0.00    +0.000 A 
ATOM     15  C   UNL     1       6.198  -9.908  -0.101  0.00  0.00    +0.000 A 
ATOM     16  C   UNL     1       5.389  -8.836  -0.425  0.00  0.00    +0.005 A 
ENDBRANCH  10  11
ENDBRANCH   7  10
ENDBRANCH   1   2
BRANCH   1  17
ATOM     17  N   UNL     1       4.470   0.184   2.258  0.00  0.00    -0.288 N 
ATOM     18  C   UNL     1       3.465   0.880   2.826  0.00  0.00    +0.301 C 
ATOM     19  O   UNL     1       2.311   0.554   2.625  0.00  0.00    -0.253 OA
ATOM     20  N   UNL     1       3.740   1.935   3.618  0.00  0.00    -0.294 N 
ATOM     21  H   UNL     1       5.391   0.444   2.418  0.00  0.00    +0.151 HD
ATOM     22  H   UNL     1       4.660   2.195   3.779  0.00  0.00    +0.151 HD
BRANCH  20  23
ATOM     23  C   UNL     1       2.647   2.691   4.237  0.00  0.00    +0.037 C 
ATOM     24  C   UNL     1       1.747   3.272   3.144  0.00  0.00    +0.029 C 
ATOM     25  C   UNL     1       0.607   4.061   3.790  0.00  0.00    -0.008 C 
ATOM     26  C   UNL     1       1.187   5.199   4.632  0.00  0.00    +0.007 C 
ATOM     27  C   UNL     1       2.087   4.618   5.724  0.00  0.00    -0.008 C 
ATOM     28  C   UNL     1       3.227   3.829   5.079  0.00  0.00    +0.029 C 
ATOM     29  C   UNL     1       1.266   3.688   6.620  0.00  0.00    +0.007 C 
ATOM     30  C   UNL     1       0.686   2.550   5.778  0.00  0.00    -0.008 C 
ATOM     31  C   UNL     1      -0.214   3.131   4.686  0.00  0.00    +0.007 C 
ATOM     32  C   UNL     1       1.827   1.760   5.132  0.00  0.00    +0.029 C 
ENDBRANCH  20  23
ENDBRANCH   1  17
BRANCH   1  33
ATOM     33  C   UNL     1       3.899  -0.475  -0.027  0.00  0.00    +0.067 C 
BRANCH  33  37
ATOM     34  C   UNL     1       0.320   1.857  -0.075  0.00  0.00    +0.000 A 
ATOM     35  C   UNL     1       1.540   2.467   0.149  0.00  0.00    +0.000 A 
ATOM     36  C   UNL     1       2.698   1.713   0.165  0.00  0.00    +0.004 A 
ATOM     37  C   UNL     1       2.636   0.347  -0.043  0.00  0.00    -0.045 A 
ATOM     38  C   UNL     1       1.417  -0.263  -0.267  0.00  0.00    +0.004 A 
ATOM     39  C   UNL     1       0.259   0.492  -0.284  0.00  0.00    +0.000 A 
ENDBRANCH  33  37
ENDBRANCH   1  33
TORSDOF 7
