REMARK  Name = ZINC39467722
REMARK  11 active torsions:
REMARK  status: ('A' for Active; 'I' for Inactive)
REMARK    1  A    between atoms: C_1  and  C_2
REMARK    2  A    between atoms: C_4  and  C_9
REMARK    3  A    between atoms: C_5  and  C_8
REMARK    4  A    between atoms: C_9  and  N_10
REMARK    5  A    between atoms: N_10  and  C_11
REMARK    6  A    between atoms: N_10  and  C_12
REMARK    7  A    between atoms: C_12  and  C_13
REMARK    8  A    between atoms: N_15  and  C_28
REMARK    9  A    between atoms: C_17  and  C_19
REMARK   10  A    between atoms: C_22  and  O_26
REMARK   11  A    between atoms: O_26  and  C_27
REMARK                            x       y       z     vdW  Elec       q    Type
REMARK                         _______ _______ _______ _____ _____    ______ ____
ROOT
ATOM      1  C   UNL     1      -5.041   2.645  -1.290  0.00  0.00    -0.048 C 
ATOM      2  C   UNL     1      -4.924   3.810  -1.896  0.00  0.00    +0.093 C 
ATOM      3  N   UNL     1      -5.776   4.754  -1.356  0.00  0.00    -0.242 N 
ATOM      4  N   UNL     1      -6.513   4.224  -0.336  0.00  0.00    -0.225 NA
ATOM      5  C   UNL     1      -6.096   2.813  -0.218  0.00  0.00    +0.131 C 
ATOM      6  H   UNL     1      -7.500   4.292  -0.530  0.00  0.00    +0.146 HD
ENDROOT
BRANCH   5   7
ATOM      7  C   UNL     1      -5.509   2.550   1.145  0.00  0.00    +0.010 A 
ATOM      8  C   UNL     1      -5.020   3.600   1.899  0.00  0.00    +0.012 A 
ATOM      9  C   UNL     1      -4.481   3.363   3.149  0.00  0.00    +0.046 A 
ATOM     10  C   UNL     1      -4.431   2.069   3.648  0.00  0.00    +0.123 A 
ATOM     11  C   UNL     1      -4.922   1.016   2.891  0.00  0.00    +0.084 A 
ATOM     12  C   UNL     1      -5.465   1.259   1.642  0.00  0.00    +0.132 A 
ATOM     13  F   UNL     1      -5.949   0.235   0.905  0.00  0.00    -0.205 F 
BRANCH  10  14
ATOM     14  O   UNL     1      -3.901   1.835   4.877  0.00  0.00    -0.495 OA
ATOM     15  C   UNL     1      -3.881   0.478   5.327  0.00  0.00    +0.277 C 
ENDBRANCH  10  14
ENDBRANCH   5   7
BRANCH   3  16
ATOM     16  C   UNL     1      -5.871   6.077  -1.796  0.00  0.00    +0.049 A 
ATOM     17  C   UNL     1      -6.756   6.953  -1.182  0.00  0.00    +0.025 A 
ATOM     18  C   UNL     1      -6.847   8.260  -1.619  0.00  0.00    +0.002 A 
ATOM     19  C   UNL     1      -6.059   8.696  -2.668  0.00  0.00    +0.000 A 
ATOM     20  C   UNL     1      -5.176   7.826  -3.282  0.00  0.00    +0.002 A 
ATOM     21  C   UNL     1      -5.075   6.520  -2.845  0.00  0.00    +0.025 A 
ENDBRANCH   3  16
BRANCH   1  22
ATOM     22  C   UNL     1      -4.275   1.387  -1.608  0.00  0.00    -0.044 C 
BRANCH  22  23
ATOM     23  N   UNL     1      -5.085   0.528  -2.483  0.00  0.00    +0.383 N 
ATOM     24  C   UNL     1      -5.273   1.190  -3.781  0.00  0.00    -0.095 C 
ATOM     25  H   UNL     1      -5.984   0.365  -2.055  0.00  0.00    -0.081 HD
BRANCH  23  26
ATOM     26  C   UNL     1      -4.398  -0.755  -2.682  0.00  0.00    -0.043 C 
BRANCH  26  29
ATOM     27  C   UNL     1      -7.491  -1.780  -2.292  0.00  0.00    +0.039 C 
ATOM     28  C   UNL     1      -6.383  -2.593  -2.964  0.00  0.00    +0.151 C 
ATOM     29  C   UNL     1      -5.283  -1.680  -3.477  0.00  0.00    -0.038 C 
ATOM     30  C   UNL     1      -5.282  -1.887  -4.796  0.00  0.00    +0.060 C 
ATOM     31  N   UNL     1      -6.225  -2.793  -5.140  0.00  0.00    -0.159 NA
ATOM     32  N   UNL     1      -6.881  -3.239  -4.191  0.00  0.00    -0.180 NA
ATOM     33  C   UNL     1      -4.357  -1.204  -5.769  0.00  0.00    +0.067 C 
ENDBRANCH  26  29
ENDBRANCH  23  26
ENDBRANCH  22  23
ENDBRANCH   1  22
TORSDOF 7
