REMARK  Name = ZINC06193685
REMARK  10 active torsions:
REMARK  status: ('A' for Active; 'I' for Inactive)
REMARK    1  A    between atoms: C_1  and  C_2
REMARK    2  A    between atoms: C_2  and  N_63
REMARK    3  A    between atoms: C_3  and  C_4
REMARK    4  A    between atoms: C_3  and  N_63
REMARK    5  A    between atoms: C_10  and  C_12
REMARK    6  A    between atoms: C_10  and  C_25
REMARK    7  A    between atoms: C_10  and  N_63
REMARK    8  A    between atoms: C_18  and  C_24
REMARK    9  A    between atoms: N_29  and  C_30
REMARK   10  A    between atoms: C_30  and  C_31
REMARK                            x       y       z     vdW  Elec       q    Type
REMARK                         _______ _______ _______ _____ _____    ______ ____
ROOT
ATOM      1  C   UNL     1       2.341   6.679  -2.276  0.00  0.00    +0.039 C 
ENDROOT
BRANCH   1   2
ATOM      2  C   UNL     1       0.880   6.483  -2.590  0.00  0.00    +0.011 A 
ATOM      3  C   UNL     1      -0.025   6.423  -1.582  0.00  0.00    +0.017 A 
ATOM      4  C   UNL     1      -1.437   6.232  -1.921  0.00  0.00    -0.001 A 
ATOM      5  C   UNL     1      -2.417   6.163  -0.925  0.00  0.00    +0.010 A 
ATOM      6  C   UNL     1      -3.725   5.984  -1.274  0.00  0.00    +0.001 A 
ATOM      7  C   UNL     1      -4.091   5.871  -2.608  0.00  0.00    +0.005 A 
ATOM      8  C   UNL     1      -3.143   5.936  -3.606  0.00  0.00    -0.026 A 
ATOM      9  C   UNL     1      -1.804   6.117  -3.275  0.00  0.00    +0.052 A 
ATOM     10  N   UNL     1      -0.835   6.187  -4.252  0.00  0.00    -0.322 N 
ATOM     11  H   UNL     1      -1.097   6.102  -5.213  0.00  0.00    +0.169 HD
ATOM     12  C   UNL     1       0.458   6.368  -3.932  0.00  0.00    +0.251 A 
ATOM     13  O   UNL     1       1.288   6.430  -4.823  0.00  0.00    -0.268 OA
ATOM     14  C   UNL     1      -3.555   5.811  -5.050  0.00  0.00    +0.046 C 
ENDBRANCH   1   2
BRANCH   1  15
ATOM     15  C   UNL     1       3.136   5.537  -2.854  0.00  0.00    +0.143 A 
ATOM     16  N   UNL     1       3.436   5.351  -4.116  0.00  0.00    -0.115 NA
ATOM     17  N   UNL     1       4.125   4.266  -4.206  0.00  0.00    -0.023 NA
ATOM     18  N   UNL     1       4.278   3.758  -3.033  0.00  0.00    -0.044 NA
ATOM     19  N   UNL     1       3.678   4.509  -2.173  0.00  0.00    -0.226 N 
BRANCH  19  20
ATOM     20  C   UNL     1       3.605   4.289  -0.727  0.00  0.00    +0.182 C 
BRANCH  20  21
ATOM     21  C   UNL     1       2.478   3.337  -0.420  0.00  0.00    -0.026 A 
ATOM     22  C   UNL     1       2.680   1.973  -0.514  0.00  0.00    +0.005 A 
ATOM     23  C   UNL     1       1.646   1.100  -0.233  0.00  0.00    +0.000 A 
ATOM     24  C   UNL     1       0.409   1.591   0.138  0.00  0.00    +0.000 A 
ATOM     25  C   UNL     1       0.208   2.955   0.238  0.00  0.00    +0.000 A 
ATOM     26  C   UNL     1       1.242   3.828  -0.043  0.00  0.00    +0.005 A 
ENDBRANCH  20  21
ENDBRANCH  19  20
ENDBRANCH   1  15
BRANCH   1  27
ATOM     27  N   UNL     1       2.802   7.941  -2.893  0.00  0.00    +0.392 N 
ATOM     28  H   UNL     1       2.785   7.839  -3.914  0.00  0.00    -0.080 HD
BRANCH  27  30
ATOM     29  C   UNL     1       0.690   9.042  -3.434  0.00  0.00    -0.017 C 
ATOM     30  C   UNL     1       1.905   9.050  -2.505  0.00  0.00    -0.080 C 
ENDBRANCH  27  30
BRANCH  27  31
ATOM     31  C   UNL     1       4.185   8.236  -2.463  0.00  0.00    -0.042 C 
BRANCH  31  32
ATOM     32  C   UNL     1       5.135   7.424  -3.305  0.00  0.00    -0.064 A 
ATOM     33  C   UNL     1       5.670   6.250  -2.807  0.00  0.00    +0.002 A 
ATOM     34  C   UNL     1       6.537   5.503  -3.582  0.00  0.00    +0.000 A 
ATOM     35  C   UNL     1       6.878   5.934  -4.850  0.00  0.00    +0.000 A 
ATOM     36  C   UNL     1       6.348   7.111  -5.346  0.00  0.00    +0.000 A 
ATOM     37  C   UNL     1       5.477   7.856  -4.574  0.00  0.00    +0.002 A 
ENDBRANCH  31  32
ENDBRANCH  27  31
ENDBRANCH   1  27
TORSDOF 8
