REMARK  Name = ZINC58894845
REMARK  12 active torsions:
REMARK  status: ('A' for Active; 'I' for Inactive)
REMARK    1  A    between atoms: C_1  and  C_2
REMARK    2  A    between atoms: C_2  and  O_3
REMARK    3  A    between atoms: O_3  and  C_4
REMARK    4  A    between atoms: C_7  and  C_10
REMARK    5  A    between atoms: C_10  and  C_12
REMARK    6  A    between atoms: C_10  and  O_39
REMARK    7  A    between atoms: C_12  and  C_13
REMARK    8  A    between atoms: C_13  and  C_14
REMARK    9  A    between atoms: N_16  and  N_17
REMARK   10  A    between atoms: C_18  and  C_19
REMARK   11  A    between atoms: N_21  and  C_28
REMARK   12  A    between atoms: C_28  and  C_29
REMARK                            x       y       z     vdW  Elec       q    Type
REMARK                         _______ _______ _______ _____ _____    ______ ____
ROOT
ATOM      1  N   UNL     1      -2.461 -10.421   4.355  0.00  0.00    -0.188 NA
ATOM      2  C   UNL     1      -2.470 -11.668   4.720  0.00  0.00    +0.140 C 
ENDROOT
BRANCH   2   3
ATOM      3  C   UNL     1      -1.548 -12.626   4.089  0.00  0.00    +0.020 A 
ATOM      4  C   UNL     1      -0.390 -12.332   3.438  0.00  0.00    +0.096 A 
ATOM      5  N   UNL     1       0.190 -13.481   2.991  0.00  0.00    -0.342 N 
ATOM      6  C   UNL     1      -0.578 -14.571   3.339  0.00  0.00    +0.050 A 
ATOM      7  C   UNL     1      -1.694 -14.091   4.046  0.00  0.00    +0.009 A 
ATOM      8  C   UNL     1      -2.649 -14.982   4.531  0.00  0.00    +0.010 A 
ATOM      9  C   UNL     1      -2.491 -16.334   4.317  0.00  0.00    +0.001 A 
ATOM     10  C   UNL     1      -1.388 -16.809   3.623  0.00  0.00    +0.002 A 
ATOM     11  C   UNL     1      -0.440 -15.939   3.130  0.00  0.00    +0.026 A 
BRANCH   5  12
ATOM     12  C   UNL     1       1.450 -13.548   2.246  0.00  0.00    +0.157 C 
BRANCH  12  13
ATOM     13  C   UNL     1       1.158 -13.580   0.768  0.00  0.00    -0.027 A 
ATOM     14  C   UNL     1       0.976 -14.806   0.131  0.00  0.00    +0.006 A 
ATOM     15  C   UNL     1       0.712 -14.871  -1.203  0.00  0.00    +0.009 A 
ATOM     16  C   UNL     1       0.620 -13.685  -1.952  0.00  0.00    -0.018 A 
ATOM     17  C   UNL     1       0.348 -13.711  -3.330  0.00  0.00    +0.008 A 
ATOM     18  C   UNL     1       0.266 -12.543  -4.023  0.00  0.00    +0.001 A 
ATOM     19  C   UNL     1       0.448 -11.317  -3.386  0.00  0.00    +0.001 A 
ATOM     20  C   UNL     1       0.713 -11.252  -2.052  0.00  0.00    +0.008 A 
ATOM     21  C   UNL     1       0.805 -12.438  -1.304  0.00  0.00    -0.018 A 
ATOM     22  C   UNL     1       1.071 -12.412   0.076  0.00  0.00    +0.014 A 
ENDBRANCH  12  13
ENDBRANCH   5  12
ENDBRANCH   2   3
BRANCH   1  25
ATOM     23  C   UNL     1      -1.623  -8.719   2.916  0.00  0.00    +0.232 C 
ATOM     24  O   UNL     1      -2.164  -7.884   3.611  0.00  0.00    -0.274 OA
ATOM     25  N   UNL     1      -1.728 -10.026   3.228  0.00  0.00    -0.207 N 
ATOM     26  H   UNL     1      -1.295 -10.693   2.673  0.00  0.00    +0.177 HD
BRANCH  23  27
ATOM     27  C   UNL     1      -0.835  -8.294   1.704  0.00  0.00    +0.100 C 
BRANCH  27  28
ATOM     28  C   UNL     1      -0.875  -6.770   1.579  0.00  0.00    +0.045 C 
BRANCH  28  29
ATOM     29  C   UNL     1      -0.074  -6.339   0.348  0.00  0.00    +0.145 C 
BRANCH  29  33
ATOM     30  C   UNL     1      -0.472  -2.120  -0.203  0.00  0.00    +0.121 A 
ATOM     31  C   UNL     1      -1.307  -2.991  -0.886  0.00  0.00    +0.046 A 
ATOM     32  C   UNL     1      -1.176  -4.355  -0.707  0.00  0.00    +0.010 A 
ATOM     33  C   UNL     1      -0.214  -4.851   0.154  0.00  0.00    -0.019 A 
ATOM     34  C   UNL     1       0.619  -3.984   0.837  0.00  0.00    +0.010 A 
ATOM     35  C   UNL     1       0.496  -2.620   0.656  0.00  0.00    +0.046 A 
BRANCH  30  36
ATOM     36  O   UNL     1      -0.598  -0.778  -0.378  0.00  0.00    -0.492 OA
BRANCH  36  38
ATOM     37  C   UNL     1      -1.607   1.194  -1.344  0.00  0.00    +0.048 C 
ATOM     38  C   UNL     1      -1.617  -0.334  -1.277  0.00  0.00    +0.225 C 
ENDBRANCH  36  38
ENDBRANCH  30  36
ENDBRANCH  29  33
BRANCH  29  39
ATOM     39  O   UNL     1       1.304  -6.667   0.538  0.00  0.00    -0.387 OA
ATOM     40  H   UNL     1       1.708  -6.239   1.305  0.00  0.00    +0.210 HD
ENDBRANCH  29  39
ENDBRANCH  28  29
ENDBRANCH  27  28
ENDBRANCH  23  27
ENDBRANCH   1  25
TORSDOF 11
