REMARK  Name = ZINC01374832
REMARK  10 active torsions:
REMARK  status: ('A' for Active; 'I' for Inactive)
REMARK    1  A    between atoms: C_1  and  C_2
REMARK    2  A    between atoms: C_2  and  C_3
REMARK    3  A    between atoms: C_3  and  C_5
REMARK    4  A    between atoms: C_3  and  N_18
REMARK    5  A    between atoms: N_9  and  C_10
REMARK    6  A    between atoms: C_10  and  C_11
REMARK    7  A    between atoms: N_18  and  C_19
REMARK    8  A    between atoms: N_18  and  C_26
REMARK    9  A    between atoms: C_19  and  C_20
REMARK   10  A    between atoms: C_26  and  C_27
REMARK                            x       y       z     vdW  Elec       q    Type
REMARK                         _______ _______ _______ _____ _____    ______ ____
ROOT
ATOM      1  N   UNL     1      -2.059  -0.316   1.385  0.00  0.00    -0.284 NA
ENDROOT
BRANCH   1   2
ATOM      2  C   UNL     1      -1.720  -0.634  -0.009  0.00  0.00    +0.127 C 
BRANCH   2   3
ATOM      3  C   UNL     1      -2.922  -0.396  -0.885  0.00  0.00    +0.169 A 
ATOM      4  N   UNL     1      -4.157  -0.758  -0.636  0.00  0.00    -0.112 NA
ATOM      5  N   UNL     1      -4.891  -0.375  -1.622  0.00  0.00    -0.023 NA
ATOM      6  N   UNL     1      -4.157   0.222  -2.495  0.00  0.00    -0.044 NA
ATOM      7  N   UNL     1      -2.938   0.234  -2.075  0.00  0.00    -0.223 N 
BRANCH   7   8
ATOM      8  C   UNL     1      -1.785   0.821  -2.764  0.00  0.00    +0.182 C 
BRANCH   8   9
ATOM      9  C   UNL     1      -1.155  -0.215  -3.659  0.00  0.00    -0.026 A 
ATOM     10  C   UNL     1      -0.158  -1.037  -3.168  0.00  0.00    +0.008 A 
ATOM     11  C   UNL     1       0.421  -1.987  -3.988  0.00  0.00    +0.038 A 
ATOM     12  C   UNL     1       0.001  -2.116  -5.301  0.00  0.00    +0.123 A 
ATOM     13  C   UNL     1      -0.998  -1.292  -5.791  0.00  0.00    +0.038 A 
ATOM     14  C   UNL     1      -1.579  -0.346  -4.968  0.00  0.00    +0.008 A 
ATOM     15  F   UNL     1       0.567  -3.044  -6.104  0.00  0.00    -0.205 F 
ENDBRANCH   8   9
ENDBRANCH   7   8
ENDBRANCH   2   3
BRANCH   2  17
ATOM     16  C   UNL     1      -0.010  -2.317   0.688  0.00  0.00    +0.006 C 
ATOM     17  C   UNL     1      -1.298  -2.102  -0.109  0.00  0.00    +0.023 C 
ENDBRANCH   2  17
ENDBRANCH   1   2
BRANCH   1  18
ATOM     18  C   UNL     1      -3.268  -1.035   1.809  0.00  0.00    +0.120 C 
BRANCH  18  19
ATOM     19  C   UNL     1      -3.361  -1.016   3.313  0.00  0.00    -0.033 A 
ATOM     20  C   UNL     1      -2.679  -1.959   4.059  0.00  0.00    +0.005 A 
ATOM     21  C   UNL     1      -2.764  -1.942   5.439  0.00  0.00    +0.000 A 
ATOM     22  C   UNL     1      -3.531  -0.983   6.073  0.00  0.00    +0.000 A 
ATOM     23  C   UNL     1      -4.213  -0.040   5.327  0.00  0.00    +0.000 A 
ATOM     24  C   UNL     1      -4.124  -0.054   3.947  0.00  0.00    +0.005 A 
ENDBRANCH  18  19
ENDBRANCH   1  18
BRANCH   1  25
ATOM     25  C   UNL     1      -2.215   1.133   1.571  0.00  0.00    +0.126 C 
BRANCH  25  26
ATOM     26  C   UNL     1      -0.857   1.783   1.612  0.00  0.00    +0.031 A 
ATOM     27  C   UNL     1      -0.348   2.358   0.492  0.00  0.00    +0.020 A 
ATOM     28  C   UNL     1       0.973   2.982   0.565  0.00  0.00    +0.003 A 
ATOM     29  C   UNL     1       1.548   3.588  -0.558  0.00  0.00    +0.059 A 
ATOM     30  C   UNL     1       2.794   4.170  -0.460  0.00  0.00    +0.163 A 
ATOM     31  C   UNL     1       3.483   4.156   0.756  0.00  0.00    +0.164 A 
ATOM     32  C   UNL     1       2.923   3.556   1.871  0.00  0.00    +0.075 A 
ATOM     33  C   UNL     1       1.669   2.966   1.789  0.00  0.00    +0.053 A 
ATOM     34  N   UNL     1       1.096   2.364   2.890  0.00  0.00    -0.322 N 
ATOM     35  H   UNL     1       1.576   2.353   3.733  0.00  0.00    +0.169 HD
ATOM     36  C   UNL     1      -0.121   1.798   2.814  0.00  0.00    +0.254 A 
ATOM     37  O   UNL     1      -0.599   1.280   3.809  0.00  0.00    -0.268 OA
ATOM     38  O   UNL     1       4.710   4.734   0.864  0.00  0.00    -0.485 OA
ATOM     39  C   UNL     1       5.407   4.998  -0.358  0.00  0.00    +0.270 C 
ATOM     40  C   UNL     1       4.428   5.658  -1.339  0.00  0.00    +0.270 C 
ATOM     41  O   UNL     1       3.341   4.754  -1.562  0.00  0.00    -0.485 OA
ENDBRANCH  25  26
ENDBRANCH   1  25
TORSDOF 9
