REMARK  Name = ZINC54902067
REMARK  9 active torsions:
REMARK  status: ('A' for Active; 'I' for Inactive)
REMARK    1  A    between atoms: C_3  and  C_6
REMARK    2  A    between atoms: C_9  and  S_12
REMARK    3  A    between atoms: N_10  and  N_11
REMARK    4  A    between atoms: S_12  and  C_13
REMARK    5  A    between atoms: C_13  and  C_14
REMARK    6  A    between atoms: C_14  and  C_15
REMARK    7  A    between atoms: C_15  and  O_16
REMARK    8  A    between atoms: O_16  and  C_17
REMARK    9  A    between atoms: C_20  and  N_23
REMARK                            x       y       z     vdW  Elec       q    Type
REMARK                         _______ _______ _______ _____ _____    ______ ____
ROOT
ATOM      1  S   UNL     1       7.620   1.585   0.337  0.00  0.00    -0.084 S 
ENDROOT
BRANCH   1   5
ATOM      2  C   UNL     1       3.735   1.821  -0.024  0.00  0.00    +0.188 A 
ATOM      3  N   UNL     1       4.126   3.048  -0.290  0.00  0.00    -0.126 NA
ATOM      4  N   UNL     1       5.406   3.127  -0.209  0.00  0.00    -0.121 NA
ATOM      5  C   UNL     1       5.912   1.958   0.113  0.00  0.00    +0.209 A 
ATOM      6  N   UNL     1       4.867   1.086   0.248  0.00  0.00    -0.223 N 
BRANCH   2   9
ATOM      7  C   UNL     1      -0.016   1.354   0.009  0.00  0.00    +0.008 A 
ATOM      8  C   UNL     1       1.176   2.042   0.002  0.00  0.00    +0.019 A 
ATOM      9  C   UNL     1       2.348   1.328  -0.013  0.00  0.00    +0.058 A 
ATOM     10  S   UNL     1       1.752  -0.355  -0.017  0.00  0.00    -0.093 S 
ATOM     11  C   UNL     1       0.002  -0.004   0.002  0.00  0.00    +0.046 A 
ENDBRANCH   2   9
BRANCH   6  12
ATOM     12  N   UNL     1       4.934  -0.237   0.579  0.00  0.00    -0.295 N 
ATOM     13  H   UNL     1       5.024  -0.812  -0.245  0.00  0.00    +0.163 HD
ATOM     14  H   UNL     1       5.688  -0.411   1.226  0.00  0.00    +0.163 HD
ENDBRANCH   6  12
ENDBRANCH   1   5
BRANCH   1  15
ATOM     15  C   UNL     1       8.459   3.162   0.023  0.00  0.00    +0.081 C 
BRANCH  15  16
ATOM     16  C   UNL     1       9.969   2.978   0.185  0.00  0.00    +0.052 C 
BRANCH  16  17
ATOM     17  C   UNL     1      10.677   4.308  -0.080  0.00  0.00    +0.230 C 
BRANCH  17  18
ATOM     18  O   UNL     1      12.087   4.136   0.072  0.00  0.00    -0.492 OA
BRANCH  18  19
ATOM     19  C   UNL     1      12.867   5.230  -0.130  0.00  0.00    +0.121 A 
ATOM     20  C   UNL     1      12.287   6.445  -0.463  0.00  0.00    +0.048 A 
ATOM     21  C   UNL     1      13.083   7.556  -0.668  0.00  0.00    +0.036 A 
ATOM     22  C   UNL     1      14.456   7.457  -0.542  0.00  0.00    +0.126 A 
ATOM     23  C   UNL     1      15.037   6.247  -0.211  0.00  0.00    +0.036 A 
ATOM     24  C   UNL     1      14.245   5.134   0.001  0.00  0.00    +0.048 A 
BRANCH  22  25
ATOM     25  N   UNL     1      15.306   8.649  -0.762  0.00  0.00    +0.056 N 
ATOM     26  O   UNL     1      14.799   9.707  -1.052  0.00  0.00    -0.126 OA
ATOM     27  O   UNL     1      16.507   8.563  -0.652  0.00  0.00    -0.126 OA
ENDBRANCH  22  25
ENDBRANCH  18  19
ENDBRANCH  17  18
ENDBRANCH  16  17
ENDBRANCH  15  16
ENDBRANCH   1  15
TORSDOF 9
