REMARK  Name = ZINC59896935
REMARK  5 active torsions:
REMARK  status: ('A' for Active; 'I' for Inactive)
REMARK    1  A    between atoms: C_1  and  C_2
REMARK    2  A    between atoms: C_7  and  C_8
REMARK    3  A    between atoms: C_18  and  C_20
REMARK    4  A    between atoms: C_20  and  C_21
REMARK    5  A    between atoms: C_20  and  C_22
REMARK                            x       y       z     vdW  Elec       q    Type
REMARK                         _______ _______ _______ _____ _____    ______ ____
ROOT
ATOM      1  C   UNL     1       0.032  -0.392   2.496  0.00  0.00    +0.267 C 
ATOM      2  O   UNL     1      -0.020  -0.752   1.335  0.00  0.00    -0.268 OA
ATOM      3  N   UNL     1       0.156  -1.304   3.480  0.00  0.00    -0.266 N 
ATOM      4  C   UNL     1       0.159  -0.887   4.889  0.00  0.00    +0.114 C 
ATOM      5  C   UNL     1       1.290  -1.643   5.599  0.00  0.00    +0.024 C 
ATOM      6  C   UNL     1       0.988  -3.141   5.554  0.00  0.00    +0.038 C 
ATOM      7  C   UNL     1       0.682  -3.575   4.144  0.00  0.00    -0.026 A 
ATOM      8  C   UNL     1       0.278  -2.666   3.177  0.00  0.00    +0.040 A 
ATOM      9  C   UNL     1      -0.006  -3.101   1.887  0.00  0.00    +0.024 A 
ATOM     10  C   UNL     1       0.110  -4.439   1.568  0.00  0.00    +0.006 A 
ATOM     11  C   UNL     1       0.510  -5.346   2.532  0.00  0.00    -0.044 A 
ATOM     12  C   UNL     1       0.803  -4.914   3.815  0.00  0.00    +0.009 A 
ENDROOT
BRANCH   1  19
ATOM     13  C   UNL     1       1.337   1.917   0.842  0.00  0.00    +0.047 C 
ATOM     14  C   UNL     1       0.528   2.052   2.106  0.00  0.00    -0.010 A 
ATOM     15  C   UNL     1       0.207   3.242   2.770  0.00  0.00    +0.042 A 
ATOM     16  C   UNL     1      -0.552   2.909   3.893  0.00  0.00    +0.027 A 
ATOM     17  N   UNL     1      -0.692   1.584   3.914  0.00  0.00    -0.354 N 
ATOM     18  H   UNL     1      -1.178   1.082   4.587  0.00  0.00    +0.166 HD
ATOM     19  C   UNL     1      -0.040   1.038   2.825  0.00  0.00    +0.106 A 
ATOM     20  C   UNL     1      -1.077   3.939   4.860  0.00  0.00    +0.054 C 
ATOM     21  C   UNL     1      -0.259   5.227   4.720  0.00  0.00    +0.014 C 
ATOM     22  C   UNL     1      -0.215   5.684   3.259  0.00  0.00    +0.080 C 
ATOM     23  C   UNL     1       0.540   4.639   2.451  0.00  0.00    +0.165 C 
ATOM     24  O   UNL     1       1.357   4.936   1.605  0.00  0.00    -0.292 OA
ENDBRANCH   1  19
BRANCH  11  25
ATOM     25  C   UNL     1       0.639  -6.806   2.183  0.00  0.00    +0.013 C 
ATOM     26  C   UNL     1      -0.715  -7.340   1.712  0.00  0.00    +0.012 C 
ATOM     27  C   UNL     1       1.670  -6.974   1.065  0.00  0.00    +0.012 C 
ENDBRANCH  11  25
TORSDOF 2
