REMARK  Name = ZINC46791571
REMARK  9 active torsions:
REMARK  status: ('A' for Active; 'I' for Inactive)
REMARK    1  A    between atoms: C_1  and  C_2
REMARK    2  A    between atoms: C_7  and  C_10
REMARK    3  A    between atoms: C_14  and  C_17
REMARK    4  A    between atoms: C_17  and  N_18
REMARK    5  A    between atoms: C_19  and  C_21
REMARK    6  A    between atoms: C_21  and  N_22
REMARK    7  A    between atoms: N_22  and  C_23
REMARK    8  A    between atoms: N_22  and  S_24
REMARK    9  A    between atoms: S_24  and  C_27
REMARK                            x       y       z     vdW  Elec       q    Type
REMARK                         _______ _______ _______ _____ _____    ______ ____
ROOT
ATOM      1  N   UNL     1      -3.369  -5.796  -4.369  0.00  0.00    -0.310 N 
ATOM      2  C   UNL     1      -3.827  -6.645  -5.310  0.00  0.00    +0.229 C 
ATOM      3  O   UNL     1      -4.914  -7.167  -5.179  0.00  0.00    -0.274 OA
ATOM      4  H   UNL     1      -2.500  -5.378  -4.474  0.00  0.00    +0.149 HD
ENDROOT
BRANCH   1   5
ATOM      5  C   UNL     1      -4.185  -5.503  -3.188  0.00  0.00    +0.141 C 
BRANCH   5  17
ATOM      6  C   UNL     1       0.024   1.508  -0.007  0.00  0.00    +0.039 C 
ATOM      7  C   UNL     1       0.027  -0.022  -0.001  0.00  0.00    +0.133 C 
ATOM      8  C   UNL     1      -1.417  -0.537   0.001  0.00  0.00    +0.137 C 
ATOM      9  N   UNL     1      -1.389  -1.995   0.196  0.00  0.00    -0.312 N 
ATOM     10  C   UNL     1      -0.598  -2.529   1.316  0.00  0.00    +0.137 C 
ATOM     11  C   UNL     1       0.806  -1.917   1.250  0.00  0.00    +0.133 C 
ATOM     12  O   UNL     1       0.698  -0.493   1.171  0.00  0.00    -0.371 OA
ATOM     13  C   UNL     1       1.591  -2.301   2.506  0.00  0.00    +0.039 C 
ATOM     14  C   UNL     1      -2.091  -2.844  -0.652  0.00  0.00    +0.099 A 
ATOM     15  C   UNL     1      -2.927  -2.308  -1.627  0.00  0.00    +0.042 A 
ATOM     16  C   UNL     1      -3.619  -3.164  -2.464  0.00  0.00    +0.010 A 
ATOM     17  C   UNL     1      -3.451  -4.533  -2.299  0.00  0.00    -0.014 A 
ATOM     18  C   UNL     1      -2.604  -4.995  -1.311  0.00  0.00    +0.089 A 
ATOM     19  N   UNL     1      -1.953  -4.155  -0.530  0.00  0.00    -0.349 N 
ATOM     20  H   UNL     1      -1.361  -4.507   0.154  0.00  0.00    +0.167 HD
ENDBRANCH   5  17
ENDBRANCH   1   5
BRANCH   2  21
ATOM     21  C   UNL     1      -2.989  -6.946  -6.526  0.00  0.00    +0.204 C 
BRANCH  21  22
ATOM     22  N   UNL     1      -3.702  -7.889  -7.390  0.00  0.00    -0.171 NA
ATOM     23  C   UNL     1      -4.681  -7.395  -8.362  0.00  0.00    +0.132 C 
BRANCH  22  24
ATOM     24  S   UNL     1      -3.403  -9.513  -7.269  0.00  0.00    +0.061 S 
ATOM     25  O   UNL     1      -3.762 -10.087  -8.519  0.00  0.00    -0.153 OA
ATOM     26  O   UNL     1      -2.100  -9.646  -6.716  0.00  0.00    -0.153 OA
BRANCH  24  27
ATOM     27  C   UNL     1      -4.525 -10.162  -6.076  0.00  0.00    +0.109 A 
ATOM     28  C   UNL     1      -4.167 -10.200  -4.741  0.00  0.00    +0.032 A 
ATOM     29  C   UNL     1      -5.044 -10.709  -3.802  0.00  0.00    +0.051 A 
ATOM     30  C   UNL     1      -6.286 -11.184  -4.197  0.00  0.00    +0.162 A 
ATOM     31  C   UNL     1      -6.646 -11.145  -5.539  0.00  0.00    +0.164 A 
ATOM     32  C   UNL     1      -5.763 -10.629  -6.475  0.00  0.00    +0.078 A 
ATOM     33  O   UNL     1      -7.863 -11.598  -5.947  0.00  0.00    -0.485 OA
ATOM     34  C   UNL     1      -8.574 -12.443  -5.035  0.00  0.00    +0.270 C 
ATOM     35  C   UNL     1      -8.513 -11.804  -3.641  0.00  0.00    +0.270 C 
ATOM     36  O   UNL     1      -7.138 -11.686  -3.261  0.00  0.00    -0.485 OA
ENDBRANCH  24  27
ENDBRANCH  22  24
ENDBRANCH  21  22
ENDBRANCH   2  21
TORSDOF 6
