REMARK  Name = ZINC13508193
REMARK  10 active torsions:
REMARK  status: ('A' for Active; 'I' for Inactive)
REMARK    1  A    between atoms: C_1  and  C_2
REMARK    2  A    between atoms: C_5  and  N_9
REMARK    3  A    between atoms: C_6  and  C_8
REMARK    4  A    between atoms: N_9  and  C_10
REMARK    5  A    between atoms: C_10  and  C_12
REMARK    6  A    between atoms: C_10  and  C_18
REMARK    7  A    between atoms: N_20  and  C_21
REMARK    8  A    between atoms: C_27  and  C_29
REMARK    9  A    between atoms: C_29  and  N_30
REMARK   10  A    between atoms: C_31  and  C_33
REMARK                            x       y       z     vdW  Elec       q    Type
REMARK                         _______ _______ _______ _____ _____    ______ ____
ROOT
ATOM      1  N   UNL     1       0.541  -4.924   1.006  0.00  0.00    -0.254 N 
ATOM      2  C   UNL     1      -0.217  -6.026   1.169  0.00  0.00    +0.238 C 
ATOM      3  O   UNL     1      -0.138  -6.940   0.376  0.00  0.00    -0.274 OA
ENDROOT
BRANCH   1   8
ATOM      4  C   UNL     1       0.169  -0.652   4.721  0.00  0.00    +0.044 C 
ATOM      5  C   UNL     1       0.268  -1.787   3.734  0.00  0.00    -0.050 A 
ATOM      6  C   UNL     1      -0.618  -1.859   2.675  0.00  0.00    +0.005 A 
ATOM      7  C   UNL     1      -0.530  -2.898   1.769  0.00  0.00    +0.024 A 
ATOM      8  C   UNL     1       0.450  -3.870   1.922  0.00  0.00    +0.040 A 
ATOM      9  C   UNL     1       1.338  -3.794   2.987  0.00  0.00    -0.029 A 
ATOM     10  C   UNL     1       1.248  -2.750   3.886  0.00  0.00    +0.008 A 
ATOM     11  C   UNL     1       2.403  -4.847   3.157  0.00  0.00    +0.045 C 
ENDBRANCH   1   8
BRANCH   1  12
ATOM     12  C   UNL     1       1.462  -4.830  -0.129  0.00  0.00    +0.199 C 
BRANCH  12  13
ATOM     13  C   UNL     1       0.679  -4.882  -1.416  0.00  0.00    +0.000 A 
ATOM     14  C   UNL     1       1.016  -5.793  -2.406  0.00  0.00    +0.009 A 
ATOM     15  C   UNL     1       0.268  -5.806  -3.573  0.00  0.00    +0.020 A 
ATOM     16  C   UNL     1      -0.781  -4.916  -3.710  0.00  0.00    +0.111 A 
ATOM     17  N   UNL     1      -1.073  -4.064  -2.748  0.00  0.00    -0.263 NA
ATOM     18  C   UNL     1      -0.387  -4.027  -1.622  0.00  0.00    +0.116 A 
ENDBRANCH  12  13
BRANCH  12  19
ATOM     19  C   UNL     1       2.219  -3.529  -0.055  0.00  0.00    +0.239 C 
ATOM     20  O   UNL     1       1.643  -2.509   0.256  0.00  0.00    -0.273 OA
ATOM     21  N   UNL     1       3.538  -3.500  -0.335  0.00  0.00    -0.311 N 
ATOM     22  H   UNL     1       3.999  -4.317  -0.583  0.00  0.00    +0.149 HD
BRANCH  21  23
ATOM     23  C   UNL     1       4.274  -2.236  -0.262  0.00  0.00    +0.073 C 
ATOM     24  C   UNL     1       4.127  -1.484  -1.586  0.00  0.00    +0.022 C 
ATOM     25  C   UNL     1       4.896  -0.163  -1.511  0.00  0.00    +0.002 C 
ATOM     26  C   UNL     1       6.376  -0.450  -1.250  0.00  0.00    +0.000 C 
ATOM     27  C   UNL     1       6.524  -1.202   0.074  0.00  0.00    +0.002 C 
ATOM     28  C   UNL     1       5.754  -2.522  -0.001  0.00  0.00    +0.022 C 
ENDBRANCH  21  23
ENDBRANCH  12  19
ENDBRANCH   1  12
BRANCH   2  29
ATOM     29  C   UNL     1      -1.164  -6.123   2.338  0.00  0.00    +0.201 C 
BRANCH  29  30
ATOM     30  N   UNL     1      -1.868  -7.407   2.291  0.00  0.00    -0.300 N 
ATOM     31  C   UNL     1      -2.771  -7.716   3.242  0.00  0.00    +0.280 C 
ATOM     32  O   UNL     1      -3.002  -6.928   4.140  0.00  0.00    -0.267 OA
ATOM     33  H   UNL     1      -1.684  -8.035   1.575  0.00  0.00    +0.150 HD
BRANCH  31  34
ATOM     34  C   UNL     1      -3.476  -9.002   3.195  0.00  0.00    +0.189 A 
ATOM     35  C   UNL     1      -4.414  -9.436   4.087  0.00  0.00    +0.054 A 
ATOM     36  C   UNL     1      -4.819 -10.710   3.659  0.00  0.00    +0.042 A 
ATOM     37  C   UNL     1      -4.119 -10.994   2.539  0.00  0.00    +0.196 A 
ATOM     38  O   UNL     1      -3.314  -9.960   2.259  0.00  0.00    -0.458 OA
ENDBRANCH  31  34
ENDBRANCH  29  30
ENDBRANCH   2  29
TORSDOF 8
