REMARK  Name = ZINC22805667
REMARK  11 active torsions:
REMARK  status: ('A' for Active; 'I' for Inactive)
REMARK    1  A    between atoms: C_1  and  N_2
REMARK    2  A    between atoms: N_5  and  C_8
REMARK    3  A    between atoms: C_8  and  C_10
REMARK    4  A    between atoms: C_8  and  C_24
REMARK    5  A    between atoms: C_10  and  N_11
REMARK    6  A    between atoms: C_12  and  C_14
REMARK    7  A    between atoms: C_16  and  O_22
REMARK    8  A    between atoms: C_18  and  O_20
REMARK    9  A    between atoms: O_20  and  C_21
REMARK   10  A    between atoms: O_22  and  C_23
REMARK   11  A    between atoms: N_32  and  C_33
REMARK                            x       y       z     vdW  Elec       q    Type
REMARK                         _______ _______ _______ _____ _____    ______ ____
ROOT
ATOM      1  C   UNL     1      -1.349  -0.546  -0.071  0.00  0.00    +0.104 C 
ENDROOT
BRANCH   1   2
ATOM      2  C   UNL     1      -1.163  -1.979  -0.499  0.00  0.00    -0.028 A 
ATOM      3  C   UNL     1      -0.208  -2.768   0.115  0.00  0.00    +0.007 A 
ATOM      4  C   UNL     1      -0.033  -4.079  -0.274  0.00  0.00    +0.024 A 
ATOM      5  C   UNL     1      -0.819  -4.619  -1.291  0.00  0.00    +0.033 A 
ATOM      6  C   UNL     1      -1.779  -3.819  -1.900  0.00  0.00    -0.025 A 
ATOM      7  C   UNL     1      -1.952  -2.510  -1.504  0.00  0.00    +0.010 A 
ATOM      8  C   UNL     1      -2.485  -4.654  -2.950  0.00  0.00    +0.056 C 
ATOM      9  C   UNL     1      -2.090  -6.098  -2.564  0.00  0.00    +0.109 C 
ATOM     10  N   UNL     1      -0.808  -5.902  -1.851  0.00  0.00    -0.332 N 
ATOM     11  C   UNL     1      -0.620  -6.927  -0.815  0.00  0.00    +0.129 C 
ENDBRANCH   1   2
BRANCH   1  16
ATOM     12  C   UNL     1       3.254   1.559  -2.578  0.00  0.00    -0.096 C 
ATOM     13  N   UNL     1       2.129   0.752  -2.087  0.00  0.00    +0.379 N 
ATOM     14  C   UNL     1       2.202   0.578  -0.629  0.00  0.00    -0.064 C 
ATOM     15  C   UNL     1       1.061  -0.332  -0.169  0.00  0.00    +0.066 C 
ATOM     16  N   UNL     1      -0.225   0.261  -0.562  0.00  0.00    -0.297 NA
ATOM     17  C   UNL     1      -0.298   0.435  -2.019  0.00  0.00    +0.066 C 
ATOM     18  C   UNL     1       0.843   1.345  -2.480  0.00  0.00    -0.064 C 
ATOM     19  H   UNL     1       2.200  -0.243  -2.551  0.00  0.00    -0.082 HD
ENDBRANCH   1  16
BRANCH   1  20
ATOM     20  C   UNL     1      -1.401  -0.473   1.457  0.00  0.00    +0.128 C 
BRANCH  20  21
ATOM     21  N   UNL     1      -1.496   0.927   1.876  0.00  0.00    -0.310 N 
ATOM     22  C   UNL     1      -1.647   1.232   3.180  0.00  0.00    +0.244 C 
ATOM     23  O   UNL     1      -1.705   0.344   4.008  0.00  0.00    -0.270 OA
ATOM     24  H   UNL     1      -1.443   1.731   1.126  0.00  0.00    +0.149 HD
BRANCH  22  25
ATOM     25  C   UNL     1      -1.743   2.646   3.603  0.00  0.00    +0.044 A 
ATOM     26  C   UNL     1      -1.671   3.666   2.654  0.00  0.00    +0.059 A 
ATOM     27  C   UNL     1      -1.766   4.989   3.054  0.00  0.00    +0.124 A 
ATOM     28  C   UNL     1      -1.922   5.300   4.397  0.00  0.00    +0.091 A 
ATOM     29  C   UNL     1      -1.989   4.288   5.344  0.00  0.00    +0.124 A 
ATOM     30  C   UNL     1      -1.899   2.963   4.952  0.00  0.00    +0.059 A 
BRANCH  29  31
ATOM     31  O   UNL     1      -2.142   4.599   6.658  0.00  0.00    -0.495 OA
ATOM     32  C   UNL     1      -2.227   5.986   6.992  0.00  0.00    +0.277 C 
ENDBRANCH  29  31
BRANCH  27  33
ATOM     33  O   UNL     1      -1.702   5.983   2.130  0.00  0.00    -0.495 OA
ATOM     34  C   UNL     1      -1.802   7.325   2.612  0.00  0.00    +0.277 C 
ENDBRANCH  27  33
ENDBRANCH  22  25
ENDBRANCH  20  21
ENDBRANCH   1  20
TORSDOF 7
