REMARK  Name = ZINC42948966
REMARK  3 active torsions:
REMARK  status: ('A' for Active; 'I' for Inactive)
REMARK    1  A    between atoms: C_1  and  C_2
REMARK    2  A    between atoms: C_7  and  N_10
REMARK    3  A    between atoms: C_16  and  C_19
REMARK                            x       y       z     vdW  Elec       q    Type
REMARK                         _______ _______ _______ _____ _____    ______ ____
ROOT
ATOM      1  N   UNL     1      -0.612  -2.547   1.244  0.00  0.00    -0.296 N 
ATOM      2  C   UNL     1      -0.873  -3.776   1.733  0.00  0.00    +0.302 C 
ATOM      3  O   UNL     1       0.041  -4.499   2.080  0.00  0.00    -0.253 OA
ATOM      4  N   UNL     1      -2.147  -4.203   1.836  0.00  0.00    -0.286 N 
ATOM      5  C   UNL     1      -3.254  -3.390   1.313  0.00  0.00    +0.110 C 
ATOM      6  C   UNL     1      -4.283  -3.183   2.429  0.00  0.00    +0.032 C 
ATOM      7  C   UNL     1      -4.710  -4.544   2.984  0.00  0.00    +0.078 C 
ATOM      8  C   UNL     1      -3.493  -5.260   3.575  0.00  0.00    +0.032 C 
ATOM      9  C   UNL     1      -2.455  -5.494   2.467  0.00  0.00    +0.110 C 
ATOM     10  H   UNL     1      -1.333  -1.999   0.899  0.00  0.00    +0.151 HD
ENDROOT
BRANCH   1  16
ATOM     11  C   UNL     1      -0.019   1.527   0.014  0.00  0.00    +0.007 C 
ATOM     12  C   UNL     1       0.002  -0.003   0.005  0.00  0.00    -0.012 C 
ATOM     13  C   UNL     1       0.719  -0.495  -1.254  0.00  0.00    +0.003 C 
ATOM     14  C   UNL     1       0.741  -2.025  -1.263  0.00  0.00    +0.002 C 
ATOM     15  C   UNL     1       1.480  -2.532  -0.023  0.00  0.00    +0.022 C 
ATOM     16  C   UNL     1       0.763  -2.040   1.235  0.00  0.00    +0.075 C 
ATOM     17  C   UNL     1       0.741  -0.510   1.245  0.00  0.00    +0.025 C 
ENDBRANCH   1  16
BRANCH   7  18
ATOM     18  C   UNL     1      -5.747  -4.345   4.058  0.00  0.00    +0.214 C 
ATOM     19  O   UNL     1      -6.109  -3.226   4.352  0.00  0.00    -0.276 OA
ATOM     20  N   UNL     1      -6.272  -5.412   4.693  0.00  0.00    -0.329 N 
ATOM     21  H   UNL     1      -5.983  -6.307   4.458  0.00  0.00    +0.145 HD
ATOM     22  H   UNL     1      -6.940  -5.284   5.385  0.00  0.00    +0.145 HD
ENDBRANCH   7  18
TORSDOF 2
