REMARK  Name = ZINC39654050
REMARK  9 active torsions:
REMARK  status: ('A' for Active; 'I' for Inactive)
REMARK    1  A    between atoms: C_1  and  C_2
REMARK    2  A    between atoms: C_2  and  O_3
REMARK    3  A    between atoms: O_3  and  C_4
REMARK    4  A    between atoms: C_7  and  C_10
REMARK    5  A    between atoms: C_10  and  C_11
REMARK    6  A    between atoms: C_11  and  N_12
REMARK    7  A    between atoms: C_13  and  C_15
REMARK    8  A    between atoms: C_26  and  C_28
REMARK    9  A    between atoms: C_31  and  C_33
REMARK                            x       y       z     vdW  Elec       q    Type
REMARK                         _______ _______ _______ _____ _____    ______ ____
ROOT
ATOM      1  C   UNL     1      -2.477 -10.232   2.581  0.00  0.00    +0.100 C 
ATOM      2  C   UNL     1      -1.324 -10.906   1.804  0.00  0.00    +0.121 C 
ATOM      3  N   UNL     1      -0.338 -11.278   2.845  0.00  0.00    -0.294 N 
ATOM      4  C   UNL     1      -1.163 -11.748   3.984  0.00  0.00    +0.115 C 
ATOM      5  C   UNL     1      -2.369 -10.790   4.010  0.00  0.00    -0.004 C 
ATOM      6  C   UNL     1      -3.640 -11.550   4.378  0.00  0.00    -0.010 C 
ATOM      7  C   UNL     1      -3.534 -12.045   5.823  0.00  0.00    -0.082 C 
ATOM      8  N   UNL     1      -3.347 -10.899   6.722  0.00  0.00    +0.379 N 
ATOM      9  C   UNL     1      -2.076 -10.229   6.422  0.00  0.00    -0.082 C 
ATOM     10  C   UNL     1      -2.121  -9.657   5.002  0.00  0.00    -0.010 C 
ATOM     11  C   UNL     1       1.006 -11.204   2.774  0.00  0.00    +0.282 C 
ATOM     12  O   UNL     1       1.686 -11.550   3.722  0.00  0.00    -0.267 OA
ATOM     13  H   UNL     1      -4.108 -10.248   6.596  0.00  0.00    -0.086 HD
ATOM     14  H   UNL     1      -3.339 -11.222   7.678  0.00  0.00    -0.086 HD
ENDROOT
BRANCH  11  15
ATOM     15  C   UNL     1       1.649 -10.709   1.554  0.00  0.00    +0.190 A 
ATOM     16  C   UNL     1       3.005 -10.588   1.346  0.00  0.00    +0.055 A 
ATOM     17  C   UNL     1       3.172 -10.078   0.055  0.00  0.00    +0.051 A 
ATOM     18  C   UNL     1       1.924  -9.908  -0.474  0.00  0.00    +0.139 A 
ATOM     19  O   UNL     1       1.015 -10.296   0.436  0.00  0.00    -0.450 OA
BRANCH  18  20
ATOM     20  C   UNL     1       1.624  -9.389  -1.823  0.00  0.00    +0.052 A 
ATOM     21  C   UNL     1       2.221  -8.207  -2.269  0.00  0.00    +0.014 A 
ATOM     22  C   UNL     1       1.937  -7.728  -3.530  0.00  0.00    +0.001 A 
ATOM     23  C   UNL     1       1.062  -8.414  -4.355  0.00  0.00    +0.003 A 
ATOM     24  C   UNL     1       0.466  -9.584  -3.922  0.00  0.00    +0.039 A 
ATOM     25  C   UNL     1       0.746 -10.081  -2.663  0.00  0.00    +0.134 A 
ATOM     26  F   UNL     1       0.168 -11.227  -2.243  0.00  0.00    -0.205 F 
ENDBRANCH  18  20
ENDBRANCH  11  15
BRANCH   1  28
ATOM     27  N   UNL     1      -3.377  -7.929   2.674  0.00  0.00    -0.315 N 
ATOM     28  C   UNL     1      -2.300  -8.735   2.587  0.00  0.00    +0.218 C 
ATOM     29  O   UNL     1      -1.188  -8.256   2.515  0.00  0.00    -0.275 OA
ATOM     30  H   UNL     1      -4.266  -8.313   2.732  0.00  0.00    +0.149 HD
BRANCH  27  31
ATOM     31  C   UNL     1      -3.204  -6.474   2.680  0.00  0.00    +0.109 C 
BRANCH  31  32
ATOM     32  C   UNL     1      -4.573  -5.799   2.785  0.00  0.00    +0.054 C 
BRANCH  32  36
ATOM     33  C   UNL     1      -4.071  -1.556   2.803  0.00  0.00    +0.121 A 
ATOM     34  C   UNL     1      -4.238  -2.230   1.603  0.00  0.00    +0.046 A 
ATOM     35  C   UNL     1      -4.400  -3.602   1.600  0.00  0.00    +0.007 A 
ATOM     36  C   UNL     1      -4.396  -4.303   2.792  0.00  0.00    -0.046 A 
ATOM     37  C   UNL     1      -4.231  -3.632   3.990  0.00  0.00    +0.007 A 
ATOM     38  C   UNL     1      -4.063  -2.261   3.998  0.00  0.00    +0.046 A 
BRANCH  33  39
ATOM     39  O   UNL     1      -3.912  -0.206   2.809  0.00  0.00    -0.492 OA
BRANCH  39  41
ATOM     40  C   UNL     1      -3.738   1.959   1.748  0.00  0.00    +0.048 C 
ATOM     41  C   UNL     1      -3.931   0.455   1.542  0.00  0.00    +0.225 C 
ENDBRANCH  39  41
ENDBRANCH  33  39
ENDBRANCH  32  36
ENDBRANCH  31  32
ENDBRANCH  27  31
ENDBRANCH   1  28
TORSDOF 8
