REMARK  Name = ZINC34016610
REMARK  12 active torsions:
REMARK  status: ('A' for Active; 'I' for Inactive)
REMARK    1  A    between atoms: C_5  and  C_7
REMARK    2  A    between atoms: C_7  and  N_8
REMARK    3  A    between atoms: N_8  and  C_9
REMARK    4  A    between atoms: C_9  and  C_10
REMARK    5  A    between atoms: C_10  and  N_11
REMARK    6  A    between atoms: N_11  and  C_12
REMARK    7  A    between atoms: N_11  and  C_28
REMARK    8  A    between atoms: C_12  and  C_13
REMARK    9  A    between atoms: C_16  and  C_19
REMARK   10  A    between atoms: C_19  and  N_20
REMARK   11  A    between atoms: N_20  and  C_21
REMARK   12  A    between atoms: C_21  and  C_22
REMARK                            x       y       z     vdW  Elec       q    Type
REMARK                         _______ _______ _______ _____ _____    ______ ____
ROOT
ATOM      1  N   UNL     1       1.799  -6.061  -2.852  0.00  0.00    -0.292 NA
ENDROOT
BRANCH   1   2
ATOM      2  C   UNL     1       0.585  -6.341  -2.074  0.00  0.00    +0.106 C 
ATOM      3  C   UNL     1      -0.447  -5.247  -2.340  0.00  0.00    +0.025 C 
ATOM      4  C   UNL     1      -1.616  -5.436  -1.366  0.00  0.00    +0.007 C 
ATOM      5  C   UNL     1      -1.131  -5.085   0.040  0.00  0.00    +0.037 C 
ATOM      6  C   UNL     1       0.143  -5.820   0.359  0.00  0.00    -0.025 A 
ATOM      7  C   UNL     1       0.935  -6.394  -0.609  0.00  0.00    +0.062 A 
ATOM      8  N   UNL     1       2.051  -7.024  -0.267  0.00  0.00    -0.258 NA
ATOM      9  C   UNL     1       2.444  -7.132   0.984  0.00  0.00    +0.111 A 
ATOM     10  C   UNL     1       1.695  -6.582   2.007  0.00  0.00    +0.020 A 
ATOM     11  C   UNL     1       0.525  -5.915   1.693  0.00  0.00    +0.007 A 
ENDBRANCH   1   2
BRANCH   1  12
ATOM     12  C   UNL     1       2.145  -4.635  -2.792  0.00  0.00    +0.066 C 
BRANCH  12  13
ATOM     13  C   UNL     1       2.580  -4.275  -1.370  0.00  0.00    -0.066 C 
BRANCH  13  14
ATOM     14  N   UNL     1       2.926  -2.848  -1.310  0.00  0.00    +0.384 N 
ATOM     15  H   UNL     1       2.122  -2.296  -1.566  0.00  0.00    -0.085 HD
ATOM     16  H   UNL     1       3.682  -2.658  -1.952  0.00  0.00    -0.085 HD
BRANCH  14  17
ATOM     17  C   UNL     1       3.344  -2.503   0.055  0.00  0.00    -0.026 C 
BRANCH  17  22
ATOM     18  C   UNL     1       3.086   1.221   0.578  0.00  0.00    +0.003 A 
ATOM     19  C   UNL     1       4.371   1.594   0.215  0.00  0.00    +0.020 A 
ATOM     20  C   UNL     1       5.268   0.621  -0.183  0.00  0.00    +0.111 A 
ATOM     21  N   UNL     1       4.912  -0.649  -0.221  0.00  0.00    -0.262 NA
ATOM     22  C   UNL     1       3.699  -1.040   0.116  0.00  0.00    +0.024 A 
ATOM     23  C   UNL     1       2.749  -0.122   0.525  0.00  0.00    +0.021 A 
ENDBRANCH  17  22
ENDBRANCH  14  17
ENDBRANCH  13  14
ENDBRANCH  12  13
ENDBRANCH   1  12
BRANCH   1  24
ATOM     24  C   UNL     1       1.647  -6.508  -4.244  0.00  0.00    +0.120 C 
BRANCH  24  25
ATOM     25  C   UNL     1       1.681  -8.014  -4.294  0.00  0.00    -0.033 A 
ATOM     26  C   UNL     1       2.893  -8.677  -4.341  0.00  0.00    +0.005 A 
ATOM     27  C   UNL     1       2.924 -10.058  -4.387  0.00  0.00    +0.002 A 
ATOM     28  C   UNL     1       1.743 -10.776  -4.386  0.00  0.00    -0.064 A 
ATOM     29  C   UNL     1       0.531 -10.113  -4.338  0.00  0.00    +0.002 A 
ATOM     30  C   UNL     1       0.500  -8.732  -4.287  0.00  0.00    +0.005 A 
BRANCH  28  31
ATOM     31  C   UNL     1       1.777 -12.282  -4.437  0.00  0.00    -0.046 C 
BRANCH  31  32
ATOM     32  N   UNL     1       1.818 -12.818  -3.070  0.00  0.00    +0.385 N 
ATOM     33  H   UNL     1       2.644 -12.479  -2.600  0.00  0.00    -0.085 HD
ATOM     34  H   UNL     1       0.997 -12.517  -2.566  0.00  0.00    -0.085 HD
BRANCH  32  35
ATOM     35  C   UNL     1       1.851 -14.286  -3.120  0.00  0.00    -0.026 C 
BRANCH  35  36
ATOM     36  C   UNL     1       1.893 -14.835  -1.717  0.00  0.00    +0.024 A 
ATOM     37  C   UNL     1       0.717 -15.215  -1.097  0.00  0.00    +0.021 A 
ATOM     38  C   UNL     1       0.767 -15.719   0.194  0.00  0.00    +0.003 A 
ATOM     39  C   UNL     1       2.003 -15.823   0.814  0.00  0.00    +0.020 A 
ATOM     40  C   UNL     1       3.135 -15.424   0.131  0.00  0.00    +0.111 A 
ATOM     41  N   UNL     1       3.051 -14.953  -1.098  0.00  0.00    -0.262 NA
ENDBRANCH  35  36
ENDBRANCH  32  35
ENDBRANCH  31  32
ENDBRANCH  28  31
ENDBRANCH  24  25
ENDBRANCH   1  24
TORSDOF 12
