REMARK  Name = ZINC36316722
REMARK  5 active torsions:
REMARK  status: ('A' for Active; 'I' for Inactive)
REMARK    1  A    between atoms: C_1  and  C_2
REMARK    2  A    between atoms: C_15  and  C_17
REMARK    3  A    between atoms: C_17  and  C_19
REMARK    4  A    between atoms: C_17  and  N_20
REMARK    5  A    between atoms: N_23  and  C_26
REMARK                            x       y       z     vdW  Elec       q    Type
REMARK                         _______ _______ _______ _____ _____    ______ ____
ROOT
ATOM      1  C   UNL     1      -1.815   0.935   0.693  0.00  0.00    +0.008 C 
ATOM      2  C   UNL     1      -1.507  -0.559   0.582  0.00  0.00    -0.009 C 
ATOM      3  C   UNL     1      -0.741  -0.832  -0.715  0.00  0.00    +0.008 C 
ATOM      4  C   UNL     1      -0.647  -2.338  -0.956  0.00  0.00    +0.037 C 
ATOM      5  C   UNL     1      -0.076  -3.004   0.293  0.00  0.00    -0.023 A 
ATOM      6  C   UNL     1      -0.095  -2.362   1.484  0.00  0.00    -0.004 A 
ATOM      7  S   UNL     1       0.658  -3.488   2.632  0.00  0.00    -0.073 S 
ATOM      8  C   UNL     1       0.996  -4.812   1.516  0.00  0.00    +0.116 A 
ATOM      9  C   UNL     1       0.509  -4.333   0.279  0.00  0.00    +0.075 A 
ATOM     10  C   UNL     1       0.642  -5.203  -0.855  0.00  0.00    +0.260 A 
ATOM     11  O   UNL     1       0.254  -4.884  -1.966  0.00  0.00    -0.267 OA
ATOM     12  N   UNL     1       1.227  -6.400  -0.612  0.00  0.00    -0.312 N 
ATOM     13  H   UNL     1       1.337  -7.019  -1.351  0.00  0.00    +0.170 HD
ATOM     14  C   UNL     1       1.665  -6.773   0.615  0.00  0.00    +0.097 A 
ATOM     15  N   UNL     1       1.560  -6.005   1.677  0.00  0.00    -0.228 NA
ATOM     16  C   UNL     1      -0.639  -0.996   1.771  0.00  0.00    +0.046 C 
ENDROOT
BRANCH  14  17
ATOM     17  C   UNL     1       2.300  -8.131   0.768  0.00  0.00    -0.004 C 
ATOM     18  C   UNL     1       3.420  -8.290  -0.262  0.00  0.00    -0.005 C 
BRANCH  17  19
ATOM     19  N   UNL     1       2.858  -8.260   2.121  0.00  0.00    +0.388 N 
ATOM     20  C   UNL     1       3.981  -7.327   2.277  0.00  0.00    -0.059 C 
ATOM     21  C   UNL     1       4.490  -7.378   3.721  0.00  0.00    +0.086 C 
ATOM     22  N   UNL     1       4.811  -8.774   4.053  0.00  0.00    -0.333 N 
ATOM     23  C   UNL     1       3.797  -9.804   3.775  0.00  0.00    +0.086 C 
ATOM     24  C   UNL     1       3.321  -9.638   2.328  0.00  0.00    -0.059 C 
ATOM     25  H   UNL     1       2.145  -8.040   2.800  0.00  0.00    -0.081 HD
BRANCH  22  26
ATOM     26  C   UNL     1       6.043  -9.114   4.616  0.00  0.00    +0.031 A 
ATOM     27  C   UNL     1       6.943  -8.117   4.974  0.00  0.00    +0.023 A 
ATOM     28  C   UNL     1       8.161  -8.455   5.531  0.00  0.00    +0.003 A 
ATOM     29  C   UNL     1       8.486  -9.784   5.732  0.00  0.00    +0.020 A 
ATOM     30  C   UNL     1       7.593 -10.779   5.377  0.00  0.00    +0.043 A 
ATOM     31  C   UNL     1       6.370 -10.447   4.825  0.00  0.00    +0.043 A 
ATOM     32 CL   UNL     1       8.005 -12.446   5.631  0.00  0.00    -0.083 Cl
ENDBRANCH  22  26
ENDBRANCH  17  19
ENDBRANCH  14  17
TORSDOF 3
