REMARK  Name = ZINC40824558
REMARK  8 active torsions:
REMARK  status: ('A' for Active; 'I' for Inactive)
REMARK    1  A    between atoms: C_1  and  C_2
REMARK    2  A    between atoms: C_6  and  C_7
REMARK    3  A    between atoms: N_9  and  C_10
REMARK    4  A    between atoms: C_15  and  O_16
REMARK    5  A    between atoms: O_16  and  C_17
REMARK    6  A    between atoms: N_22  and  N_23
REMARK    7  A    between atoms: N_23  and  C_24
REMARK    8  A    between atoms: C_24  and  N_26
REMARK                            x       y       z     vdW  Elec       q    Type
REMARK                         _______ _______ _______ _____ _____    ______ ____
ROOT
ATOM      1  C   UNL     1      -0.043   1.504   0.012  0.00  0.00    +0.048 C 
ATOM      2  C   UNL     1      -0.024  -0.003   0.003  0.00  0.00    +0.009 A 
ATOM      3  C   UNL     1      -0.028  -0.837  -1.122  0.00  0.00    +0.042 A 
ATOM      4  C   UNL     1      -0.007  -2.136  -0.673  0.00  0.00    +0.115 A 
ATOM      5  O   UNL     1       0.012  -2.111   0.658  0.00  0.00    -0.454 OA
ATOM      6  C   UNL     1       0.005  -0.830   1.091  0.00  0.00    +0.193 A 
ATOM      7  C   UNL     1      -0.010  -3.325  -1.600  0.00  0.00    +0.075 C 
ATOM      8  C   UNL     1      -0.545  -2.900  -2.970  0.00  0.00    +0.014 C 
ATOM      9  C   UNL     1       0.222  -1.683  -3.497  0.00  0.00    +0.058 C 
ATOM     10  C   UNL     1      -0.048  -0.510  -2.565  0.00  0.00    +0.070 C 
ATOM     11  N   UNL     1      -0.278   0.689  -3.005  0.00  0.00    -0.185 NA
ENDROOT
BRANCH   6  12
ATOM     12  C   UNL     1       0.024  -0.400   2.494  0.00  0.00    +0.284 C 
ATOM     13  O   UNL     1       0.013   0.787   2.767  0.00  0.00    -0.266 OA
ATOM     14  N   UNL     1       0.053  -1.318   3.480  0.00  0.00    -0.276 N 
ATOM     15  H   UNL     1      -0.003  -2.262   3.265  0.00  0.00    +0.155 HD
BRANCH  14  16
ATOM     16  C   UNL     1       0.166  -0.908   4.815  0.00  0.00    +0.076 A 
ATOM     17  C   UNL     1      -0.438   0.268   5.234  0.00  0.00    +0.027 A 
ATOM     18  C   UNL     1      -0.327   0.670   6.552  0.00  0.00    +0.002 A 
ATOM     19  C   UNL     1       0.386  -0.098   7.454  0.00  0.00    +0.004 A 
ATOM     20  C   UNL     1       0.991  -1.272   7.043  0.00  0.00    +0.047 A 
ATOM     21  C   UNL     1       0.879  -1.684   5.726  0.00  0.00    +0.141 A 
BRANCH  21  22
ATOM     22  O   UNL     1       1.468  -2.841   5.321  0.00  0.00    -0.493 OA
ATOM     23  C   UNL     1       2.183  -3.585   6.310  0.00  0.00    +0.277 C 
ENDBRANCH  21  22
ENDBRANCH  14  16
ENDBRANCH   6  12
BRANCH  11  24
ATOM     24  N   UNL     1      -0.284   0.941  -4.383  0.00  0.00    -0.218 N 
ATOM     25  H   UNL     1      -0.116   0.219  -5.008  0.00  0.00    +0.176 HD
BRANCH  24  26
ATOM     26  C   UNL     1      -0.523   2.186  -4.839  0.00  0.00    +0.147 C 
ATOM     27  S   UNL     1      -0.531   2.494  -6.523  0.00  0.00    -0.017 S 
BRANCH  26  28
ATOM     28  N   UNL     1      -0.756   3.189  -3.969  0.00  0.00    -0.339 N 
ATOM     29  H   UNL     1      -0.752   3.015  -3.015  0.00  0.00    +0.144 HD
ATOM     30  H   UNL     1      -0.928   4.085  -4.298  0.00  0.00    +0.144 HD
ENDBRANCH  26  28
ENDBRANCH  24  26
ENDBRANCH  11  24
TORSDOF 6
