REMARK  Name = ZINC39484773
REMARK  6 active torsions:
REMARK  status: ('A' for Active; 'I' for Inactive)
REMARK    1  A    between atoms: C_1  and  C_2
REMARK    2  A    between atoms: C_3  and  C_13
REMARK    3  A    between atoms: C_5  and  C_7
REMARK    4  A    between atoms: N_15  and  N_16
REMARK    5  A    between atoms: C_17  and  C_19
REMARK    6  A    between atoms: C_25  and  C_27
REMARK                            x       y       z     vdW  Elec       q    Type
REMARK                         _______ _______ _______ _____ _____    ______ ____
ROOT
ATOM      1  N   UNL     1       1.440  -2.757  -4.874  0.00  0.00    -0.234 N 
ATOM      2  C   UNL     1       0.925  -2.963  -6.102  0.00  0.00    +0.233 C 
ATOM      3  O   UNL     1       0.768  -4.094  -6.512  0.00  0.00    -0.274 OA
ATOM      4  H   UNL     1       1.565  -1.853  -4.546  0.00  0.00    +0.173 HD
ENDROOT
BRANCH   2   5
ATOM      5  C   UNL     1       0.545  -1.789  -6.967  0.00  0.00    +0.088 C 
ATOM      6  C   UNL     1       1.780  -0.924  -7.224  0.00  0.00    +0.013 C 
ATOM      7  C   UNL     1       1.393   0.268  -8.102  0.00  0.00    +0.001 C 
ATOM      8  C   UNL     1       0.839  -0.239  -9.435  0.00  0.00    +0.001 C 
ATOM      9  C   UNL     1      -0.396  -1.104  -9.178  0.00  0.00    +0.013 C 
ATOM     10  C   UNL     1      -0.010  -2.296  -8.300  0.00  0.00    +0.087 C 
BRANCH  10  11
ATOM     11  C   UNL     1      -1.226  -3.149  -8.046  0.00  0.00    +0.224 C 
ATOM     12  O   UNL     1      -1.976  -2.878  -7.132  0.00  0.00    -0.275 OA
ATOM     13  N   UNL     1      -1.481  -4.212  -8.835  0.00  0.00    -0.271 N 
ATOM     14  C   UNL     1      -0.596  -4.702  -9.894  0.00  0.00    +0.118 C 
ATOM     15  C   UNL     1      -1.321  -5.918 -10.495  0.00  0.00    +0.056 C 
ATOM     16  C   UNL     1      -2.605  -6.025  -9.703  0.00  0.00    -0.024 A 
ATOM     17  C   UNL     1      -2.626  -5.011  -8.758  0.00  0.00    +0.039 A 
ATOM     18  C   UNL     1      -3.720  -4.909  -7.897  0.00  0.00    +0.024 A 
ATOM     19  C   UNL     1      -4.761  -5.809  -7.986  0.00  0.00    +0.002 A 
ATOM     20  C   UNL     1      -4.728  -6.820  -8.929  0.00  0.00    +0.000 A 
ATOM     21  C   UNL     1      -3.651  -6.922  -9.791  0.00  0.00    +0.005 A 
ENDBRANCH  10  11
ENDBRANCH   2   5
BRANCH   1  24
ATOM     22  C   UNL     1       2.309  -3.642  -2.841  0.00  0.00    +0.269 C 
ATOM     23  O   UNL     1       2.466  -2.507  -2.431  0.00  0.00    -0.268 OA
ATOM     24  N   UNL     1       1.794  -3.849  -4.070  0.00  0.00    -0.230 N 
ATOM     25  H   UNL     1       1.669  -4.753  -4.397  0.00  0.00    +0.173 HD
BRANCH  22  28
ATOM     26  C   UNL     1       3.520  -3.537   0.036  0.00  0.00    +0.067 C 
ATOM     27  C   UNL     1       3.219  -4.805  -0.720  0.00  0.00    +0.058 A 
ATOM     28  C   UNL     1       2.679  -4.784  -2.000  0.00  0.00    +0.098 A 
ATOM     29  S   UNL     1       2.561  -6.534  -2.336  0.00  0.00    -0.062 S 
ATOM     30  C   UNL     1       3.183  -7.094  -0.877  0.00  0.00    +0.109 A 
ATOM     31  N   UNL     1       3.455  -5.985  -0.209  0.00  0.00    -0.243 NA
BRANCH  30  32
ATOM     32  C   UNL     1       3.384  -8.493  -0.445  0.00  0.00    +0.007 A 
ATOM     33  C   UNL     1       3.913  -8.768   0.818  0.00  0.00    +0.010 A 
ATOM     34  C   UNL     1       4.097 -10.077   1.215  0.00  0.00    +0.001 A 
ATOM     35  C   UNL     1       3.759 -11.115   0.365  0.00  0.00    +0.000 A 
ATOM     36  C   UNL     1       3.234 -10.849  -0.888  0.00  0.00    +0.001 A 
ATOM     37  C   UNL     1       3.040  -9.546  -1.295  0.00  0.00    +0.010 A 
ENDBRANCH  30  32
ENDBRANCH  22  28
ENDBRANCH   1  24
TORSDOF 5
