REMARK  Name = ZINC42174866
REMARK  1 active torsions:
REMARK  status: ('A' for Active; 'I' for Inactive)
REMARK    1  A    between atoms: C_9  and  C_11
REMARK                            x       y       z     vdW  Elec       q    Type
REMARK                         _______ _______ _______ _____ _____    ______ ____
ROOT
ATOM      1  C   UNL     1       2.318   1.071   2.460  0.00  0.00    +0.222 A 
ATOM      2  N   UNL     1       1.478   1.961   2.901  0.00  0.00    -0.111 NA
ATOM      3  N   UNL     1       2.052   2.691   3.792  0.00  0.00    -0.093 NA
ATOM      4  C   UNL     1       3.289   2.287   3.951  0.00  0.00    +0.305 A 
ATOM      5  O   UNL     1       3.482   1.250   3.115  0.00  0.00    -0.409 OA
ATOM      6  N   UNL     1       4.221   2.824   4.820  0.00  0.00    -0.312 N 
ATOM      7  H   UNL     1       3.981   3.573   5.387  0.00  0.00    +0.147 HD
ATOM      8  H   UNL     1       5.116   2.451   4.862  0.00  0.00    +0.147 HD
ENDROOT
BRANCH   1  15
ATOM      9  C   UNL     1      -0.131   1.486   0.109  0.00  0.00    +0.004 C 
ATOM     10  C   UNL     1       1.340   1.956   0.044  0.00  0.00    +0.004 C 
ATOM     11  C   UNL     1       2.172   0.639  -0.017  0.00  0.00    +0.001 C 
ATOM     12  C   UNL     1       1.202  -0.280  -0.841  0.00  0.00    +0.008 C 
ATOM     13  C   UNL     1      -0.049  -0.071   0.082  0.00  0.00    -0.010 C 
ATOM     14  C   UNL     1       0.549  -0.455   1.470  0.00  0.00    +0.016 C 
ATOM     15  C   UNL     1       2.038   0.026   1.411  0.00  0.00    +0.080 C 
ENDBRANCH   1  15
TORSDOF 1
