REMARK  Name = ZINC18103174
REMARK  15 active torsions:
REMARK  status: ('A' for Active; 'I' for Inactive)
REMARK    1  A    between atoms: C_1  and  C_2
REMARK    2  A    between atoms: C_6  and  O_9
REMARK    3  A    between atoms: C_7  and  C_8
REMARK    4  A    between atoms: O_9  and  C_10
REMARK    5  A    between atoms: C_10  and  C_12
REMARK    6  A    between atoms: C_10  and  C_13
REMARK    7  A    between atoms: N_15  and  N_16
REMARK    8  A    between atoms: C_17  and  C_19
REMARK    9  A    between atoms: C_20  and  C_32
REMARK   10  A    between atoms: C_21  and  C_26
REMARK   11  A    between atoms: C_22  and  C_25
REMARK   12  A    between atoms: C_26  and  O_28
REMARK   13  A    between atoms: O_28  and  C_29
REMARK   14  A    between atoms: C_29  and  C_30
REMARK   15  A    between atoms: C_29  and  C_31
REMARK                            x       y       z     vdW  Elec       q    Type
REMARK                         _______ _______ _______ _____ _____    ______ ____
ROOT
ATOM      1  N   UNL     1      -2.452   1.691  -2.916  0.00  0.00    -0.229 N 
ATOM      2  C   UNL     1      -3.677   1.269  -3.289  0.00  0.00    +0.277 C 
ATOM      3  O   UNL     1      -4.249   0.413  -2.641  0.00  0.00    -0.267 OA
ATOM      4  H   UNL     1      -1.996   2.373  -3.433  0.00  0.00    +0.173 HD
ENDROOT
BRANCH   2   5
ATOM      5  C   UNL     1      -4.320   1.843  -4.478  0.00  0.00    +0.107 A 
ATOM      6  C   UNL     1      -5.547   1.503  -4.964  0.00  0.00    -0.006 A 
ATOM      7  C   UNL     1      -5.772   2.297  -6.112  0.00  0.00    +0.083 A 
ATOM      8  C   UNL     1      -4.653   3.091  -6.281  0.00  0.00    +0.028 A 
ATOM      9  N   UNL     1      -3.784   2.813  -5.296  0.00  0.00    -0.354 N 
ATOM     10  H   UNL     1      -2.916   3.230  -5.179  0.00  0.00    +0.166 HD
ATOM     11  C   UNL     1      -4.444   4.096  -7.384  0.00  0.00    +0.064 C 
ATOM     12  C   UNL     1      -6.487   0.476  -4.386  0.00  0.00    +0.047 C 
BRANCH   7  13
ATOM     13  C   UNL     1      -6.970   2.278  -6.968  0.00  0.00    +0.341 C 
ATOM     14  O   UNL     1      -7.024   1.523  -7.919  0.00  0.00    -0.245 OA
BRANCH  13  15
ATOM     15  O   UNL     1      -8.005   3.097  -6.697  0.00  0.00    -0.458 OA
BRANCH  15  16
ATOM     16  C   UNL     1      -9.152   3.024  -7.584  0.00  0.00    +0.171 C 
ATOM     17  C   UNL     1     -10.140   1.982  -7.056  0.00  0.00    +0.052 C 
ATOM     18  C   UNL     1      -9.837   4.391  -7.645  0.00  0.00    +0.052 C 
ENDBRANCH  15  16
ENDBRANCH  13  15
ENDBRANCH   7  13
ENDBRANCH   2   5
BRANCH   1  21
ATOM     19  C   UNL     1      -0.614   1.565  -1.409  0.00  0.00    +0.270 C 
ATOM     20  O   UNL     1      -0.043   2.418  -2.055  0.00  0.00    -0.270 OA
ATOM     21  N   UNL     1      -1.838   1.143  -1.782  0.00  0.00    -0.231 N 
ATOM     22  H   UNL     1      -2.295   0.461  -1.265  0.00  0.00    +0.173 HD
BRANCH  19  23
ATOM     23  C   UNL     1       0.047   0.976  -0.189  0.00  0.00    +0.257 C 
ATOM     24  C   UNL     1      -0.826   1.239   1.040  0.00  0.00    +0.062 C 
BRANCH  23  25
ATOM     25  O   UNL     1       1.328   1.580  -0.002  0.00  0.00    -0.480 OA
BRANCH  25  31
ATOM     26  C   UNL     1       5.904   1.122   1.633  0.00  0.00    +0.044 C 
ATOM     27  C   UNL     1       4.495   0.603   1.498  0.00  0.00    -0.044 A 
ATOM     28  C   UNL     1       4.147  -0.608   2.067  0.00  0.00    +0.004 A 
ATOM     29  C   UNL     1       2.856  -1.087   1.944  0.00  0.00    +0.004 A 
ATOM     30  C   UNL     1       1.909  -0.352   1.257  0.00  0.00    +0.046 A 
ATOM     31  C   UNL     1       2.257   0.860   0.680  0.00  0.00    +0.125 A 
ATOM     32  C   UNL     1       3.553   1.338   0.804  0.00  0.00    -0.006 A 
ATOM     33  C   UNL     1       3.933   2.657   0.183  0.00  0.00    +0.048 C 
ENDBRANCH  25  31
ENDBRANCH  23  25
ENDBRANCH  19  23
ENDBRANCH   1  21
TORSDOF 8
