REMARK  Name = ZINC37291246
REMARK  5 active torsions:
REMARK  status: ('A' for Active; 'I' for Inactive)
REMARK    1  A    between atoms: C_1  and  C_2
REMARK    2  A    between atoms: C_2  and  C_3
REMARK    3  A    between atoms: C_2  and  C_4
REMARK    4  A    between atoms: C_6  and  N_17
REMARK    5  A    between atoms: N_7  and  C_9
REMARK                            x       y       z     vdW  Elec       q    Type
REMARK                         _______ _______ _______ _____ _____    ______ ____
ROOT
ATOM      1  C   UNL     1       0.731  -0.503   1.223  0.00  0.00    +0.068 A 
ATOM      2  C   UNL     1       2.115  -0.659   1.341  0.00  0.00    +0.068 A 
ATOM      3  C   UNL     1       2.377  -1.130   2.592  0.00  0.00    +0.120 A 
ATOM      4  N   UNL     1       1.185  -1.264   3.235  0.00  0.00    -0.219 N 
ATOM      5  N   UNL     1       0.175  -0.859   2.353  0.00  0.00    -0.169 NA
ENDROOT
BRANCH   4   6
ATOM      6  C   UNL     1       1.002  -1.720   4.548  0.00  0.00    +0.069 A 
ATOM      7  C   UNL     1       1.835  -2.704   5.065  0.00  0.00    +0.029 A 
ATOM      8  C   UNL     1       1.653  -3.152   6.358  0.00  0.00    +0.023 A 
ATOM      9  C   UNL     1       0.641  -2.623   7.140  0.00  0.00    +0.059 A 
ATOM     10  C   UNL     1      -0.191  -1.642   6.627  0.00  0.00    +0.061 A 
ATOM     11  C   UNL     1      -0.009  -1.186   5.335  0.00  0.00    +0.049 A 
ATOM     12 CL   UNL     1      -1.459  -0.979   7.610  0.00  0.00    -0.082 Cl
ATOM     13 CL   UNL     1       0.415  -3.189   8.765  0.00  0.00    -0.082 Cl
ENDBRANCH   4   6
BRANCH   1  15
ATOM     14  C   UNL     1      -0.019   1.526   0.010  0.00  0.00    +0.014 C 
ATOM     15  C   UNL     1       0.002  -0.004   0.002  0.00  0.00    +0.033 C 
ATOM     16  C   UNL     1       0.718  -0.497  -1.257  0.00  0.00    +0.014 C 
ENDBRANCH   1  15
BRANCH   3  17
ATOM     17  N   UNL     1       3.633  -1.421   3.116  0.00  0.00    -0.343 N 
ATOM     18  H   UNL     1       4.427  -1.291   2.574  0.00  0.00    +0.144 HD
ATOM     19  H   UNL     1       3.715  -1.754   4.023  0.00  0.00    +0.144 HD
ENDBRANCH   3  17
TORSDOF 3
