REMARK  Name = ZINC39634611
REMARK  13 active torsions:
REMARK  status: ('A' for Active; 'I' for Inactive)
REMARK    1  A    between atoms: C_1  and  O_2
REMARK    2  A    between atoms: O_2  and  C_3
REMARK    3  A    between atoms: C_6  and  O_37
REMARK    4  A    between atoms: C_7  and  C_9
REMARK    5  A    between atoms: C_13  and  C_22
REMARK    6  A    between atoms: N_24  and  C_25
REMARK    7  A    between atoms: C_25  and  C_26
REMARK    8  A    between atoms: C_26  and  C_27
REMARK    9  A    between atoms: C_30  and  O_35
REMARK   10  A    between atoms: C_31  and  O_33
REMARK   11  A    between atoms: O_33  and  C_34
REMARK   12  A    between atoms: O_35  and  C_36
REMARK   13  A    between atoms: O_37  and  C_38
REMARK                            x       y       z     vdW  Elec       q    Type
REMARK                         _______ _______ _______ _____ _____    ______ ____
ROOT
ATOM      1  C   UNL     1       1.422  -3.909   2.128  0.00  0.00    +0.250 C 
ATOM      2  O   UNL     1       2.011  -4.417   3.063  0.00  0.00    -0.270 OA
ATOM      3  N   UNL     1       0.749  -4.685   1.255  0.00  0.00    -0.296 N 
ATOM      4  C   UNL     1       0.068  -4.267   0.007  0.00  0.00    +0.121 C 
ATOM      5  C   UNL     1       0.370  -5.399  -1.000  0.00  0.00    +0.100 C 
ATOM      6  C   UNL     1       0.666  -6.631  -0.129  0.00  0.00    -0.004 C 
ATOM      7  C   UNL     1       0.529  -6.149   1.323  0.00  0.00    +0.115 C 
ATOM      8  C   UNL     1       2.086  -7.128  -0.382  0.00  0.00    -0.010 C 
ATOM      9  C   UNL     1       2.338  -8.386   0.453  0.00  0.00    -0.082 C 
ATOM     10  N   UNL     1       1.363  -9.422   0.087  0.00  0.00    +0.379 N 
ATOM     11  C   UNL     1       0.006  -8.972   0.419  0.00  0.00    -0.082 C 
ATOM     12  C   UNL     1      -0.344  -7.738  -0.417  0.00  0.00    -0.010 C 
ATOM     13  H   UNL     1       1.423  -9.602  -0.904  0.00  0.00    -0.086 HD
ATOM     14  H   UNL     1       1.569 -10.270   0.594  0.00  0.00    -0.086 HD
ENDROOT
BRANCH   1  19
ATOM     15  C   UNL     1       0.359  -0.412   1.259  0.00  0.00    +0.121 A 
ATOM     16  C   UNL     1       1.491   0.311   1.613  0.00  0.00    +0.049 A 
ATOM     17  C   UNL     1       2.596  -0.333   2.133  0.00  0.00    +0.050 A 
ATOM     18  C   UNL     1       2.583  -1.710   2.304  0.00  0.00    +0.132 A 
ATOM     19  C   UNL     1       1.445  -2.445   1.949  0.00  0.00    +0.082 A 
ATOM     20  C   UNL     1       0.329  -1.784   1.429  0.00  0.00    +0.062 A 
BRANCH  15  22
ATOM     21  C   UNL     1      -0.626   1.649   0.599  0.00  0.00    +0.277 C 
ATOM     22  O   UNL     1      -0.725   0.231   0.748  0.00  0.00    -0.495 OA
ENDBRANCH  15  22
BRANCH  18  23
ATOM     23  O   UNL     1       3.670  -2.342   2.814  0.00  0.00    -0.494 OA
ATOM     24  C   UNL     1       4.794  -1.528   3.154  0.00  0.00    +0.277 C 
ENDBRANCH  18  23
ENDBRANCH   1  19
BRANCH   5  25
ATOM     25  C   UNL     1      -0.828  -5.652  -1.880  0.00  0.00    +0.218 C 
ATOM     26  O   UNL     1      -1.946  -5.466  -1.450  0.00  0.00    -0.275 OA
ATOM     27  N   UNL     1      -0.655  -6.084  -3.145  0.00  0.00    -0.315 N 
ATOM     28  H   UNL     1       0.239  -6.232  -3.489  0.00  0.00    +0.149 HD
BRANCH  27  29
ATOM     29  C   UNL     1      -1.819  -6.329  -4.000  0.00  0.00    +0.109 C 
BRANCH  29  30
ATOM     30  C   UNL     1      -1.350  -6.809  -5.375  0.00  0.00    +0.054 C 
BRANCH  30  31
ATOM     31  C   UNL     1      -2.547  -7.061  -6.255  0.00  0.00    -0.042 A 
ATOM     32  C   UNL     1      -3.140  -8.310  -6.271  0.00  0.00    +0.007 A 
ATOM     33  C   UNL     1      -4.238  -8.547  -7.076  0.00  0.00    +0.049 A 
ATOM     34  C   UNL     1      -4.748  -7.531  -7.869  0.00  0.00    +0.161 A 
ATOM     35  C   UNL     1      -4.151  -6.274  -7.852  0.00  0.00    +0.162 A 
ATOM     36  C   UNL     1      -3.054  -6.042  -7.039  0.00  0.00    +0.053 A 
BRANCH  35  37
ATOM     37  O   UNL     1      -4.648  -5.274  -8.629  0.00  0.00    -0.491 OA
ATOM     38  C   UNL     1      -3.985  -4.010  -8.561  0.00  0.00    +0.277 C 
ENDBRANCH  35  37
BRANCH  34  39
ATOM     39  O   UNL     1      -5.828  -7.762  -8.662  0.00  0.00    -0.491 OA
ATOM     40  C   UNL     1      -6.388  -9.077  -8.629  0.00  0.00    +0.277 C 
ENDBRANCH  34  39
ENDBRANCH  30  31
ENDBRANCH  29  30
ENDBRANCH  27  29
ENDBRANCH   5  25
TORSDOF 9
