REMARK  Name = ZINC36597679
REMARK  12 active torsions:
REMARK  status: ('A' for Active; 'I' for Inactive)
REMARK    1  A    between atoms: C_1  and  C_2
REMARK    2  A    between atoms: C_5  and  C_7
REMARK    3  A    between atoms: C_7  and  N_8
REMARK    4  A    between atoms: N_8  and  C_9
REMARK    5  A    between atoms: C_9  and  C_11
REMARK    6  A    between atoms: C_9  and  C_19
REMARK    7  A    between atoms: C_15  and  O_17
REMARK    8  A    between atoms: O_17  and  C_18
REMARK    9  A    between atoms: N_21  and  C_22
REMARK   10  A    between atoms: C_28  and  C_30
REMARK   11  A    between atoms: C_34  and  O_37
REMARK   12  A    between atoms: C_35  and  O_36
REMARK                            x       y       z     vdW  Elec       q    Type
REMARK                         _______ _______ _______ _____ _____    ______ ____
ROOT
ATOM      1  N   UNL     1       1.009  -2.494  -1.990  0.00  0.00    -0.275 N 
ATOM      2  C   UNL     1       0.266  -3.515  -1.521  0.00  0.00    +0.252 C 
ATOM      3  O   UNL     1      -0.353  -3.390  -0.482  0.00  0.00    -0.270 OA
ENDROOT
BRANCH   2   4
ATOM      4  C   UNL     1       0.203  -4.786  -2.268  0.00  0.00    +0.082 A 
ATOM      5  C   UNL     1       1.379  -5.452  -2.622  0.00  0.00    +0.017 A 
ATOM      6  C   UNL     1       1.317  -6.639  -3.319  0.00  0.00    +0.005 A 
ATOM      7  C   UNL     1       0.091  -7.178  -3.674  0.00  0.00    +0.049 A 
ATOM      8  C   UNL     1      -1.084  -6.530  -3.331  0.00  0.00    +0.159 A 
ATOM      9  C   UNL     1      -1.036  -5.333  -2.622  0.00  0.00    +0.171 A 
BRANCH   9  10
ATOM     10  O   UNL     1      -2.186  -4.698  -2.279  0.00  0.00    -0.503 OA
ATOM     11  H   UNL     1      -2.499  -4.067  -2.941  0.00  0.00    +0.292 HD
ENDBRANCH   9  10
BRANCH   8  12
ATOM     12  O   UNL     1      -2.283  -7.065  -3.683  0.00  0.00    -0.503 OA
ATOM     13  H   UNL     1      -2.654  -7.667  -3.023  0.00  0.00    +0.292 HD
ENDBRANCH   8  12
ENDBRANCH   2   4
BRANCH   1  14
ATOM     14  C   UNL     1       0.979  -1.195  -1.314  0.00  0.00    +0.183 C 
BRANCH  14  19
ATOM     15  C   UNL     1      -3.338   1.025  -2.683  0.00  0.00    +0.086 C 
ATOM     16  C   UNL     1      -2.315   0.281  -1.863  0.00  0.00    +0.102 A 
ATOM     17  C   UNL     1      -2.500  -0.196  -0.619  0.00  0.00    +0.045 A 
ATOM     18  C   UNL     1      -1.290  -0.819  -0.236  0.00  0.00    +0.046 A 
ATOM     19  C   UNL     1      -0.438  -0.684  -1.268  0.00  0.00    +0.122 A 
ATOM     20  O   UNL     1      -1.066  -0.022  -2.253  0.00  0.00    -0.463 OA
ENDBRANCH  14  19
ENDBRANCH   1  14
BRANCH   1  21
ATOM     21  C   UNL     1       1.846  -2.682  -3.178  0.00  0.00    +0.193 C 
BRANCH  21  22
ATOM     22  C   UNL     1       3.286  -2.408  -2.826  0.00  0.00    -0.015 A 
ATOM     23  C   UNL     1       3.684  -2.404  -1.502  0.00  0.00    +0.006 A 
ATOM     24  C   UNL     1       5.004  -2.152  -1.175  0.00  0.00    +0.004 A 
ATOM     25  C   UNL     1       5.928  -1.904  -2.172  0.00  0.00    +0.045 A 
ATOM     26  C   UNL     1       5.531  -1.907  -3.501  0.00  0.00    +0.120 A 
ATOM     27  C   UNL     1       4.207  -2.166  -3.826  0.00  0.00    +0.051 A 
BRANCH  26  28
ATOM     28  O   UNL     1       6.438  -1.663  -4.483  0.00  0.00    -0.495 OA
ATOM     29  C   UNL     1       7.784  -1.411  -4.075  0.00  0.00    +0.277 C 
ENDBRANCH  26  28
ENDBRANCH  21  22
BRANCH  21  30
ATOM     30  C   UNL     1       1.404  -1.732  -4.260  0.00  0.00    +0.238 C 
ATOM     31  O   UNL     1       0.834  -0.702  -3.968  0.00  0.00    -0.273 OA
ATOM     32  N   UNL     1       1.642  -2.026  -5.554  0.00  0.00    -0.311 N 
ATOM     33  H   UNL     1       2.098  -2.850  -5.788  0.00  0.00    +0.149 HD
BRANCH  32  34
ATOM     34  C   UNL     1       1.212  -1.103  -6.606  0.00  0.00    +0.073 C 
ATOM     35  C   UNL     1      -0.249  -1.381  -6.964  0.00  0.00    +0.022 C 
ATOM     36  C   UNL     1      -0.699  -0.417  -8.063  0.00  0.00    +0.002 C 
ATOM     37  C   UNL     1       0.176  -0.613  -9.303  0.00  0.00    +0.000 C 
ATOM     38  C   UNL     1       1.637  -0.335  -8.946  0.00  0.00    +0.002 C 
ATOM     39  C   UNL     1       2.087  -1.299  -7.846  0.00  0.00    +0.022 C 
ENDBRANCH  32  34
ENDBRANCH  21  30
ENDBRANCH   1  21
TORSDOF 10
