REMARK  Name = ZINC35636222
REMARK  10 active torsions:
REMARK  status: ('A' for Active; 'I' for Inactive)
REMARK    1  A    between atoms: C_1  and  C_2
REMARK    2  A    between atoms: C_2  and  N_3
REMARK    3  A    between atoms: C_6  and  C_11
REMARK    4  A    between atoms: C_15  and  O_17
REMARK    5  A    between atoms: O_17  and  C_18
REMARK    6  A    between atoms: N_26  and  C_28
REMARK    7  A    between atoms: C_28  and  C_30
REMARK    8  A    between atoms: C_28  and  C_31
REMARK    9  A    between atoms: N_33  and  C_34
REMARK   10  A    between atoms: C_34  and  C_35
REMARK                            x       y       z     vdW  Elec       q    Type
REMARK                         _______ _______ _______ _____ _____    ______ ____
ROOT
ATOM      1  N   UNL     1      -1.843  -0.904  -2.062  0.00  0.00    -0.257 N 
ATOM      2  C   UNL     1      -2.091  -1.206  -0.754  0.00  0.00    +0.042 C 
ATOM      3  C   UNL     1      -3.315  -1.599  -0.346  0.00  0.00    +0.058 C 
ATOM      4  C   UNL     1      -4.408  -1.695  -1.392  0.00  0.00    +0.142 C 
ATOM      5  N   UNL     1      -4.040  -1.349  -2.775  0.00  0.00    -0.288 N 
ATOM      6  C   UNL     1      -2.772  -0.967  -3.026  0.00  0.00    +0.307 C 
ATOM      7  O   UNL     1      -2.460  -0.674  -4.163  0.00  0.00    -0.252 OA
ATOM      8  C   UNL     1      -3.313  -1.851   1.041  0.00  0.00    +0.247 C 
ATOM      9  O   UNL     1      -4.284  -2.220   1.675  0.00  0.00    -0.270 OA
ATOM     10  N   UNL     1      -2.097  -1.630   1.573  0.00  0.00    -0.281 N 
ATOM     11  C   UNL     1      -1.214  -1.200   0.478  0.00  0.00    +0.160 C 
ATOM     12  H   UNL     1      -4.696  -1.391  -3.488  0.00  0.00    +0.151 HD
ENDROOT
BRANCH   4  13
ATOM     13  C   UNL     1      -5.535  -0.788  -0.970  0.00  0.00    -0.019 A 
ATOM     14  C   UNL     1      -5.454   0.571  -1.209  0.00  0.00    +0.006 A 
ATOM     15  C   UNL     1      -6.486   1.406  -0.824  0.00  0.00    +0.004 A 
ATOM     16  C   UNL     1      -7.602   0.884  -0.199  0.00  0.00    +0.046 A 
ATOM     17  C   UNL     1      -7.686  -0.480   0.043  0.00  0.00    +0.129 A 
ATOM     18  C   UNL     1      -6.650  -1.316  -0.350  0.00  0.00    +0.052 A 
BRANCH  17  19
ATOM     19  O   UNL     1      -8.782  -0.996   0.658  0.00  0.00    -0.456 OA
BRANCH  19  20
ATOM     20  C   UNL     1      -8.817  -2.336   0.880  0.00  0.00    +0.128 A 
ATOM     21  C   UNL     1      -8.312  -2.859   2.062  0.00  0.00    +0.046 A 
ATOM     22  C   UNL     1      -8.349  -4.222   2.285  0.00  0.00    +0.004 A 
ATOM     23  C   UNL     1      -8.888  -5.065   1.331  0.00  0.00    +0.000 A 
ATOM     24  C   UNL     1      -9.392  -4.547   0.152  0.00  0.00    +0.004 A 
ATOM     25  C   UNL     1      -9.363  -3.184  -0.073  0.00  0.00    +0.046 A 
ENDBRANCH  19  20
ENDBRANCH  17  19
ENDBRANCH   4  13
BRANCH   1  27
ATOM     26  C   UNL     1      -0.376   1.038  -2.305  0.00  0.00    +0.025 C 
ATOM     27  C   UNL     1      -0.490  -0.483  -2.432  0.00  0.00    +0.111 C 
ENDBRANCH   1  27
BRANCH  10  28
ATOM     28  C   UNL     1      -1.723  -1.787   2.981  0.00  0.00    +0.159 C 
ATOM     29  C   UNL     1      -1.955  -3.237   3.411  0.00  0.00    +0.038 C 
BRANCH  28  30
ATOM     30  C   UNL     1      -2.565  -0.870   3.830  0.00  0.00    +0.233 C 
ATOM     31  O   UNL     1      -3.395  -0.155   3.310  0.00  0.00    -0.274 OA
ATOM     32  N   UNL     1      -2.394  -0.844   5.167  0.00  0.00    -0.311 N 
ATOM     33  H   UNL     1      -1.730  -1.416   5.582  0.00  0.00    +0.149 HD
BRANCH  32  34
ATOM     34  C   UNL     1      -3.213   0.047   5.992  0.00  0.00    +0.135 C 
BRANCH  34  35
ATOM     35  C   UNL     1      -2.822  -0.117   7.462  0.00  0.00    +0.135 C 
ATOM     36  C   UNL     1      -3.760   0.728   8.351  0.00  0.00    +0.035 C 
ATOM     37  C   UNL     1      -2.784   1.285   9.423  0.00  0.00    +0.031 C 
ATOM     38  C   UNL     1      -1.495   1.466   8.582  0.00  0.00    +0.160 C 
ATOM     39  O   UNL     1      -1.486   0.357   7.666  0.00  0.00    -0.375 OA
ENDBRANCH  34  35
ENDBRANCH  32  34
ENDBRANCH  28  30
ENDBRANCH  10  28
TORSDOF 8
