REMARK  Name = ZINC09360375
REMARK  9 active torsions:
REMARK  status: ('A' for Active; 'I' for Inactive)
REMARK    1  A    between atoms: C_1  and  C_2
REMARK    2  A    between atoms: C_12  and  C_14
REMARK    3  A    between atoms: C_14  and  N_15
REMARK    4  A    between atoms: N_15  and  C_16
REMARK    5  A    between atoms: C_21  and  O_22
REMARK    6  A    between atoms: O_22  and  C_23
REMARK    7  A    between atoms: C_24  and  C_26
REMARK    8  A    between atoms: C_31  and  O_32
REMARK    9  A    between atoms: O_32  and  C_33
REMARK                            x       y       z     vdW  Elec       q    Type
REMARK                         _______ _______ _______ _____ _____    ______ ____
ROOT
ATOM      1  N   UNL     1       1.691  -2.772   5.329  0.00  0.00    -0.260 N 
ATOM      2  C   UNL     1       1.823  -2.010   6.433  0.00  0.00    +0.255 C 
ATOM      3  O   UNL     1       0.970  -1.191   6.712  0.00  0.00    -0.269 OA
ENDROOT
BRANCH   1   4
ATOM      4  C   UNL     1       2.717  -3.650   4.956  0.00  0.00    +0.079 A 
ATOM      5  C   UNL     1       3.648  -3.265   4.003  0.00  0.00    +0.027 A 
ATOM      6  C   UNL     1       4.663  -4.130   3.640  0.00  0.00    +0.002 A 
ATOM      7  C   UNL     1       4.747  -5.384   4.217  0.00  0.00    +0.004 A 
ATOM      8  C   UNL     1       3.819  -5.776   5.164  0.00  0.00    +0.047 A 
ATOM      9  C   UNL     1       2.802  -4.913   5.537  0.00  0.00    +0.141 A 
BRANCH   9  10
ATOM     10  O   UNL     1       1.888  -5.298   6.468  0.00  0.00    -0.493 OA
ATOM     11  C   UNL     1       2.037  -6.607   7.021  0.00  0.00    +0.277 C 
ENDBRANCH   9  10
ENDBRANCH   1   4
BRANCH   2  12
ATOM     12  C   UNL     1       3.005  -2.171   7.302  0.00  0.00    +0.079 A 
ATOM     13  C   UNL     1       4.290  -2.129   6.755  0.00  0.00    +0.017 A 
ATOM     14  C   UNL     1       5.389  -2.274   7.574  0.00  0.00    +0.001 A 
ATOM     15  C   UNL     1       5.226  -2.472   8.935  0.00  0.00    +0.004 A 
ATOM     16  C   UNL     1       3.962  -2.521   9.487  0.00  0.00    +0.046 A 
ATOM     17  C   UNL     1       2.844  -2.371   8.680  0.00  0.00    +0.132 A 
BRANCH  17  18
ATOM     18  O   UNL     1       1.601  -2.420   9.221  0.00  0.00    -0.494 OA
ATOM     19  C   UNL     1       1.516  -2.627  10.632  0.00  0.00    +0.277 C 
ENDBRANCH  17  18
ENDBRANCH   2  12
BRANCH   1  20
ATOM     20  C   UNL     1       0.473  -2.683   4.520  0.00  0.00    +0.154 C 
BRANCH  20  32
ATOM     21  C   UNL     1       0.803   2.848   0.984  0.00  0.00    +0.046 C 
ATOM     22  C   UNL     1       1.096   1.415   0.620  0.00  0.00    -0.026 A 
ATOM     23  C   UNL     1       1.509   1.096  -0.655  0.00  0.00    +0.005 A 
ATOM     24  C   UNL     1       1.789  -0.219  -1.001  0.00  0.00    +0.001 A 
ATOM     25  C   UNL     1       1.648  -1.224  -0.086  0.00  0.00    +0.010 A 
ATOM     26  C   UNL     1       1.224  -0.924   1.213  0.00  0.00    -0.001 A 
ATOM     27  C   UNL     1       0.946   0.409   1.569  0.00  0.00    +0.052 A 
ATOM     28  N   UNL     1       0.529   0.700   2.851  0.00  0.00    -0.322 N 
ATOM     29  H   UNL     1       0.311   1.739   3.136  0.00  0.00    +0.169 HD
ATOM     30  C   UNL     1       0.384  -0.273   3.767  0.00  0.00    +0.254 A 
ATOM     31  O   UNL     1       0.013   0.020   4.891  0.00  0.00    -0.268 OA
ATOM     32  C   UNL     1       0.649  -1.625   3.461  0.00  0.00    +0.035 A 
ATOM     33  C   UNL     1       1.063  -1.976   2.218  0.00  0.00    +0.020 A 
ENDBRANCH  20  32
ENDBRANCH   1  20
TORSDOF 6
