REMARK  Name = ZINC18222265
REMARK  3 active torsions:
REMARK  status: ('A' for Active; 'I' for Inactive)
REMARK    1  A    between atoms: C_1  and  C_2
REMARK    2  A    between atoms: C_7  and  C_8
REMARK    3  A    between atoms: C_13  and  C_24
REMARK                            x       y       z     vdW  Elec       q    Type
REMARK                         _______ _______ _______ _____ _____    ______ ____
ROOT
ATOM      1  C   UNL     1       0.243   0.042   2.496  0.00  0.00    +0.032 C 
ATOM      2  C   UNL     1       1.634  -0.190   3.068  0.00  0.00    +0.088 C 
ATOM      3  C   UNL     1       1.746   0.415   4.456  0.00  0.00    +0.167 C 
ATOM      4  C   UNL     1       0.748   0.084   5.307  0.00  0.00    +0.060 C 
ATOM      5  C   UNL     1       0.617   0.587   6.679  0.00  0.00    +0.051 C 
ATOM      6  N   UNL     1       0.469  -0.258   7.655  0.00  0.00    -0.250 NA
ATOM      7  C   UNL     1       0.476  -1.614   7.550  0.00  0.00    +0.089 A 
ATOM      8  C   UNL     1       1.156  -2.309   8.562  0.00  0.00    +0.030 A 
ATOM      9  C   UNL     1       1.192  -3.687   8.573  0.00  0.00    +0.002 A 
ATOM     10  C   UNL     1       0.552  -4.405   7.579  0.00  0.00    +0.002 A 
ATOM     11  C   UNL     1      -0.109  -3.743   6.566  0.00  0.00    +0.030 A 
ATOM     12  C   UNL     1      -0.143  -2.341   6.525  0.00  0.00    +0.089 A 
ATOM     13  N   UNL     1      -0.766  -1.789   5.443  0.00  0.00    -0.249 NA
ATOM     14  C   UNL     1      -0.332  -0.782   4.783  0.00  0.00    +0.055 C 
ATOM     15  C   UNL     1      -0.875  -0.419   3.423  0.00  0.00    +0.064 C 
ATOM     16  C   UNL     1       0.655   2.068   6.954  0.00  0.00    +0.066 C 
ATOM     17  O   UNL     1       2.767   1.225   4.815  0.00  0.00    -0.292 OA
ENDROOT
BRANCH   1  24
ATOM     18  C   UNL     1      -0.399   1.472   0.068  0.00  0.00    +0.044 C 
ATOM     19  C   UNL     1      -0.180  -0.019   0.030  0.00  0.00    -0.047 A 
ATOM     20  C   UNL     1      -0.281  -0.702  -1.168  0.00  0.00    +0.003 A 
ATOM     21  C   UNL     1      -0.080  -2.069  -1.204  0.00  0.00    +0.000 A 
ATOM     22  C   UNL     1       0.222  -2.753  -0.041  0.00  0.00    +0.000 A 
ATOM     23  C   UNL     1       0.324  -2.071   1.156  0.00  0.00    +0.004 A 
ATOM     24  C   UNL     1       0.127  -0.703   1.191  0.00  0.00    -0.041 A 
ENDBRANCH   1  24
TORSDOF 1
