REMARK  Name = ZINC66484632
REMARK  4 active torsions:
REMARK  status: ('A' for Active; 'I' for Inactive)
REMARK    1  A    between atoms: C_10  and  C_11
REMARK    2  A    between atoms: C_18  and  C_20
REMARK    3  A    between atoms: C_20  and  C_21
REMARK    4  A    between atoms: C_21  and  C_22
REMARK                            x       y       z     vdW  Elec       q    Type
REMARK                         _______ _______ _______ _____ _____    ______ ____
ROOT
ATOM      1  C   UNL     1       4.948   0.138  -0.046  0.00  0.00    +0.183 A 
ATOM      2  N   UNL     1       6.176  -0.397   0.035  0.00  0.00    -0.193 NA
ATOM      3  H   UNL     1       6.839   2.619  -0.154  0.00  0.00    +0.192 HD
ATOM      4  C   UNL     1       7.077   0.557  -0.001  0.00  0.00    +0.218 A 
ATOM      5  N   UNL     1       6.433   1.739  -0.107  0.00  0.00    -0.246 N 
ATOM      6  N   UNL     1       5.060   1.445  -0.140  0.00  0.00    -0.151 NA
ATOM      7  N   UNL     1       8.452   0.381   0.060  0.00  0.00    -0.255 N 
ATOM      8  C   UNL     1       9.271   1.451   0.013  0.00  0.00    +0.219 C 
ATOM      9  O   UNL     1       8.806   2.567  -0.081  0.00  0.00    -0.275 OA
ATOM     10  H   UNL     1       8.824  -0.511   0.136  0.00  0.00    +0.158 HD
ENDROOT
BRANCH   1  20
ATOM     11  C   UNL     1       0.666   0.176  -2.838  0.00  0.00    +0.001 A 
ATOM     12  C   UNL     1       1.855   0.902  -2.865  0.00  0.00    +0.001 A 
ATOM     13  C   UNL     1       2.845   0.657  -1.962  0.00  0.00    +0.009 A 
ATOM     14  C   UNL     1       2.669  -0.338  -0.991  0.00  0.00    -0.007 A 
ATOM     15  C   UNL     1       1.461  -1.077  -0.962  0.00  0.00    -0.017 A 
ATOM     16  C   UNL     1       0.461  -0.797  -1.909  0.00  0.00    +0.008 A 
ATOM     17  C   UNL     1       1.282  -2.074   0.012  0.00  0.00    +0.008 A 
ATOM     18  C   UNL     1       2.266  -2.325   0.920  0.00  0.00    +0.001 A 
ATOM     19  C   UNL     1       3.457  -1.609   0.906  0.00  0.00    +0.012 A 
ATOM     20  C   UNL     1       3.675  -0.620  -0.037  0.00  0.00    +0.029 A 
ENDBRANCH   1  20
BRANCH   8  21
ATOM     21  C   UNL     1      10.764   1.260   0.079  0.00  0.00    +0.099 C 
BRANCH  21  22
ATOM     22  C   UNL     1      11.457   2.623   0.008  0.00  0.00    +0.041 C 
BRANCH  22  23
ATOM     23  C   UNL     1      12.973   2.429   0.075  0.00  0.00    +0.119 C 
ATOM     24  C   UNL     1      13.697   3.789  -0.087  0.00  0.00    +0.034 C 
ATOM     25  C   UNL     1      15.042   3.494   0.630  0.00  0.00    +0.031 C 
ATOM     26  C   UNL     1      14.608   2.534   1.758  0.00  0.00    +0.160 C 
ATOM     27  O   UNL     1      13.357   1.949   1.373  0.00  0.00    -0.377 OA
ENDBRANCH  22  23
ENDBRANCH  21  22
ENDBRANCH   8  21
TORSDOF 4
