REMARK  Name = ZINC37442478
REMARK  18 active torsions:
REMARK  status: ('A' for Active; 'I' for Inactive)
REMARK    1  A    between atoms: C_1  and  C_2
REMARK    2  A    between atoms: C_2  and  N_3
REMARK    3  A    between atoms: N_6  and  C_7
REMARK    4  A    between atoms: N_6  and  C_11
REMARK    5  A    between atoms: C_7  and  C_8
REMARK    6  A    between atoms: C_8  and  O_9
REMARK    7  A    between atoms: O_9  and  C_10
REMARK    8  A    between atoms: C_11  and  C_12
REMARK    9  A    between atoms: C_14  and  N_27
REMARK   10  A    between atoms: C_17  and  N_18
REMARK   11  A    between atoms: N_18  and  C_19
REMARK   12  A    between atoms: N_18  and  C_20
REMARK   13  A    between atoms: N_23  and  C_26
REMARK   14  A    between atoms: C_28  and  C_30
REMARK   15  A    between atoms: C_30  and  C_31
REMARK   16  A    between atoms: C_31  and  C_32
REMARK   17  A    between atoms: C_31  and  C_33
REMARK   18  A    between atoms: C_31  and  C_34
REMARK                            x       y       z     vdW  Elec       q    Type
REMARK                         _______ _______ _______ _____ _____    ______ ____
ROOT
ATOM      1  C   UNL     1       0.913  -0.977   4.761  0.00  0.00    -0.007 A 
ATOM      2  C   UNL     1      -0.068  -0.009   4.834  0.00  0.00    +0.030 A 
ATOM      3  C   UNL     1      -1.059  -0.096   5.802  0.00  0.00    +0.034 A 
ATOM      4  C   UNL     1      -1.065  -1.158   6.697  0.00  0.00    +0.025 A 
ATOM      5  C   UNL     1      -0.084  -2.127   6.625  0.00  0.00    +0.025 A 
ATOM      6  C   UNL     1       0.905  -2.042   5.653  0.00  0.00    +0.035 A 
ENDROOT
BRANCH   3   7
ATOM      7  N   UNL     1      -2.055   0.887   5.875  0.00  0.00    -0.285 N 
ATOM      8  C   UNL     1      -3.312   0.549   6.223  0.00  0.00    +0.218 C 
ATOM      9  O   UNL     1      -3.563  -0.589   6.560  0.00  0.00    -0.275 OA
ATOM     10  H   UNL     1      -1.840   1.812   5.676  0.00  0.00    +0.155 HD
BRANCH   8  11
ATOM     11  C   UNL     1      -4.407   1.584   6.194  0.00  0.00    +0.102 C 
BRANCH  11  12
ATOM     12  C   UNL     1      -5.726   0.943   6.630  0.00  0.00    -0.029 C 
ATOM     13  C   UNL     1      -5.582   0.395   8.051  0.00  0.00    +0.011 C 
ATOM     14  C   UNL     1      -6.838   1.994   6.601  0.00  0.00    +0.011 C 
ATOM     15  C   UNL     1      -6.079  -0.199   5.676  0.00  0.00    +0.011 C 
ENDBRANCH  11  12
ENDBRANCH   8  11
ENDBRANCH   3   7
BRANCH   6  16
ATOM     16  N   UNL     1       1.896  -3.027   5.576  0.00  0.00    -0.330 N 
ATOM     17  C   UNL     1       1.744  -4.147   4.644  0.00  0.00    +0.129 C 
BRANCH  16  18
ATOM     18  C   UNL     1       3.085  -2.938   6.427  0.00  0.00    +0.070 C 
ATOM     19  C   UNL     1       4.343  -3.005   5.557  0.00  0.00    +0.004 C 
ATOM     20  C   UNL     1       5.580  -2.992   6.458  0.00  0.00    -0.077 C 
ATOM     21  N   UNL     1       5.545  -4.149   7.361  0.00  0.00    +0.378 N 
ATOM     22  C   UNL     1       4.379  -4.054   8.247  0.00  0.00    -0.077 C 
ATOM     23  C   UNL     1       3.096  -4.108   7.415  0.00  0.00    +0.004 C 
ATOM     24  C   UNL     1       6.772  -4.175   8.169  0.00  0.00    -0.096 C 
ATOM     25  H   UNL     1       5.485  -4.997   6.817  0.00  0.00    -0.082 HD
ENDBRANCH  16  18
ENDBRANCH   6  16
BRANCH   1  26
ATOM     26  C   UNL     1       1.990  -0.883   3.711  0.00  0.00    +0.146 C 
BRANCH  26  30
ATOM     27  N   UNL     1       3.013   1.548   4.512  0.00  0.00    -0.299 N 
ATOM     28  C   UNL     1       2.319   1.506   3.358  0.00  0.00    +0.303 C 
ATOM     29  O   UNL     1       2.161   2.520   2.706  0.00  0.00    -0.253 OA
ATOM     30  N   UNL     1       1.799   0.340   2.926  0.00  0.00    -0.279 N 
ATOM     31  H   UNL     1       3.139   0.739   5.032  0.00  0.00    +0.150 HD
BRANCH  27  33
ATOM     32  C   UNL     1       4.311   2.588   6.305  0.00  0.00    +0.024 C 
ATOM     33  C   UNL     1       3.578   2.815   4.982  0.00  0.00    +0.102 C 
ENDBRANCH  27  33
BRANCH  30  34
ATOM     34  C   UNL     1       1.045   0.294   1.671  0.00  0.00    +0.137 C 
BRANCH  34  35
ATOM     35  C   UNL     1       2.014   0.126   0.499  0.00  0.00    +0.178 C 
BRANCH  35  36
ATOM     36  O   UNL     1       2.663  -1.143   0.595  0.00  0.00    -0.381 OA
ATOM     37  C   UNL     1       3.595  -1.401  -0.457  0.00  0.00    +0.194 C 
ENDBRANCH  35  36
ENDBRANCH  34  35
ENDBRANCH  30  34
ENDBRANCH  26  30
ENDBRANCH   1  26
TORSDOF 11
