REMARK  Name = ZINC32958759
REMARK  4 active torsions:
REMARK  status: ('A' for Active; 'I' for Inactive)
REMARK    1  A    between atoms: C_5  and  S_8
REMARK    2  A    between atoms: S_8  and  N_11
REMARK    3  A    between atoms: C_14  and  C_17
REMARK    4  A    between atoms: N_22  and  C_25
REMARK                            x       y       z     vdW  Elec       q    Type
REMARK                         _______ _______ _______ _____ _____    ______ ____
ROOT
ATOM      1  N   UNL     1      -3.763   2.939   1.059  0.00  0.00    -0.176 NA
ATOM      2  C   UNL     1      -3.935   1.698   0.292  0.00  0.00    +0.110 C 
ATOM      3  C   UNL     1      -2.624   0.907   0.332  0.00  0.00    +0.030 C 
ATOM      4  C   UNL     1      -1.481   1.797  -0.161  0.00  0.00    +0.078 C 
ATOM      5  C   UNL     1      -1.342   3.009   0.763  0.00  0.00    +0.030 C 
ATOM      6  C   UNL     1      -2.638   3.824   0.727  0.00  0.00    +0.110 C 
ENDROOT
BRANCH   4   7
ATOM      7  C   UNL     1      -0.195   1.011  -0.155  0.00  0.00    +0.219 C 
ATOM      8  O   UNL     1      -0.120  -0.024   0.472  0.00  0.00    -0.275 OA
ATOM      9  N   UNL     1       0.870   1.456  -0.851  0.00  0.00    -0.299 N 
ATOM     10  C   UNL     1       2.163   0.759  -0.781  0.00  0.00    +0.123 C 
ATOM     11  C   UNL     1       2.643   0.489  -2.216  0.00  0.00    +0.103 C 
ATOM     12  N   UNL     1       2.659   1.752  -2.966  0.00  0.00    -0.296 NA
ATOM     13  C   UNL     1       1.309   2.315  -3.090  0.00  0.00    +0.103 C 
ATOM     14  C   UNL     1       0.772   2.656  -1.696  0.00  0.00    +0.123 C 
BRANCH  12  15
ATOM     15  C   UNL     1       3.277   1.571  -4.287  0.00  0.00    +0.057 C 
ATOM     16  C   UNL     1       2.422   0.617  -5.124  0.00  0.00    +0.019 C 
ATOM     17  C   UNL     1       3.065   0.429  -6.499  0.00  0.00    +0.002 C 
ATOM     18  C   UNL     1       4.468  -0.159  -6.330  0.00  0.00    +0.000 C 
ATOM     19  C   UNL     1       5.323   0.795  -5.493  0.00  0.00    +0.002 C 
ATOM     20  C   UNL     1       4.680   0.983  -4.118  0.00  0.00    +0.019 C 
ENDBRANCH  12  15
ENDBRANCH   4   7
BRANCH   1  21
ATOM     21  S   UNL     1      -4.816   3.332   2.276  0.00  0.00    +0.062 S 
ATOM     22  O   UNL     1      -4.621   4.712   2.551  0.00  0.00    -0.153 OA
ATOM     23  O   UNL     1      -6.080   2.800   1.906  0.00  0.00    -0.153 OA
BRANCH  21  28
ATOM     24  C   UNL     1      -2.701   2.103   5.466  0.00  0.00    +0.049 A 
ATOM     25  C   UNL     1      -3.486   1.081   5.975  0.00  0.00    +0.077 A 
ATOM     26  C   UNL     1      -4.685   0.745   5.347  0.00  0.00    +0.144 A 
ATOM     27  C   UNL     1      -5.091   1.439   4.221  0.00  0.00    +0.077 A 
ATOM     28  C   UNL     1      -4.301   2.454   3.714  0.00  0.00    +0.127 A 
ATOM     29  C   UNL     1      -3.111   2.788   4.336  0.00  0.00    +0.069 A 
ATOM     30 CL   UNL     1      -2.129   4.069   3.697  0.00  0.00    -0.081 Cl
ATOM     31  O   UNL     1      -5.447  -0.261   5.855  0.00  0.00    -0.481 OA
ATOM     32  C   UNL     1      -4.750  -1.343   6.478  0.00  0.00    +0.325 C 
ATOM     33  C   UNL     1      -3.695  -0.798   7.407  0.00  0.00    +0.255 C 
ATOM     34  O   UNL     1      -3.390  -1.411   8.408  0.00  0.00    -0.272 OA
ATOM     35  N   UNL     1      -3.090   0.375   7.120  0.00  0.00    -0.280 N 
ATOM     36  H   UNL     1      -2.299   0.778   7.768  0.00  0.00    +0.155 HD
ENDBRANCH  21  28
ENDBRANCH   1  21
TORSDOF 4
