REMARK  Name = ZINC20215487
REMARK  10 active torsions:
REMARK  status: ('A' for Active; 'I' for Inactive)
REMARK    1  A    between atoms: C_1  and  N_2
REMARK    2  A    between atoms: N_2  and  C_3
REMARK    3  A    between atoms: N_6  and  C_7
REMARK    4  A    between atoms: C_7  and  C_8
REMARK    5  A    between atoms: C_7  and  C_12
REMARK    6  A    between atoms: C_7  and  N_16
REMARK    7  A    between atoms: N_16  and  C_17
REMARK    8  A    between atoms: C_18  and  C_26
REMARK    9  A    between atoms: C_26  and  O_28
REMARK   10  A    between atoms: O_28  and  C_29
REMARK                            x       y       z     vdW  Elec       q    Type
REMARK                         _______ _______ _______ _____ _____    ______ ____
ROOT
ATOM      1  C   UNL     1      -2.185   7.247  -3.079  0.00  0.00    +0.294 C 
ENDROOT
BRANCH   1   7
ATOM      2  C   UNL     1       2.506   6.046  -3.597  0.00  0.00    +0.133 C 
ATOM      3  N   UNL     1       1.140   6.081  -4.123  0.00  0.00    -0.292 N 
ATOM      4  C   UNL     1       0.860   5.576  -5.470  0.00  0.00    +0.133 C 
ATOM      5  C   UNL     1       0.139   6.577  -3.369  0.00  0.00    +0.304 C 
ATOM      6  O   UNL     1       0.371   6.996  -2.251  0.00  0.00    -0.253 OA
ATOM      7  N   UNL     1      -1.118   6.609  -3.853  0.00  0.00    -0.264 N 
ATOM      8  H   UNL     1      -1.343   6.155  -4.829  0.00  0.00    +0.153 HD
ENDBRANCH   1   7
BRANCH   1   9
ATOM      9  C   UNL     1      -3.545   6.838  -3.649  0.00  0.00    +0.436 C 
ATOM     10  F   UNL     1      -4.559   7.530  -2.979  0.00  0.00    -0.166 F 
ATOM     11  F   UNL     1      -3.590   7.147  -5.013  0.00  0.00    -0.166 F 
ATOM     12  F   UNL     1      -3.727   5.461  -3.477  0.00  0.00    -0.166 F 
ENDBRANCH   1   9
BRANCH   1  13
ATOM     13  C   UNL     1      -2.035   8.768  -3.160  0.00  0.00    +0.436 C 
ATOM     14  F   UNL     1      -0.843   9.153  -2.538  0.00  0.00    -0.166 F 
ATOM     15  F   UNL     1      -2.009   9.162  -4.503  0.00  0.00    -0.166 F 
ATOM     16  F   UNL     1      -3.116   9.379  -2.516  0.00  0.00    -0.166 F 
ENDBRANCH   1  13
BRANCH   1  17
ATOM     17  N   UNL     1      -2.095   6.823  -1.679  0.00  0.00    -0.303 N 
ATOM     18  H   UNL     1      -2.207   7.561  -0.872  0.00  0.00    +0.149 HD
BRANCH  17  19
ATOM     19  C   UNL     1      -1.869   5.495  -1.374  0.00  0.00    +0.082 A 
ATOM     20  C   UNL     1      -1.670   4.917  -0.125  0.00  0.00    +0.090 A 
ATOM     21  C   UNL     1      -1.452   3.479  -0.079  0.00  0.00    -0.021 A 
ATOM     22  C   UNL     1      -1.468   2.857  -1.276  0.00  0.00    -0.004 A 
ATOM     23  S   UNL     1      -1.767   4.144  -2.454  0.00  0.00    -0.078 S 
ATOM     24  C   UNL     1      -1.274   1.394  -1.536  0.00  0.00    +0.043 C 
ATOM     25  C   UNL     1      -0.679   0.753  -0.274  0.00  0.00    +0.005 C 
ATOM     26  C   UNL     1      -1.484   1.217   0.944  0.00  0.00    +0.005 C 
ATOM     27  C   UNL     1      -1.219   2.699   1.209  0.00  0.00    +0.037 C 
BRANCH  20  28
ATOM     28  C   UNL     1      -1.679   5.723   1.095  0.00  0.00    +0.342 C 
ATOM     29  O   UNL     1      -2.720   5.905   1.696  0.00  0.00    -0.245 OA
BRANCH  28  30
ATOM     30  O   UNL     1      -0.532   6.266   1.553  0.00  0.00    -0.464 OA
ATOM     31  C   UNL     1      -0.614   7.042   2.750  0.00  0.00    +0.280 C 
ENDBRANCH  28  30
ENDBRANCH  20  28
ENDBRANCH  17  19
ENDBRANCH   1  17
TORSDOF 7
