REMARK  Name = ZINC63503275
REMARK  6 active torsions:
REMARK  status: ('A' for Active; 'I' for Inactive)
REMARK    1  A    between atoms: C_4  and  C_7
REMARK    2  A    between atoms: C_9  and  S_13
REMARK    3  A    between atoms: S_13  and  C_14
REMARK    4  A    between atoms: C_14  and  C_15
REMARK    5  A    between atoms: N_17  and  C_18
REMARK    6  A    between atoms: C_21  and  C_24
REMARK                            x       y       z     vdW  Elec       q    Type
REMARK                         _______ _______ _______ _____ _____    ______ ____
ROOT
ATOM      1  C   UNL     1       8.573  -4.743  -0.113  0.00  0.00    +0.225 C 
ATOM      2  O   UNL     1       8.002  -5.813  -0.112  0.00  0.00    -0.275 OA
ATOM      3  N   UNL     1       9.920  -4.699  -0.127  0.00  0.00    -0.285 N 
ATOM      4  H   UNL     1      10.377  -3.843  -0.128  0.00  0.00    +0.152 HD
ENDROOT
BRANCH   3   5
ATOM      5  C   UNL     1      10.694  -5.943  -0.142  0.00  0.00    +0.251 C 
ATOM      6  N   UNL     1      12.118  -5.681  -0.429  0.00  0.00    -0.254 NA
ATOM      7  C   UNL     1      13.024  -6.208   0.289  0.00  0.00    +0.056 C 
ATOM      8  C   UNL     1      12.603  -7.106   1.443  0.00  0.00    +0.128 C 
ATOM      9  S   UNL     1      10.809  -6.676   1.548  0.00  0.00    -0.109 S 
BRANCH   7  10
ATOM     10  C   UNL     1      14.451  -5.955   0.010  0.00  0.00    -0.003 A 
ATOM     11  C   UNL     1      15.436  -6.547   0.805  0.00  0.00    +0.011 A 
ATOM     12  C   UNL     1      16.768  -6.307   0.539  0.00  0.00    +0.016 A 
ATOM     13  C   UNL     1      17.129  -5.481  -0.512  0.00  0.00    +0.018 A 
ATOM     14  C   UNL     1      16.158  -4.892  -1.303  0.00  0.00    +0.016 A 
ATOM     15  C   UNL     1      14.823  -5.129  -1.052  0.00  0.00    +0.011 A 
ATOM     16 BR   UNL     1      18.958  -5.158  -0.869  0.00  0.00    -0.050 Br
ENDBRANCH   7  10
ENDBRANCH   3   5
BRANCH   1  17
ATOM     17  C   UNL     1       7.777  -3.463  -0.097  0.00  0.00    +0.173 C 
BRANCH  17  18
ATOM     18  S   UNL     1       6.006  -3.853  -0.080  0.00  0.00    -0.079 S 
BRANCH  18  21
ATOM     19  C   UNL     1       3.695  -0.684  -0.038  0.00  0.00    +0.067 A 
ATOM     20  N   UNL     1       3.879  -2.056  -0.047  0.00  0.00    -0.333 N 
ATOM     21  C   UNL     1       5.222  -2.275  -0.063  0.00  0.00    +0.167 A 
ATOM     22  H   UNL     1       3.183  -2.732  -0.043  0.00  0.00    +0.168 HD
ATOM     23  N   UNL     1       5.838  -1.114  -0.064  0.00  0.00    -0.230 NA
ATOM     24  C   UNL     1       4.934  -0.126  -0.054  0.00  0.00    +0.139 A 
BRANCH  19  28
ATOM     25  C   UNL     1      -0.017   1.379   0.010  0.00  0.00    +0.000 A 
ATOM     26  C   UNL     1       1.168   2.094   0.002  0.00  0.00    +0.001 A 
ATOM     27  C   UNL     1       2.377   1.430  -0.013  0.00  0.00    +0.010 A 
ATOM     28  C   UNL     1       2.404   0.034  -0.021  0.00  0.00    -0.000 A 
ATOM     29  C   UNL     1       1.204  -0.681  -0.013  0.00  0.00    +0.010 A 
ATOM     30  C   UNL     1       0.002  -0.004   0.002  0.00  0.00    +0.001 A 
ENDBRANCH  19  28
ENDBRANCH  18  21
ENDBRANCH  17  18
ENDBRANCH   1  17
TORSDOF 6
