REMARK  Name = ZINC09801153
REMARK  7 active torsions:
REMARK  status: ('A' for Active; 'I' for Inactive)
REMARK    1  A    between atoms: C_1  and  C_2
REMARK    2  A    between atoms: C_5  and  N_9
REMARK    3  A    between atoms: C_6  and  C_8
REMARK    4  A    between atoms: C_13  and  C_15
REMARK    5  A    between atoms: C_15  and  S_16
REMARK    6  A    between atoms: S_16  and  C_17
REMARK    7  A    between atoms: C_20  and  C_23
REMARK                            x       y       z     vdW  Elec       q    Type
REMARK                         _______ _______ _______ _____ _____    ______ ____
ROOT
ATOM      1  N   UNL     1       1.211 -11.751  -0.065  0.00  0.00    -0.269 N 
ATOM      2  C   UNL     1       1.994 -10.654  -0.071  0.00  0.00    +0.310 C 
ATOM      3  O   UNL     1       3.204 -10.771  -0.076  0.00  0.00    -0.252 OA
ATOM      4  N   UNL     1       1.435  -9.428  -0.072  0.00  0.00    -0.239 N 
ATOM      5  C   UNL     1       2.219  -8.331  -0.079  0.00  0.00    +0.231 C 
ATOM      6  O   UNL     1       3.425  -8.447  -0.084  0.00  0.00    -0.274 OA
ATOM      7  H   UNL     1       0.249 -11.660   0.022  0.00  0.00    +0.156 HD
ATOM      8  H   UNL     1       0.470  -9.334  -0.069  0.00  0.00    +0.159 HD
ENDROOT
BRANCH   1  13
ATOM      9  C   UNL     1       3.541 -16.902  -0.540  0.00  0.00    +0.044 C 
ATOM     10  C   UNL     1       2.922 -15.534  -0.414  0.00  0.00    -0.050 A 
ATOM     11  C   UNL     1       3.583 -14.428  -0.916  0.00  0.00    +0.005 A 
ATOM     12  C   UNL     1       3.019 -13.173  -0.802  0.00  0.00    +0.024 A 
ATOM     13  C   UNL     1       1.785 -13.022  -0.182  0.00  0.00    +0.038 A 
ATOM     14  C   UNL     1       1.126 -14.133   0.326  0.00  0.00    -0.029 A 
ATOM     15  C   UNL     1       1.693 -15.387   0.203  0.00  0.00    +0.008 A 
ATOM     16  C   UNL     1      -0.210 -13.973   1.004  0.00  0.00    +0.045 C 
ENDBRANCH   1  13
BRANCH   5  17
ATOM     17  C   UNL     1       1.594  -6.959  -0.081  0.00  0.00    +0.173 C 
BRANCH  17  18
ATOM     18  S   UNL     1       2.897  -5.703  -0.090  0.00  0.00    -0.077 S 
BRANCH  18  19
ATOM     19  C   UNL     1       1.913  -4.242  -0.090  0.00  0.00    +0.190 A 
ATOM     20  N   UNL     1       2.373  -2.955  -0.096  0.00  0.00    -0.316 N 
ATOM     21  H   UNL     1       3.298  -2.663  -0.101  0.00  0.00    +0.169 HD
ATOM     22  C   UNL     1       1.250  -2.160  -0.094  0.00  0.00    +0.165 A 
ATOM     23  N   UNL     1       0.210  -2.961  -0.082  0.00  0.00    -0.128 NA
ATOM     24  N   UNL     1       0.600  -4.186  -0.085  0.00  0.00    -0.122 NA
BRANCH  22  25
ATOM     25  C   UNL     1       1.221  -0.682  -0.098  0.00  0.00    +0.054 A 
ATOM     26  C   UNL     1       2.413   0.043  -0.104  0.00  0.00    +0.014 A 
ATOM     27  C   UNL     1       2.379   1.422  -0.107  0.00  0.00    +0.001 A 
ATOM     28  C   UNL     1       1.166   2.088  -0.104  0.00  0.00    +0.003 A 
ATOM     29  C   UNL     1      -0.021   1.378  -0.098  0.00  0.00    +0.039 A 
ATOM     30  C   UNL     1      -0.002  -0.004  -0.095  0.00  0.00    +0.134 A 
ATOM     31  F   UNL     1      -1.161  -0.698  -0.089  0.00  0.00    -0.205 F 
ENDBRANCH  22  25
ENDBRANCH  18  19
ENDBRANCH  17  18
ENDBRANCH   5  17
TORSDOF 5
