REMARK  Name = ZINC50227022
REMARK  6 active torsions:
REMARK  status: ('A' for Active; 'I' for Inactive)
REMARK    1  A    between atoms: C_1  and  C_2
REMARK    2  A    between atoms: C_5  and  C_7
REMARK    3  A    between atoms: C_7  and  N_8
REMARK    4  A    between atoms: C_15  and  C_18
REMARK    5  A    between atoms: C_18  and  C_19
REMARK    6  A    between atoms: C_19  and  C_20
REMARK                            x       y       z     vdW  Elec       q    Type
REMARK                         _______ _______ _______ _____ _____    ______ ____
ROOT
ATOM      1  N   UNL     1       1.206  -4.512  -1.411  0.00  0.00    -0.295 N 
ATOM      2  C   UNL     1       1.680  -5.747  -1.667  0.00  0.00    +0.302 C 
ATOM      3  O   UNL     1       2.055  -6.456  -0.753  0.00  0.00    -0.253 OA
ATOM      4  N   UNL     1       1.739  -6.196  -2.937  0.00  0.00    -0.285 N 
ATOM      5  C   UNL     1       1.404  -5.311  -4.061  0.00  0.00    +0.109 C 
ATOM      6  C   UNL     1       2.568  -5.318  -5.057  0.00  0.00    +0.019 C 
ATOM      7  C   UNL     1       2.877  -6.761  -5.464  0.00  0.00    +0.006 C 
ATOM      8  C   UNL     1       3.294  -7.562  -4.229  0.00  0.00    +0.007 C 
ATOM      9  C   UNL     1       2.145  -7.579  -3.223  0.00  0.00    +0.112 C 
ATOM     10  H   UNL     1       0.975  -3.919  -2.144  0.00  0.00    +0.151 HD
ENDROOT
BRANCH   1  11
ATOM     11  C   UNL     1       1.039  -4.064  -0.026  0.00  0.00    +0.148 C 
BRANCH  11  16
ATOM     12  C   UNL     1      -0.044   1.497   0.011  0.00  0.00    +0.051 C 
ATOM     13  C   UNL     1      -0.018  -0.010   0.003  0.00  0.00    -0.013 A 
ATOM     14  C   UNL     1      -1.056  -0.882   0.005  0.00  0.00    +0.011 A 
ATOM     15  C   UNL     1      -0.791  -2.239  -0.004  0.00  0.00    +0.013 A 
ATOM     16  C   UNL     1       0.498  -2.657  -0.015  0.00  0.00    +0.007 A 
ATOM     17  S   UNL     1       1.389  -1.110  -0.019  0.00  0.00    -0.097 S 
ENDBRANCH  11  16
ENDBRANCH   1  11
BRANCH   8  18
ATOM     18  C   UNL     1       3.636  -8.995  -4.642  0.00  0.00    +0.016 C 
BRANCH  18  19
ATOM     19  C   UNL     1       4.171  -9.761  -3.430  0.00  0.00    +0.125 C 
BRANCH  19  20
ATOM     20  C   UNL     1       4.508 -11.173  -3.837  0.00  0.00    +0.356 C 
ATOM     21  O   UNL     1       4.335 -11.533  -4.989  0.00  0.00    -0.246 OA
ATOM     22  O   UNL     1       4.952 -11.955  -3.014  0.00  0.00    -0.246 OA
ENDBRANCH  19  20
ENDBRANCH  18  19
ENDBRANCH   8  18
TORSDOF 5
