REMARK  Name = ZINC40019748
REMARK  18 active torsions:
REMARK  status: ('A' for Active; 'I' for Inactive)
REMARK    1  A    between atoms: C_1  and  C_2
REMARK    2  A    between atoms: C_2  and  C_3
REMARK    3  A    between atoms: C_3  and  C_4
REMARK    4  A    between atoms: C_4  and  N_5
REMARK    5  A    between atoms: N_5  and  C_6
REMARK    6  A    between atoms: N_5  and  C_10
REMARK    7  A    between atoms: C_6  and  C_7
REMARK    8  A    between atoms: C_7  and  C_8
REMARK    9  A    between atoms: C_8  and  C_9
REMARK   10  A    between atoms: C_10  and  C_11
REMARK   11  A    between atoms: C_11  and  C_12
REMARK   12  A    between atoms: C_12  and  N_13
REMARK   13  A    between atoms: C_14  and  C_34
REMARK   14  A    between atoms: C_16  and  C_21
REMARK   15  A    between atoms: C_21  and  C_23
REMARK   16  A    between atoms: C_29  and  O_32
REMARK   17  A    between atoms: O_32  and  C_33
REMARK   18  A    between atoms: C_37  and  O_40
REMARK                            x       y       z     vdW  Elec       q    Type
REMARK                         _______ _______ _______ _____ _____    ______ ____
ROOT
ATOM      1  N   UNL     1       3.811  -6.061  -0.433  0.00  0.00    -0.284 N 
ATOM      2  C   UNL     1       3.253  -6.132  -1.788  0.00  0.00    +0.145 C 
ATOM      3  C   UNL     1       4.435  -6.211  -2.726  0.00  0.00    +0.079 C 
ATOM      4  C   UNL     1       5.547  -6.186  -1.956  0.00  0.00    +0.249 C 
ATOM      5  C   UNL     1       5.152  -6.088  -0.536  0.00  0.00    +0.288 C 
ATOM      6  O   UNL     1       5.925  -6.040   0.401  0.00  0.00    -0.266 OA
ATOM      7  O   UNL     1       6.820  -6.238  -2.414  0.00  0.00    -0.282 OA
ENDROOT
BRANCH   2   8
ATOM      8  C   UNL     1       2.440  -4.897  -2.079  0.00  0.00    -0.022 A 
ATOM      9  C   UNL     1       2.968  -3.646  -1.819  0.00  0.00    +0.009 A 
ATOM     10  C   UNL     1       2.225  -2.512  -2.084  0.00  0.00    +0.046 A 
ATOM     11  C   UNL     1       0.948  -2.630  -2.614  0.00  0.00    +0.117 A 
ATOM     12  C   UNL     1       0.421  -3.886  -2.875  0.00  0.00    +0.046 A 
ATOM     13  C   UNL     1       1.170  -5.016  -2.612  0.00  0.00    +0.009 A 
BRANCH  11  14
ATOM     14  O   UNL     1       0.215  -1.516  -2.876  0.00  0.00    -0.507 OA
ATOM     15  H   UNL     1       0.339  -1.164  -3.768  0.00  0.00    +0.292 HD
ENDBRANCH  11  14
ENDBRANCH   2   8
BRANCH   3  16
ATOM     16  C   UNL     1       4.386  -6.299  -4.190  0.00  0.00    +0.230 C 
ATOM     17  O   UNL     1       4.957  -5.465  -4.869  0.00  0.00    -0.283 OA
BRANCH  16  18
ATOM     18  C   UNL     1       3.648  -7.393  -4.836  0.00  0.00    +0.176 A 
ATOM     19  C   UNL     1       3.615  -7.632  -6.175  0.00  0.00    +0.062 A 
ATOM     20  C   UNL     1       2.767  -8.809  -6.355  0.00  0.00    +0.025 A 
ATOM     21  C   UNL     1       2.345  -9.544  -7.468  0.00  0.00    +0.012 A 
ATOM     22  C   UNL     1       1.529 -10.626  -7.297  0.00  0.00    +0.004 A 
ATOM     23  C   UNL     1       1.115 -11.002  -6.026  0.00  0.00    +0.049 A 
ATOM     24  C   UNL     1       1.521 -10.291  -4.912  0.00  0.00    +0.163 A 
ATOM     25  C   UNL     1       2.354  -9.183  -5.064  0.00  0.00    +0.177 A 
ATOM     26  O   UNL     1       2.905  -8.316  -4.191  0.00  0.00    -0.448 OA
BRANCH  24  27
ATOM     27  O   UNL     1       1.108 -10.669  -3.673  0.00  0.00    -0.491 OA
ATOM     28  C   UNL     1       0.256 -11.813  -3.595  0.00  0.00    +0.277 C 
ENDBRANCH  24  27
ENDBRANCH  16  18
ENDBRANCH   3  16
BRANCH   1  29
ATOM     29  C   UNL     1       3.044  -5.971   0.812  0.00  0.00    +0.107 C 
BRANCH  29  30
ATOM     30  C   UNL     1       2.799  -4.500   1.155  0.00  0.00    +0.000 C 
BRANCH  30  31
ATOM     31  C   UNL     1       1.997  -4.406   2.454  0.00  0.00    -0.077 C 
BRANCH  31  32
ATOM     32  N   UNL     1       1.762  -2.994   2.783  0.00  0.00    +0.380 N 
ATOM     33  H   UNL     1       2.644  -2.505   2.818  0.00  0.00    -0.082 HD
BRANCH  32  34
ATOM     34  C   UNL     1       0.906  -2.388   1.755  0.00  0.00    -0.079 C 
BRANCH  34  35
ATOM     35  C   UNL     1       0.774  -0.887   2.021  0.00  0.00    -0.019 C 
BRANCH  35  37
ATOM     36  C   UNL     1      -0.133   1.269   1.142  0.00  0.00    +0.004 C 
ATOM     37  C   UNL     1      -0.001  -0.232   0.876  0.00  0.00    -0.005 C 
ENDBRANCH  35  37
ENDBRANCH  34  35
ENDBRANCH  32  34
BRANCH  32  38
ATOM     38  C   UNL     1       1.098  -2.900   4.090  0.00  0.00    -0.079 C 
BRANCH  38  39
ATOM     39  C   UNL     1       2.046  -3.401   5.181  0.00  0.00    -0.019 C 
BRANCH  39  40
ATOM     40  C   UNL     1       1.409  -3.176   6.554  0.00  0.00    -0.005 C 
ATOM     41  C   UNL     1       2.357  -3.677   7.645  0.00  0.00    +0.004 C 
ENDBRANCH  39  40
ENDBRANCH  38  39
ENDBRANCH  32  38
ENDBRANCH  31  32
ENDBRANCH  30  31
ENDBRANCH  29  30
ENDBRANCH   1  29
TORSDOF 15
