REMARK  Name = ZINC50997529
REMARK  9 active torsions:
REMARK  status: ('A' for Active; 'I' for Inactive)
REMARK    1  A    between atoms: C_1  and  C_2
REMARK    2  A    between atoms: C_2  and  C_3
REMARK    3  A    between atoms: C_3  and  C_4
REMARK    4  A    between atoms: C_6  and  C_14
REMARK    5  A    between atoms: N_8  and  C_9
REMARK    6  A    between atoms: C_9  and  C_10
REMARK    7  A    between atoms: C_10  and  C_11
REMARK    8  A    between atoms: C_10  and  C_12
REMARK    9  A    between atoms: N_17  and  C_19
REMARK                            x       y       z     vdW  Elec       q    Type
REMARK                         _______ _______ _______ _____ _____    ______ ____
ROOT
ATOM      1  C   UNL     1       0.739  -2.004  -1.265  0.00  0.00    +0.076 C 
ATOM      2  N   UNL     1       1.684  -2.701  -0.740  0.00  0.00    -0.363 N 
ATOM      3  C   UNL     1       1.368  -4.124  -0.937  0.00  0.00    +0.175 C 
ATOM      4  C   UNL     1       0.048  -4.104  -1.683  0.00  0.00    +0.101 C 
ATOM      5  N   UNL     1      -0.248  -2.765  -1.826  0.00  0.00    -0.278 N 
ATOM      6  N   UNL     1      -0.647  -5.115  -2.090  0.00  0.00    -0.388 N 
ATOM      7  H   UNL     1      -0.332  -6.018  -1.924  0.00  0.00    +0.157 HD
ATOM      8  H   UNL     1      -1.483  -4.972  -2.560  0.00  0.00    +0.157 HD
ATOM      9  H   UNL     1       2.469  -2.349  -0.292  0.00  0.00    +0.162 HD
ENDROOT
BRANCH   3  10
ATOM     10  C   UNL     1       1.215  -4.821   0.391  0.00  0.00    +0.019 A 
ATOM     11  C   UNL     1       0.607  -4.290   1.533  0.00  0.00    +0.140 A 
ATOM     12  N   UNL     1       0.666  -5.189   2.482  0.00  0.00    -0.180 NA
ATOM     13  N   UNL     1       1.314  -6.321   1.973  0.00  0.00    -0.274 N 
ATOM     14  C   UNL     1       1.637  -6.072   0.686  0.00  0.00    +0.114 A 
ATOM     15  C   UNL     1       1.589  -7.560   2.706  0.00  0.00    +0.172 C 
ENDBRANCH   3  10
BRANCH   1  16
ATOM     16  C   UNL     1       0.718  -0.497  -1.257  0.00  0.00    +0.069 C 
BRANCH  16  18
ATOM     17  C   UNL     1      -0.019   1.526   0.010  0.00  0.00    +0.004 C 
ATOM     18  C   UNL     1       0.002  -0.004   0.002  0.00  0.00    +0.004 C 
ENDBRANCH  16  18
ENDBRANCH   1  16
BRANCH   5  19
ATOM     19  C   UNL     1      -1.444  -2.236  -2.486  0.00  0.00    +0.116 C 
BRANCH  19  20
ATOM     20  C   UNL     1      -1.157  -2.034  -3.975  0.00  0.00    +0.001 C 
ATOM     21  C   UNL     1      -0.899  -3.391  -4.633  0.00  0.00    +0.009 C 
ATOM     22  C   UNL     1      -2.362  -1.365  -4.641  0.00  0.00    +0.009 C 
ENDBRANCH  19  20
ENDBRANCH   5  19
TORSDOF 5
