REMARK  Name = ZINC51705376
REMARK  10 active torsions:
REMARK  status: ('A' for Active; 'I' for Inactive)
REMARK    1  A    between atoms: C_1  and  C_2
REMARK    2  A    between atoms: C_3  and  N_26
REMARK    3  A    between atoms: C_7  and  O_8
REMARK    4  A    between atoms: O_8  and  C_9
REMARK    5  A    between atoms: C_9  and  C_11
REMARK    6  A    between atoms: C_11  and  C_13
REMARK    7  A    between atoms: C_11  and  N_16
REMARK    8  A    between atoms: C_13  and  C_14
REMARK    9  A    between atoms: C_13  and  C_15
REMARK   10  A    between atoms: C_17  and  C_19
REMARK                            x       y       z     vdW  Elec       q    Type
REMARK                         _______ _______ _______ _____ _____    ______ ____
ROOT
ATOM      1  C   UNL     1       0.169  -0.008   4.836  0.00  0.00    +0.185 C 
ENDROOT
BRANCH   1   2
ATOM      2  N   UNL     1       0.375  -0.982   5.911  0.00  0.00    -0.298 N 
ATOM      3  C   UNL     1      -0.022  -0.695   7.166  0.00  0.00    +0.247 C 
ATOM      4  O   UNL     1      -0.552   0.373   7.406  0.00  0.00    -0.270 OA
ATOM      5  H   UNL     1       0.798  -1.834   5.719  0.00  0.00    +0.150 HD
BRANCH   3   6
ATOM      6  C   UNL     1       0.185  -1.676   8.249  0.00  0.00    +0.072 A 
ATOM      7  C   UNL     1       0.798  -2.901   7.979  0.00  0.00    +0.016 A 
ATOM      8  C   UNL     1       0.990  -3.813   8.995  0.00  0.00    +0.001 A 
ATOM      9  C   UNL     1       0.575  -3.519  10.283  0.00  0.00    +0.003 A 
ATOM     10  C   UNL     1      -0.033  -2.309  10.561  0.00  0.00    +0.039 A 
ATOM     11  C   UNL     1      -0.226  -1.381   9.553  0.00  0.00    +0.135 A 
ATOM     12  F   UNL     1      -0.815  -0.197   9.826  0.00  0.00    -0.205 F 
ENDBRANCH   3   6
ENDBRANCH   1   2
BRANCH   1  13
ATOM     13  C   UNL     1       1.332   0.986   4.819  0.00  0.00    +0.014 C 
ATOM     14  C   UNL     1       2.625   0.253   4.459  0.00  0.00    +0.009 C 
ATOM     15  C   UNL     1       1.056   2.075   3.780  0.00  0.00    +0.009 C 
ENDBRANCH   1  13
BRANCH   1  16
ATOM     16  C   UNL     1       0.104  -0.727   3.513  0.00  0.00    +0.333 C 
ATOM     17  O   UNL     1       0.218  -1.929   3.472  0.00  0.00    -0.248 OA
BRANCH  16  18
ATOM     18  O   UNL     1      -0.081  -0.031   2.379  0.00  0.00    -0.424 OA
BRANCH  18  25
ATOM     19  C   UNL     1      -2.476  -1.225   1.476  0.00  0.00    +0.050 C 
ATOM     20  C   UNL     1      -1.183  -1.315   0.707  0.00  0.00    +0.022 A 
ATOM     21  C   UNL     1      -1.139  -1.997  -0.494  0.00  0.00    +0.133 A 
ATOM     22  C   UNL     1       0.047  -2.079  -1.200  0.00  0.00    +0.033 A 
ATOM     23  C   UNL     1       1.192  -1.480  -0.706  0.00  0.00    +0.006 A 
ATOM     24  C   UNL     1       1.152  -0.797   0.494  0.00  0.00    +0.047 A 
ATOM     25  C   UNL     1      -0.038  -0.707   1.201  0.00  0.00    +0.137 A 
BRANCH  21  26
ATOM     26  N   UNL     1      -2.361  -2.640  -1.024  0.00  0.00    +0.057 N 
ATOM     27  O   UNL     1      -2.288  -3.713  -1.578  0.00  0.00    -0.126 OA
ATOM     28  O   UNL     1      -3.433  -2.093  -0.905  0.00  0.00    -0.126 OA
ENDBRANCH  21  26
ENDBRANCH  18  25
ENDBRANCH  16  18
ENDBRANCH   1  16
TORSDOF 7
