REMARK  Name = ZINC43736103
REMARK  15 active torsions:
REMARK  status: ('A' for Active; 'I' for Inactive)
REMARK    1  A    between atoms: C_1  and  C_2
REMARK    2  A    between atoms: C_2  and  O_3
REMARK    3  A    between atoms: O_3  and  C_4
REMARK    4  A    between atoms: N_6  and  N_7
REMARK    5  A    between atoms: C_8  and  C_9
REMARK    6  A    between atoms: C_8  and  C_10
REMARK    7  A    between atoms: C_10  and  O_42
REMARK    8  A    between atoms: C_11  and  O_38
REMARK    9  A    between atoms: C_16  and  C_37
REMARK   10  A    between atoms: C_26  and  C_36
REMARK   11  A    between atoms: C_29  and  O_32
REMARK   12  A    between atoms: O_32  and  C_33
REMARK   13  A    between atoms: C_33  and  C_35
REMARK   14  A    between atoms: O_38  and  C_39
REMARK   15  A    between atoms: C_39  and  C_41
REMARK                            x       y       z     vdW  Elec       q    Type
REMARK                         _______ _______ _______ _____ _____    ______ ____
ROOT
ATOM      1  C   UNL     1       2.670  -3.420   4.497  0.00  0.00    +0.147 C 
ATOM      2  C   UNL     1       4.120  -3.939   4.317  0.00  0.00    +0.214 C 
ATOM      3  C   UNL     1       4.050  -5.078   3.259  0.00  0.00    +0.052 C 
ATOM      4  C   UNL     1       2.551  -5.415   3.248  0.00  0.00    +0.005 C 
ATOM      5  C   UNL     1       1.920  -4.012   3.281  0.00  0.00    +0.009 C 
ATOM      6  C   UNL     1       0.426  -4.105   3.428  0.00  0.00    +0.010 C 
ATOM      7  C   UNL     1      -0.174  -5.145   2.474  0.00  0.00    +0.005 C 
ATOM      8  C   UNL     1       0.825  -5.676   1.463  0.00  0.00    +0.003 C 
ATOM      9  C   UNL     1       2.057  -6.281   2.115  0.00  0.00    +0.001 C 
ATOM     10  C   UNL     1       1.696  -7.647   2.725  0.00  0.00    +0.031 C 
ATOM     11  C   UNL     1       1.013  -8.519   1.723  0.00  0.00    -0.027 C 
ATOM     12  C   UNL     1       0.330  -8.050   0.722  0.00  0.00    -0.064 C 
ATOM     13  C   UNL     1       0.180  -6.589   0.435  0.00  0.00    -0.008 C 
ATOM     14  C   UNL     1      -1.301  -6.254   0.259  0.00  0.00    +0.015 C 
ATOM     15  C   UNL     1      -1.947  -7.183  -0.767  0.00  0.00    +0.046 C 
ATOM     16  C   UNL     1      -1.823  -8.642  -0.337  0.00  0.00    +0.180 C 
ATOM     17  C   UNL     1      -0.348  -9.035  -0.215  0.00  0.00    +0.075 C 
ATOM     18  C   UNL     1       0.887  -6.300  -0.896  0.00  0.00    +0.016 C 
ATOM     19  C   UNL     1       2.310  -3.144   2.083  0.00  0.00    +0.015 C 
ENDROOT
BRANCH   1  21
ATOM     20  N   UNL     1       1.779  -1.276   5.148  0.00  0.00    -0.184 NA
ATOM     21  C   UNL     1       2.631  -1.919   4.443  0.00  0.00    +0.069 C 
ATOM     22  C   UNL     1       3.596  -1.172   3.558  0.00  0.00    +0.065 C 
BRANCH  20  25
ATOM     23  C   UNL     1      -0.067  -1.306   6.652  0.00  0.00    +0.420 C 
ATOM     24  O   UNL     1      -0.958  -1.903   7.223  0.00  0.00    -0.225 OA
ATOM     25  N   UNL     1       0.751  -1.964   5.806  0.00  0.00    -0.172 N 
ATOM     26  H   UNL     1       0.629  -2.914   5.653  0.00  0.00    +0.181 HD
BRANCH  23  27
ATOM     27  O   UNL     1       0.104   0.013   6.864  0.00  0.00    -0.450 OA
BRANCH  27  29
ATOM     28  C   UNL     1      -0.452   2.131   7.885  0.00  0.00    +0.048 C 
ATOM     29  C   UNL     1      -0.799   0.646   7.773  0.00  0.00    +0.230 C 
ENDBRANCH  27  29
ENDBRANCH  23  27
ENDBRANCH  20  25
ENDBRANCH   1  21
BRANCH   1  30
ATOM     30  O   UNL     1       2.107  -3.909   5.709  0.00  0.00    -0.378 OA
ATOM     31  H   UNL     1       2.554  -3.591   6.506  0.00  0.00    +0.211 HD
ENDBRANCH   1  30
BRANCH  16  32
ATOM     32  O   UNL     1      -2.472  -8.829   0.922  0.00  0.00    -0.461 OA
BRANCH  32  33
ATOM     33  C   UNL     1      -3.003 -10.039   1.161  0.00  0.00    +0.304 C 
ATOM     34  O   UNL     1      -2.919 -10.910   0.328  0.00  0.00    -0.251 OA
ATOM     35  C   UNL     1      -3.704 -10.310   2.467  0.00  0.00    +0.136 C 
ENDBRANCH  32  33
ENDBRANCH  16  32
BRANCH   2  36
ATOM     36  O   UNL     1       4.969  -2.889   3.856  0.00  0.00    -0.458 OA
BRANCH  36  37
ATOM     37  C   UNL     1       6.260  -2.943   4.221  0.00  0.00    +0.304 C 
ATOM     38  O   UNL     1       6.654  -3.854   4.910  0.00  0.00    -0.251 OA
ATOM     39  C   UNL     1       7.216  -1.869   3.771  0.00  0.00    +0.136 C 
ENDBRANCH  36  37
ENDBRANCH   2  36
TORSDOF 9
