REMARK  Name = ZINC37129069
REMARK  9 active torsions:
REMARK  status: ('A' for Active; 'I' for Inactive)
REMARK    1  A    between atoms: C_1  and  C_2
REMARK    2  A    between atoms: C_2  and  C_4
REMARK    3  A    between atoms: C_2  and  N_10
REMARK    4  A    between atoms: C_4  and  C_5
REMARK    5  A    between atoms: C_5  and  C_6
REMARK    6  A    between atoms: C_5  and  C_7
REMARK    7  A    between atoms: C_5  and  O_8
REMARK    8  A    between atoms: O_8  and  C_9
REMARK    9  A    between atoms: N_10  and  C_11
REMARK                            x       y       z     vdW  Elec       q    Type
REMARK                         _______ _______ _______ _____ _____    ______ ____
ROOT
ATOM      1  C   UNL     1       2.089  -0.703   1.140  0.00  0.00    +0.075 A 
ATOM      2  C   UNL     1       2.685  -1.518   2.054  0.00  0.00    +0.065 A 
ATOM      3  C   UNL     1       4.059  -1.752   2.032  0.00  0.00    +0.044 A 
ATOM      4  C   UNL     1       4.861  -1.179   1.102  0.00  0.00    +0.071 A 
ATOM      5  C   UNL     1       4.311  -0.316   0.115  0.00  0.00    +0.120 A 
ATOM      6  C   UNL     1       2.874  -0.072   0.129  0.00  0.00    +0.123 A 
ATOM      7  N   UNL     1       2.470   0.746  -0.843  0.00  0.00    -0.189 NA
ATOM      8  S   UNL     1       3.798   1.132  -1.665  0.00  0.00    +0.117 S 
ATOM      9  N   UNL     1       4.942   0.329  -0.868  0.00  0.00    -0.189 NA
ATOM     10 CL   UNL     1       6.567  -1.501   1.116  0.00  0.00    -0.081 Cl
ATOM     11 CL   UNL     1       1.712  -2.282   3.272  0.00  0.00    -0.082 Cl
ENDROOT
BRANCH   1  12
ATOM     12  N   UNL     1       0.711  -0.489   1.189  0.00  0.00    -0.338 N 
ATOM     13  H   UNL     1       0.216  -0.698   1.997  0.00  0.00    +0.146 HD
BRANCH  12  15
ATOM     14  C   UNL     1      -0.110   1.569   0.154  0.00  0.00    +0.028 C 
ATOM     15  C   UNL     1       0.011   0.050   0.020  0.00  0.00    +0.070 C 
BRANCH  15  16
ATOM     16  C   UNL     1      -1.386  -0.567  -0.068  0.00  0.00    +0.056 C 
BRANCH  16  17
ATOM     17  C   UNL     1      -1.264  -2.070  -0.327  0.00  0.00    +0.065 C 
ATOM     18  C   UNL     1      -2.658  -2.666  -0.539  0.00  0.00    +0.041 C 
ATOM     19  C   UNL     1      -0.414  -2.305  -1.577  0.00  0.00    +0.041 C 
BRANCH  17  20
ATOM     20  O   UNL     1      -0.643  -2.699   0.796  0.00  0.00    -0.377 OA
ATOM     21  C   UNL     1      -0.481  -4.111   0.656  0.00  0.00    +0.194 C 
ENDBRANCH  17  20
ENDBRANCH  16  17
ENDBRANCH  15  16
ENDBRANCH  12  15
ENDBRANCH   1  12
TORSDOF 5
