REMARK  Name = ZINC45894614
REMARK  6 active torsions:
REMARK  status: ('A' for Active; 'I' for Inactive)
REMARK    1  A    between atoms: C_4  and  C_7
REMARK    2  A    between atoms: C_9  and  C_12
REMARK    3  A    between atoms: N_14  and  C_15
REMARK    4  A    between atoms: C_18  and  N_21
REMARK    5  A    between atoms: N_24  and  C_25
REMARK    6  A    between atoms: C_25  and  C_26
REMARK                            x       y       z     vdW  Elec       q    Type
REMARK                         _______ _______ _______ _____ _____    ______ ____
ROOT
ATOM      1  C   UNL     1       4.819  -6.106   0.009  0.00  0.00    +0.034 A 
ATOM      2  C   UNL     1       6.156  -6.474   0.087  0.00  0.00    +0.025 A 
ATOM      3  C   UNL     1       6.501  -7.809   0.154  0.00  0.00    +0.025 A 
ATOM      4  C   UNL     1       5.511  -8.784   0.145  0.00  0.00    +0.035 A 
ATOM      5  C   UNL     1       4.175  -8.415   0.067  0.00  0.00    +0.025 A 
ATOM      6  C   UNL     1       3.829  -7.080   0.005  0.00  0.00    +0.025 A 
ENDROOT
BRANCH   4   7
ATOM      7  N   UNL     1       5.861 -10.139   0.213  0.00  0.00    -0.269 N 
ATOM      8  C   UNL     1       5.138 -11.056  -0.458  0.00  0.00    +0.304 C 
ATOM      9  O   UNL     1       4.133 -10.720  -1.055  0.00  0.00    -0.252 OA
ATOM     10  N   UNL     1       5.528 -12.346  -0.468  0.00  0.00    -0.292 N 
ATOM     11  H   UNL     1       6.624 -10.416   0.744  0.00  0.00    +0.156 HD
ATOM     12  H   UNL     1       6.330 -12.614   0.008  0.00  0.00    +0.151 HD
BRANCH  10  13
ATOM     13  C   UNL     1       4.742 -13.344  -1.198  0.00  0.00    +0.180 C 
BRANCH  13  14
ATOM     14  C   UNL     1       5.388 -14.697  -1.052  0.00  0.00    +0.122 A 
ATOM     15  C   UNL     1       5.127 -15.593  -0.083  0.00  0.00    +0.046 A 
ATOM     16  C   UNL     1       5.951 -16.715  -0.329  0.00  0.00    +0.041 A 
ATOM     17  C   UNL     1       6.667 -16.438  -1.433  0.00  0.00    +0.195 A 
ATOM     18  O   UNL     1       6.317 -15.217  -1.870  0.00  0.00    -0.466 OA
ENDBRANCH  13  14
ENDBRANCH  10  13
ENDBRANCH   4   7
BRANCH   1  21
ATOM     19  C   UNL     1       3.348  -4.314   0.548  0.00  0.00    +0.267 C 
ATOM     20  O   UNL     1       2.597  -5.107   1.083  0.00  0.00    -0.268 OA
ATOM     21  N   UNL     1       4.469  -4.751  -0.059  0.00  0.00    -0.280 N 
ATOM     22  H   UNL     1       5.034  -4.128  -0.543  0.00  0.00    +0.155 HD
BRANCH  19  25
ATOM     23  C   UNL     1       3.524  -0.722   0.020  0.00  0.00    +0.109 A 
ATOM     24  N   UNL     1       3.845  -2.003  -0.017  0.00  0.00    -0.234 NA
ATOM     25  C   UNL     1       3.033  -2.875   0.564  0.00  0.00    +0.133 A 
ATOM     26  C   UNL     1       1.896  -2.420   1.178  0.00  0.00    +0.080 A 
ATOM     27  S   UNL     1       1.992  -0.757   0.933  0.00  0.00    -0.075 S 
BRANCH  23  31
ATOM     28  C   UNL     1       5.606   2.610  -1.595  0.00  0.00    +0.000 A 
ATOM     29  C   UNL     1       4.417   2.805  -0.914  0.00  0.00    +0.001 A 
ATOM     30  C   UNL     1       3.736   1.726  -0.387  0.00  0.00    +0.010 A 
ATOM     31  C   UNL     1       4.248   0.438  -0.543  0.00  0.00    +0.007 A 
ATOM     32  C   UNL     1       5.447   0.249  -1.231  0.00  0.00    +0.010 A 
ATOM     33  C   UNL     1       6.119   1.335  -1.753  0.00  0.00    +0.001 A 
ENDBRANCH  23  31
ENDBRANCH  19  25
ENDBRANCH   1  21
TORSDOF 6
