REMARK  Name = ZINC02086074
REMARK  10 active torsions:
REMARK  status: ('A' for Active; 'I' for Inactive)
REMARK    1  A    between atoms: C_4  and  N_10
REMARK    2  A    between atoms: C_6  and  N_7
REMARK    3  A    between atoms: C_11  and  C_13
REMARK    4  A    between atoms: C_13  and  C_14
REMARK    5  A    between atoms: C_14  and  S_15
REMARK    6  A    between atoms: S_15  and  C_16
REMARK    7  A    between atoms: C_16  and  C_17
REMARK    8  A    between atoms: C_17  and  C_18
REMARK    9  A    between atoms: N_20  and  C_21
REMARK   10  A    between atoms: C_23  and  N_28
REMARK                            x       y       z     vdW  Elec       q    Type
REMARK                         _______ _______ _______ _____ _____    ______ ____
ROOT
ATOM      1  S   UNL     1      -0.876   4.042   1.582  0.00  0.00    -0.160 S 
ENDROOT
BRANCH   1   2
ATOM      2  C   UNL     1      -0.802   2.233   1.478  0.00  0.00    +0.078 C 
BRANCH   2   3
ATOM      3  C   UNL     1      -0.061   1.826   0.202  0.00  0.00    +0.107 C 
BRANCH   3   5
ATOM      4  N   UNL     1       0.611  -0.268  -0.932  0.00  0.00    -0.284 N 
ATOM      5  C   UNL     1       0.001   0.322   0.115  0.00  0.00    +0.218 C 
ATOM      6  O   UNL     1      -0.499  -0.356   0.988  0.00  0.00    -0.275 OA
ATOM      7  H   UNL     1       0.949   0.272  -1.663  0.00  0.00    +0.155 HD
BRANCH   4  11
ATOM      8  C   UNL     1       1.042  -4.411  -1.027  0.00  0.00    +0.034 A 
ATOM      9  C   UNL     1       2.032  -3.603  -1.556  0.00  0.00    +0.024 A 
ATOM     10  C   UNL     1       1.892  -2.228  -1.526  0.00  0.00    +0.062 A 
ATOM     11  C   UNL     1       0.756  -1.659  -0.964  0.00  0.00    +0.054 A 
ATOM     12  C   UNL     1      -0.233  -2.474  -0.429  0.00  0.00    +0.057 A 
ATOM     13  C   UNL     1      -0.089  -3.848  -0.468  0.00  0.00    +0.128 A 
ATOM     14 CL   UNL     1       3.135  -1.214  -2.190  0.00  0.00    -0.082 Cl
BRANCH  13  15
ATOM     15  N   UNL     1      -1.146  -4.717   0.097  0.00  0.00    +0.056 N 
ATOM     16  O   UNL     1      -1.018  -5.928   0.068  0.00  0.00    -0.126 OA
ATOM     17  O   UNL     1      -2.143  -4.222   0.590  0.00  0.00    -0.126 OA
ENDBRANCH  13  15
ENDBRANCH   4  11
ENDBRANCH   3   5
ENDBRANCH   2   3
ENDBRANCH   1   2
BRANCH   1  18
ATOM     18  C   UNL     1      -1.772   4.356   3.128  0.00  0.00    +0.078 C 
BRANCH  18  19
ATOM     19  C   UNL     1      -1.907   5.865   3.342  0.00  0.00    +0.107 C 
BRANCH  19  20
ATOM     20  C   UNL     1      -2.652   6.125   4.626  0.00  0.00    +0.218 C 
ATOM     21  O   UNL     1      -3.037   5.196   5.303  0.00  0.00    -0.275 OA
ATOM     22  N   UNL     1      -2.890   7.392   5.022  0.00  0.00    -0.284 N 
ATOM     23  H   UNL     1      -2.655   8.133   4.442  0.00  0.00    +0.155 HD
BRANCH  22  24
ATOM     24  C   UNL     1      -3.477   7.636   6.269  0.00  0.00    +0.054 A 
ATOM     25  C   UNL     1      -3.353   6.705   7.291  0.00  0.00    +0.057 A 
ATOM     26  C   UNL     1      -3.929   6.952   8.522  0.00  0.00    +0.128 A 
ATOM     27  C   UNL     1      -4.638   8.120   8.734  0.00  0.00    +0.034 A 
ATOM     28  C   UNL     1      -4.769   9.048   7.717  0.00  0.00    +0.024 A 
ATOM     29  C   UNL     1      -4.190   8.809   6.484  0.00  0.00    +0.062 A 
ATOM     30 CL   UNL     1      -4.354   9.974   5.208  0.00  0.00    -0.082 Cl
BRANCH  26  31
ATOM     31  N   UNL     1      -3.791   5.963   9.614  0.00  0.00    +0.056 N 
ATOM     32  O   UNL     1      -4.303   6.177  10.698  0.00  0.00    -0.126 OA
ATOM     33  O   UNL     1      -3.167   4.934   9.428  0.00  0.00    -0.126 OA
ENDBRANCH  26  31
ENDBRANCH  22  24
ENDBRANCH  19  20
ENDBRANCH  18  19
ENDBRANCH   1  18
TORSDOF 10
