REMARK  Name = ZINC01306423
REMARK  6 active torsions:
REMARK  status: ('A' for Active; 'I' for Inactive)
REMARK    1  A    between atoms: C_1  and  C_2
REMARK    2  A    between atoms: C_2  and  C_3
REMARK    3  A    between atoms: C_8  and  C_22
REMARK    4  A    between atoms: C_12  and  C_15
REMARK    5  A    between atoms: C_13  and  O_14
REMARK    6  A    between atoms: C_15  and  N_16
REMARK                            x       y       z     vdW  Elec       q    Type
REMARK                         _______ _______ _______ _____ _____    ______ ____
ROOT
ATOM      1  C   UNL     1      -1.412  -0.526   0.013  0.00  0.00    -0.005 A 
ATOM      2  C   UNL     1      -2.005  -0.859   1.198  0.00  0.00    +0.022 A 
ATOM      3  C   UNL     1      -3.313  -1.341   1.203  0.00  0.00    +0.065 A 
ATOM      4  C   UNL     1      -3.986  -1.727   2.459  0.00  0.00    +0.203 A 
ATOM      5  O   UNL     1      -3.530  -1.437   3.551  0.00  0.00    -0.286 OA
ATOM      6  C   UNL     1      -5.244  -2.486   2.311  0.00  0.00    +0.099 A 
ATOM      7  C   UNL     1      -5.818  -2.542   1.076  0.00  0.00    +0.211 A 
ATOM      8  O   UNL     1      -5.298  -1.932   0.011  0.00  0.00    -0.462 OA
ATOM      9  C   UNL     1      -4.029  -1.480   0.001  0.00  0.00    +0.143 A 
ATOM     10  C   UNL     1      -3.410  -1.140  -1.194  0.00  0.00    +0.021 A 
ATOM     11  C   UNL     1      -2.110  -0.660  -1.185  0.00  0.00    +0.125 A 
ENDROOT
BRANCH   6  12
ATOM     12  C   UNL     1      -5.862  -3.164   3.467  0.00  0.00    +0.146 A 
ATOM     13  N   UNL     1      -7.021  -3.893   3.426  0.00  0.00    -0.338 N 
ATOM     14  H   UNL     1      -7.573  -4.053   2.644  0.00  0.00    +0.167 HD
ATOM     15  C   UNL     1      -7.256  -4.359   4.706  0.00  0.00    +0.066 A 
ATOM     16  C   UNL     1      -8.253  -5.136   5.280  0.00  0.00    +0.028 A 
ATOM     17  C   UNL     1      -8.198  -5.432   6.626  0.00  0.00    +0.002 A 
ATOM     18  C   UNL     1      -7.155  -4.960   7.409  0.00  0.00    +0.002 A 
ATOM     19  C   UNL     1      -6.165  -4.193   6.861  0.00  0.00    +0.030 A 
ATOM     20  C   UNL     1      -6.199  -3.880   5.499  0.00  0.00    +0.089 A 
ATOM     21  N   UNL     1      -5.381  -3.165   4.687  0.00  0.00    -0.228 NA
ENDBRANCH   6  12
BRANCH   1  23
ATOM     22  C   UNL     1      -0.019   1.526   0.010  0.00  0.00    +0.009 C 
ATOM     23  C   UNL     1       0.002  -0.004   0.002  0.00  0.00    +0.035 C 
ENDBRANCH   1  23
BRANCH  11  24
ATOM     24  O   UNL     1      -1.510  -0.324  -2.355  0.00  0.00    -0.506 OA
ATOM     25  H   UNL     1      -1.034  -1.052  -2.776  0.00  0.00    +0.292 HD
ENDBRANCH  11  24
BRANCH  10  26
ATOM     26  C   UNL     1      -4.151  -1.287  -2.498  0.00  0.00    -0.036 C 
BRANCH  26  27
ATOM     27  N   UNL     1      -4.865  -0.038  -2.798  0.00  0.00    +0.383 N 
ATOM     28  C   UNL     1      -5.896   0.191  -1.778  0.00  0.00    -0.078 C 
ATOM     29  C   UNL     1      -6.589   1.530  -2.040  0.00  0.00    -0.019 C 
ATOM     30  C   UNL     1      -7.238   1.501  -3.427  0.00  0.00    -0.004 C 
ATOM     31  C   UNL     1      -6.166   1.187  -4.475  0.00  0.00    -0.019 C 
ATOM     32  C   UNL     1      -5.489  -0.139  -4.123  0.00  0.00    -0.078 C 
ATOM     33  H   UNL     1      -4.213   0.731  -2.792  0.00  0.00    -0.081 HD
ENDBRANCH  26  27
ENDBRANCH  10  26
TORSDOF 5
