REMARK  Name = ZINC08791831
REMARK  15 active torsions:
REMARK  status: ('A' for Active; 'I' for Inactive)
REMARK    1  A    between atoms: C_1  and  C_2
REMARK    2  A    between atoms: C_2  and  C_3
REMARK    3  A    between atoms: C_3  and  C_5
REMARK    4  A    between atoms: C_3  and  N_6
REMARK    5  A    between atoms: C_7  and  C_9
REMARK    6  A    between atoms: C_9  and  C_10
REMARK    7  A    between atoms: C_10  and  C_11
REMARK    8  A    between atoms: C_11  and  O_13
REMARK    9  A    between atoms: O_13  and  C_14
REMARK   10  A    between atoms: C_14  and  C_15
REMARK   11  A    between atoms: C_15  and  C_17
REMARK   12  A    between atoms: C_17  and  O_42
REMARK   13  A    between atoms: C_22  and  C_41
REMARK   14  A    between atoms: C_24  and  O_40
REMARK   15  A    between atoms: C_38  and  C_39
REMARK                            x       y       z     vdW  Elec       q    Type
REMARK                         _______ _______ _______ _____ _____    ______ ____
ROOT
ATOM      1  C   UNL     1      -7.964   0.160   7.857  0.00  0.00    +0.133 C 
ATOM      2  C   UNL     1      -9.213   1.007   7.508  0.00  0.00    +0.043 C 
ATOM      3  C   UNL     1     -10.413   0.343   8.235  0.00  0.00    +0.008 C 
ATOM      4  C   UNL     1      -9.736  -0.598   9.245  0.00  0.00    +0.002 C 
ATOM      5  C   UNL     1      -8.552  -1.151   8.424  0.00  0.00    +0.009 C 
ATOM      6  C   UNL     1      -7.609  -1.928   9.305  0.00  0.00    +0.041 C 
ATOM      7  C   UNL     1      -8.371  -2.686  10.402  0.00  0.00    +0.119 C 
ATOM      8  C   UNL     1      -9.806  -2.986   9.991  0.00  0.00    +0.031 C 
ATOM      9  C   UNL     1     -10.593  -1.684   9.824  0.00  0.00    -0.001 C 
ATOM     10  C   UNL     1     -11.888  -1.918   9.060  0.00  0.00    +0.008 C 
ATOM     11  C   UNL     1     -12.555  -3.207   9.546  0.00  0.00    +0.032 C 
ATOM     12  C   UNL     1     -12.008  -3.568  10.907  0.00  0.00    -0.060 C 
ATOM     13  C   UNL     1     -12.823  -3.643  11.953  0.00  0.00    +0.046 C 
ATOM     14  C   UNL     1     -12.327  -3.991  13.282  0.00  0.00    +0.156 C 
ATOM     15  O   UNL     1     -13.102  -4.089  14.211  0.00  0.00    -0.293 OA
ATOM     16  C   UNL     1     -10.855  -4.226  13.501  0.00  0.00    +0.080 C 
ATOM     17  C   UNL     1     -10.053  -3.466  12.442  0.00  0.00    +0.019 C 
ATOM     18  C   UNL     1     -10.527  -3.841  11.044  0.00  0.00    -0.005 C 
ATOM     19  C   UNL     1     -10.266  -5.323  10.765  0.00  0.00    +0.016 C 
ATOM     20  C   UNL     1      -9.008  -1.994   7.232  0.00  0.00    +0.015 C 
ENDROOT
BRANCH   1  21
ATOM     21  C   UNL     1      -7.159  -0.132   6.622  0.00  0.00    +0.202 C 
ATOM     22  O   UNL     1      -7.684  -0.085   5.535  0.00  0.00    -0.291 OA
BRANCH  21  23
ATOM     23  C   UNL     1      -5.698  -0.482   6.739  0.00  0.00    +0.309 C 
BRANCH  23  24
ATOM     24  O   UNL     1      -5.149  -0.718   5.416  0.00  0.00    -0.457 OA
BRANCH  24  25
ATOM     25  C   UNL     1      -3.849  -1.043   5.345  0.00  0.00    +0.308 C 
ATOM     26  O   UNL     1      -3.191  -1.128   6.355  0.00  0.00    -0.251 OA
BRANCH  25  27
ATOM     27  C   UNL     1      -3.209  -1.301   4.005  0.00  0.00    +0.130 C 
BRANCH  27  28
ATOM     28  C   UNL     1      -1.732  -1.649   4.204  0.00  0.00    +0.107 C 
BRANCH  28  30
ATOM     29  N   UNL     1       0.213  -2.235   2.793  0.00  0.00    -0.313 N 
ATOM     30  C   UNL     1      -1.092  -1.908   2.864  0.00  0.00    +0.214 C 
ATOM     31  O   UNL     1      -1.752  -1.823   1.851  0.00  0.00    -0.276 OA
ATOM     32  H   UNL     1       0.741  -2.303   3.604  0.00  0.00    +0.149 HD
BRANCH  29  33
ATOM     33  C   UNL     1       0.835  -2.486   1.491  0.00  0.00    +0.070 C 
ATOM     34  C   UNL     1       1.284  -1.159   0.875  0.00  0.00    +0.028 C 
BRANCH  33  36
ATOM     35  C   UNL     1       1.585  -4.770   2.171  0.00  0.00    +0.005 C 
ATOM     36  C   UNL     1       2.049  -3.400   1.673  0.00  0.00    +0.018 C 
ENDBRANCH  33  36
ENDBRANCH  29  33
ENDBRANCH  28  30
ENDBRANCH  27  28
ENDBRANCH  25  27
ENDBRANCH  24  25
ENDBRANCH  23  24
ENDBRANCH  21  23
ENDBRANCH   1  21
BRANCH   7  37
ATOM     37  O   UNL     1      -7.668  -3.904  10.674  0.00  0.00    -0.391 OA
ATOM     38  H   UNL     1      -6.747  -3.776  10.941  0.00  0.00    +0.210 HD
ENDBRANCH   7  37
BRANCH   1  39
ATOM     39  O   UNL     1      -7.173   0.816   8.842  0.00  0.00    -0.380 OA
ATOM     40  H   UNL     1      -6.798   1.657   8.549  0.00  0.00    +0.211 HD
ENDBRANCH   1  39
TORSDOF 11
