REMARK  Name = ZINC12497965
REMARK  13 active torsions:
REMARK  status: ('A' for Active; 'I' for Inactive)
REMARK    1  A    between atoms: C_1  and  C_2
REMARK    2  A    between atoms: C_2  and  C_3
REMARK    3  A    between atoms: C_3  and  C_4
REMARK    4  A    between atoms: C_4  and  C_36
REMARK    5  A    between atoms: C_9  and  C_11
REMARK    6  A    between atoms: C_14  and  O_19
REMARK    7  A    between atoms: C_16  and  O_17
REMARK    8  A    between atoms: O_17  and  C_18
REMARK    9  A    between atoms: O_19  and  C_20
REMARK   10  A    between atoms: N_23  and  C_26
REMARK   11  A    between atoms: C_36  and  O_38
REMARK   12  A    between atoms: O_38  and  C_39
REMARK   13  A    between atoms: C_39  and  C_40
REMARK                            x       y       z     vdW  Elec       q    Type
REMARK                         _______ _______ _______ _____ _____    ______ ____
ROOT
ATOM      1  C   UNL     1       1.935   0.758   1.263  0.00  0.00    +0.044 C 
ATOM      2  C   UNL     1       1.433   1.478   0.013  0.00  0.00    +0.086 C 
ATOM      3  C   UNL     1      -0.085   1.046   0.117  0.00  0.00    +0.077 C 
ATOM      4  C   UNL     1      -0.391   1.373   1.521  0.00  0.00    -0.023 C 
ATOM      5  C   UNL     1      -0.559   1.346  -1.213  0.00  0.00    +0.229 C 
ATOM      6  O   UNL     1      -1.652   1.762  -1.532  0.00  0.00    -0.275 OA
ATOM      7  N   UNL     1       0.501   1.055  -2.036  0.00  0.00    -0.210 N 
ATOM      8  C   UNL     1       1.670   0.885  -1.350  0.00  0.00    +0.229 C 
ATOM      9  O   UNL     1       2.688   0.364  -1.755  0.00  0.00    -0.275 OA
ATOM     10  N   UNL     1       0.808   0.836   2.231  0.00  0.00    +0.395 N 
ATOM     11  H   UNL     1       1.060   1.461   3.005  0.00  0.00    -0.083 HD
ATOM     12  H   UNL     1       0.602  -0.100   2.599  0.00  0.00    -0.083 HD
ENDROOT
BRANCH   7  13
ATOM     13  C   UNL     1       0.395   0.946  -3.431  0.00  0.00    +0.048 A 
ATOM     14  C   UNL     1       1.518   0.649  -4.191  0.00  0.00    +0.028 A 
ATOM     15  C   UNL     1       1.414   0.543  -5.565  0.00  0.00    +0.051 A 
ATOM     16  C   UNL     1       0.190   0.732  -6.188  0.00  0.00    +0.162 A 
ATOM     17  C   UNL     1      -0.937   1.027  -5.429  0.00  0.00    +0.164 A 
ATOM     18  C   UNL     1      -0.833   1.129  -4.050  0.00  0.00    +0.073 A 
ATOM     19  O   UNL     1      -2.148   1.209  -6.021  0.00  0.00    -0.485 OA
ATOM     20  C   UNL     1      -2.144   1.466  -7.430  0.00  0.00    +0.270 C 
ATOM     21  C   UNL     1      -1.200   0.457  -8.099  0.00  0.00    +0.270 C 
ATOM     22  O   UNL     1       0.108   0.630  -7.543  0.00  0.00    -0.485 OA
ENDBRANCH   7  13
BRANCH   4  23
ATOM     23  C   UNL     1      -1.651   0.680   1.972  0.00  0.00    -0.019 A 
ATOM     24  C   UNL     1      -1.570  -0.481   2.718  0.00  0.00    +0.009 A 
ATOM     25  C   UNL     1      -2.723  -1.116   3.137  0.00  0.00    +0.046 A 
ATOM     26  C   UNL     1      -3.965  -0.596   2.802  0.00  0.00    +0.124 A 
ATOM     27  C   UNL     1      -4.048   0.566   2.050  0.00  0.00    +0.091 A 
ATOM     28  C   UNL     1      -2.890   1.204   1.635  0.00  0.00    +0.125 A 
BRANCH  28  29
ATOM     29  O   UNL     1      -2.968   2.344   0.897  0.00  0.00    -0.495 OA
ATOM     30  C   UNL     1      -4.277   2.826   0.587  0.00  0.00    +0.277 C 
ENDBRANCH  28  29
BRANCH  26  31
ATOM     31  O   UNL     1      -5.099  -1.224   3.211  0.00  0.00    -0.495 OA
ATOM     32  C   UNL     1      -4.938  -2.416   3.983  0.00  0.00    +0.277 C 
ENDBRANCH  26  31
ENDBRANCH   4  23
BRANCH   1  33
ATOM     33  C   UNL     1       2.254  -0.680   0.945  0.00  0.00    +0.297 C 
ATOM     34  O   UNL     1       3.380  -0.995   0.639  0.00  0.00    -0.252 OA
BRANCH  33  35
ATOM     35  O   UNL     1       1.289  -1.611   1.002  0.00  0.00    -0.466 OA
BRANCH  35  36
ATOM     36  C   UNL     1       1.669  -2.975   0.682  0.00  0.00    +0.228 C 
ATOM     37  C   UNL     1       0.445  -3.886   0.800  0.00  0.00    +0.048 C 
ENDBRANCH  35  36
ENDBRANCH  33  35
ENDBRANCH   1  33
BRANCH   1  38
ATOM     38  C   UNL     1       3.172   1.464   1.821  0.00  0.00    -0.001 C 
BRANCH  38  40
ATOM     39  C   UNL     1       4.896   1.436   3.628  0.00  0.00    +0.004 C 
ATOM     40  C   UNL     1       3.659   0.729   3.071  0.00  0.00    -0.004 C 
ENDBRANCH  38  40
ENDBRANCH   1  38
TORSDOF 9
