REMARK  Name = ZINC13346563
REMARK  8 active torsions:
REMARK  status: ('A' for Active; 'I' for Inactive)
REMARK    1  A    between atoms: C_1  and  C_2
REMARK    2  A    between atoms: C_2  and  C_4
REMARK    3  A    between atoms: C_2  and  N_26
REMARK    4  A    between atoms: C_6  and  C_9
REMARK    5  A    between atoms: C_12  and  N_15
REMARK    6  A    between atoms: N_15  and  S_16
REMARK    7  A    between atoms: S_16  and  C_19
REMARK    8  A    between atoms: C_27  and  C_29
REMARK                            x       y       z     vdW  Elec       q    Type
REMARK                         _______ _______ _______ _____ _____    ______ ____
ROOT
ATOM      1  C   UNL     1       4.112  -1.931  -4.276  0.00  0.00    +0.023 A 
ATOM      2  C   UNL     1       3.461  -3.161  -4.350  0.00  0.00    +0.013 A 
ATOM      3  C   UNL     1       2.468  -3.470  -3.446  0.00  0.00    +0.025 A 
ATOM      4  C   UNL     1       2.116  -2.555  -2.459  0.00  0.00    +0.048 A 
ATOM      5  C   UNL     1       2.760  -1.325  -2.387  0.00  0.00    +0.025 A 
ATOM      6  C   UNL     1       3.758  -1.015  -3.286  0.00  0.00    +0.013 A 
ENDROOT
BRANCH   1   9
ATOM      7  C   UNL     1       6.719  -0.586  -6.302  0.00  0.00    +0.248 A 
ATOM      8  N   UNL     1       5.891  -0.446  -5.297  0.00  0.00    -0.190 NA
ATOM      9  C   UNL     1       5.182  -1.596  -5.248  0.00  0.00    +0.202 A 
ATOM     10  N   UNL     1       5.612  -2.357  -6.221  0.00  0.00    -0.056 NA
ATOM     11  O   UNL     1       6.493  -1.792  -6.834  0.00  0.00    -0.336 OA
BRANCH   7  13
ATOM     12  C   UNL     1       9.133  -0.023  -6.351  0.00  0.00    +0.038 C 
ATOM     13  C   UNL     1       7.732   0.424  -6.774  0.00  0.00    +0.159 C 
BRANCH  13  14
ATOM     14  N   UNL     1       7.674   0.530  -8.234  0.00  0.00    -0.298 N 
ATOM     15  C   UNL     1       8.079   1.661  -8.845  0.00  0.00    +0.280 C 
ATOM     16  O   UNL     1       8.493   2.595  -8.184  0.00  0.00    -0.267 OA
ATOM     17  H   UNL     1       7.343  -0.215  -8.761  0.00  0.00    +0.150 HD
BRANCH  15  18
ATOM     18  C   UNL     1       8.020   1.766 -10.307  0.00  0.00    +0.189 A 
ATOM     19  C   UNL     1       8.396   2.849 -11.049  0.00  0.00    +0.054 A 
ATOM     20  C   UNL     1       8.172   2.514 -12.393  0.00  0.00    +0.042 A 
ATOM     21  C   UNL     1       7.675   1.257 -12.413  0.00  0.00    +0.196 A 
ATOM     22  O   UNL     1       7.589   0.808 -11.154  0.00  0.00    -0.458 OA
ENDBRANCH  15  18
ENDBRANCH  13  14
ENDBRANCH   7  13
ENDBRANCH   1   9
BRANCH   4  23
ATOM     23  N   UNL     1       1.111  -2.870  -1.545  0.00  0.00    -0.216 N 
ATOM     24  H   UNL     1       0.238  -2.453  -1.621  0.00  0.00    +0.174 HD
BRANCH  23  25
ATOM     25  S   UNL     1       1.408  -3.954  -0.329  0.00  0.00    +0.072 S 
ATOM     26  O   UNL     1       1.972  -5.106  -0.941  0.00  0.00    -0.150 OA
ATOM     27  O   UNL     1       0.228  -4.012   0.461  0.00  0.00    -0.150 OA
BRANCH  25  28
ATOM     28  C   UNL     1       2.665  -3.261   0.693  0.00  0.00    +0.109 A 
ATOM     29  C   UNL     1       2.326  -2.375   1.699  0.00  0.00    +0.030 A 
ATOM     30  C   UNL     1       3.312  -1.831   2.501  0.00  0.00    +0.022 A 
ATOM     31  C   UNL     1       4.637  -2.172   2.296  0.00  0.00    +0.041 A 
ATOM     32  C   UNL     1       4.975  -3.058   1.288  0.00  0.00    +0.022 A 
ATOM     33  C   UNL     1       3.989  -3.602   0.487  0.00  0.00    +0.030 A 
ATOM     34 CL   UNL     1       5.875  -1.489   3.303  0.00  0.00    -0.084 Cl
ENDBRANCH  25  28
ENDBRANCH  23  25
ENDBRANCH   4  23
TORSDOF 7
