REMARK  Name = ZINC60926408
REMARK  5 active torsions:
REMARK  status: ('A' for Active; 'I' for Inactive)
REMARK    1  A    between atoms: C_1  and  C_2
REMARK    2  A    between atoms: C_3  and  C_10
REMARK    3  A    between atoms: C_4  and  C_7
REMARK    4  A    between atoms: C_7  and  C_8
REMARK    5  A    between atoms: C_7  and  C_9
REMARK                            x       y       z     vdW  Elec       q    Type
REMARK                         _______ _______ _______ _____ _____    ______ ____
ROOT
ATOM      1  C   UNL     1      -0.005  -0.429  -2.587  0.00  0.00    +0.255 C 
ATOM      2  O   UNL     1       1.043  -0.234  -3.173  0.00  0.00    -0.270 OA
ATOM      3  N   UNL     1      -1.178  -0.245  -3.225  0.00  0.00    -0.260 N 
ATOM      4  C   UNL     1      -1.191   0.166  -4.547  0.00  0.00    +0.166 A 
ATOM      5  N   UNL     1      -0.176   0.419  -5.340  0.00  0.00    -0.224 NA
ATOM      6  C   UNL     1      -0.337   0.817  -6.622  0.00  0.00    +0.084 A 
ATOM      7  C   UNL     1       0.667   1.121  -7.572  0.00  0.00    +0.078 A 
ATOM      8  C   UNL     1       0.332   1.516  -8.846  0.00  0.00    +0.164 A 
ATOM      9  C   UNL     1      -1.000   1.624  -9.237  0.00  0.00    +0.163 A 
ATOM     10  C   UNL     1      -2.007   1.337  -8.334  0.00  0.00    +0.066 A 
ATOM     11  C   UNL     1      -1.675   0.943  -7.059  0.00  0.00    +0.044 A 
ATOM     12  S   UNL     1      -2.593   0.479  -5.611  0.00  0.00    -0.052 S 
ATOM     13  O   UNL     1      -1.304   2.010 -10.510  0.00  0.00    -0.488 OA
ATOM     14  C   UNL     1      -0.997   3.366 -10.841  0.00  0.00    +0.232 C 
ATOM     15  C   UNL     1       0.457   3.500 -11.265  0.00  0.00    +0.082 C 
ATOM     16  C   UNL     1       1.421   3.181 -10.133  0.00  0.00    +0.232 C 
ATOM     17  O   UNL     1       1.318   1.811  -9.746  0.00  0.00    -0.488 OA
ATOM     18  H   UNL     1      -2.014  -0.401  -2.757  0.00  0.00    +0.157 HD
ENDROOT
BRANCH   1  21
ATOM     19  C   UNL     1      -0.018   1.503   0.010  0.00  0.00    +0.070 C 
ATOM     20  C   UNL     1       0.002  -0.004   0.002  0.00  0.00    +0.093 A 
ATOM     21  C   UNL     1       0.009  -0.867  -1.181  0.00  0.00    +0.102 A 
ATOM     22  C   UNL     1       0.029  -2.156  -0.729  0.00  0.00    +0.152 A 
ATOM     23  O   UNL     1       0.035  -2.126   0.606  0.00  0.00    -0.358 OA
ATOM     24  N   UNL     1       0.023  -0.782   1.044  0.00  0.00    -0.083 NA
BRANCH  22  25
ATOM     25  C   UNL     1       0.042  -3.395  -1.587  0.00  0.00    +0.052 C 
ATOM     26  C   UNL     1       1.304  -4.207  -1.291  0.00  0.00    +0.015 C 
ATOM     27  C   UNL     1      -1.194  -4.242  -1.278  0.00  0.00    +0.015 C 
ENDBRANCH  22  25
ENDBRANCH   1  21
TORSDOF 2
