REMARK  Name = ZINC09631623
REMARK  8 active torsions:
REMARK  status: ('A' for Active; 'I' for Inactive)
REMARK    1  A    between atoms: C_1  and  N_2
REMARK    2  A    between atoms: N_2  and  C_3
REMARK    3  A    between atoms: C_3  and  N_5
REMARK    4  A    between atoms: N_5  and  C_6
REMARK    5  A    between atoms: C_8  and  S_17
REMARK    6  A    between atoms: C_11  and  N_12
REMARK    7  A    between atoms: S_17  and  N_20
REMARK    8  A    between atoms: N_20  and  C_21
REMARK                            x       y       z     vdW  Elec       q    Type
REMARK                         _______ _______ _______ _____ _____    ______ ____
ROOT
ATOM      1  C   UNL     1      -2.364  -2.713   0.103  0.00  0.00    +0.056 A 
ATOM      2  C   UNL     1      -3.551  -1.996   0.104  0.00  0.00    +0.054 A 
ATOM      3  C   UNL     1      -4.759  -2.661   0.203  0.00  0.00    +0.112 A 
ATOM      4  C   UNL     1      -4.788  -4.040   0.300  0.00  0.00    +0.031 A 
ATOM      5  C   UNL     1      -3.610  -4.762   0.300  0.00  0.00    +0.027 A 
ATOM      6  C   UNL     1      -2.393  -4.104   0.196  0.00  0.00    +0.051 A 
ENDROOT
BRANCH   6   7
ATOM      7  N   UNL     1      -1.199  -4.833   0.189  0.00  0.00    -0.328 N 
ATOM      8  C   UNL     1      -0.417  -5.207   1.377  0.00  0.00    +0.105 C 
ATOM      9  C   UNL     1       0.826  -5.978   0.883  0.00  0.00    +0.020 C 
ATOM     10  C   UNL     1       0.966  -5.505  -0.589  0.00  0.00    +0.020 C 
ATOM     11  C   UNL     1      -0.521  -5.360  -1.009  0.00  0.00    +0.105 C 
ENDBRANCH   6   7
BRANCH   3  12
ATOM     12  S   UNL     1      -6.266  -1.748   0.206  0.00  0.00    +0.092 S 
ATOM     13  O   UNL     1      -7.232  -2.561   0.857  0.00  0.00    -0.148 OA
ATOM     14  O   UNL     1      -5.946  -0.438   0.653  0.00  0.00    -0.148 OA
BRANCH  12  15
ATOM     15  N   UNL     1      -6.753  -1.603  -1.370  0.00  0.00    -0.096 NA
BRANCH  15  16
ATOM     16  C   UNL     1      -7.933  -0.918  -1.677  0.00  0.00    +0.094 A 
ATOM     17  C   UNL     1      -8.693  -0.354  -0.662  0.00  0.00    +0.048 A 
ATOM     18  C   UNL     1      -9.859   0.323  -0.969  0.00  0.00    +0.043 A 
ATOM     19  C   UNL     1     -10.268   0.437  -2.286  0.00  0.00    +0.021 A 
ATOM     20  C   UNL     1      -9.513  -0.124  -3.299  0.00  0.00    +0.023 A 
ATOM     21  C   UNL     1      -8.343  -0.796  -2.999  0.00  0.00    +0.065 A 
ATOM     22 CL   UNL     1      -7.392  -1.495  -4.273  0.00  0.00    -0.082 Cl
ATOM     23 CL   UNL     1     -10.811   1.030   0.299  0.00  0.00    -0.083 Cl
ENDBRANCH  15  16
ENDBRANCH  12  15
ENDBRANCH   3  12
BRANCH   1  24
ATOM     24  N   UNL     1      -1.137  -2.041   0.002  0.00  0.00    -0.295 N 
ATOM     25  H   UNL     1      -0.397  -2.295   0.576  0.00  0.00    +0.154 HD
BRANCH  24  26
ATOM     26  C   UNL     1      -0.987  -1.044  -0.892  0.00  0.00    +0.134 C 
ATOM     27  S   UNL     1      -2.244  -0.690  -1.999  0.00  0.00    -0.019 S 
BRANCH  26  29
ATOM     28  C   UNL     1       0.317   0.759  -1.885  0.00  0.00    +0.127 C 
ATOM     29  N   UNL     1       0.153  -0.325  -0.914  0.00  0.00    -0.329 N 
ATOM     30  H   UNL     1       0.865  -0.526  -0.287  0.00  0.00    +0.147 HD
ENDBRANCH  26  29
ENDBRANCH  24  26
ENDBRANCH   1  24
TORSDOF 7
