REMARK  Name = ZINC39710898
REMARK  12 active torsions:
REMARK  status: ('A' for Active; 'I' for Inactive)
REMARK    1  A    between atoms: C_1  and  C_2
REMARK    2  A    between atoms: C_8  and  C_14
REMARK    3  A    between atoms: C_14  and  C_16
REMARK    4  A    between atoms: C_14  and  N_26
REMARK    5  A    between atoms: N_21  and  C_22
REMARK    6  A    between atoms: C_22  and  C_23
REMARK    7  A    between atoms: C_22  and  C_24
REMARK    8  A    between atoms: C_22  and  C_25
REMARK    9  A    between atoms: N_26  and  C_27
REMARK   10  A    between atoms: N_26  and  C_34
REMARK   11  A    between atoms: C_27  and  C_28
REMARK   12  A    between atoms: C_34  and  C_35
REMARK                            x       y       z     vdW  Elec       q    Type
REMARK                         _______ _______ _______ _____ _____    ______ ____
ROOT
ATOM      1  C   UNL     1      -1.122  -2.627   4.401  0.00  0.00    -0.008 C 
ENDROOT
BRANCH   1   9
ATOM      2  C   UNL     1       0.212   0.291  -0.831  0.00  0.00    +0.045 C 
ATOM      3  C   UNL     1       0.092  -1.176  -0.510  0.00  0.00    -0.029 A 
ATOM      4  C   UNL     1      -0.019  -2.080  -1.518  0.00  0.00    +0.005 A 
ATOM      5  C   UNL     1      -0.133  -3.451  -1.290  0.00  0.00    +0.001 A 
ATOM      6  C   UNL     1      -0.138  -3.961  -0.032  0.00  0.00    +0.009 A 
ATOM      7  C   UNL     1      -0.021  -3.043   1.102  0.00  0.00    -0.007 A 
ATOM      8  C   UNL     1      -0.022  -3.510   2.383  0.00  0.00    -0.006 C 
ATOM      9  C   UNL     1       0.103  -2.487   3.495  0.00  0.00    +0.088 C 
ATOM     10  C   UNL     1       0.218  -1.034   3.093  0.00  0.00    +0.223 C 
ATOM     11  O   UNL     1       0.321  -0.171   3.945  0.00  0.00    -0.275 OA
ATOM     12  N   UNL     1       0.207  -0.704   1.813  0.00  0.00    -0.284 N 
ATOM     13  C   UNL     1       0.103  -1.600   0.831  0.00  0.00    +0.043 A 
ATOM     14  H   UNL     1       0.282   0.233   1.576  0.00  0.00    +0.155 HD
ENDBRANCH   1   9
BRANCH   1  15
ATOM     15  C   UNL     1      -2.377  -2.213   3.630  0.00  0.00    +0.205 C 
ATOM     16  N   UNL     1      -2.407  -0.756   3.445  0.00  0.00    -0.152 NA
ATOM     17  N   UNL     1      -3.410  -0.303   4.000  0.00  0.00    -0.070 NA
ATOM     18  N   UNL     1      -4.181  -1.289   4.615  0.00  0.00    -0.179 N 
ATOM     19  N   UNL     1      -3.590  -2.513   4.419  0.00  0.00    -0.183 NA
ATOM     20  H   UNL     1      -5.005  -1.135   5.102  0.00  0.00    +0.191 HD
BRANCH  19  21
ATOM     21  C   UNL     1      -4.483  -3.421   3.687  0.00  0.00    +0.035 C 
ATOM     22  C   UNL     1      -3.725  -4.700   3.325  0.00  0.00    +0.029 C 
ATOM     23  C   UNL     1      -5.686  -3.772   4.565  0.00  0.00    +0.029 C 
ATOM     24  C   UNL     1      -4.969  -2.736   2.408  0.00  0.00    +0.029 C 
ENDBRANCH  19  21
ENDBRANCH   1  15
BRANCH   1  25
ATOM     25  N   UNL     1      -0.962  -1.762   5.578  0.00  0.00    +0.392 N 
ATOM     26  H   UNL     1      -0.979  -0.795   5.289  0.00  0.00    -0.080 HD
BRANCH  25  27
ATOM     27  C   UNL     1       0.320  -2.056   6.231  0.00  0.00    -0.042 C 
BRANCH  27  28
ATOM     28  C   UNL     1       0.350  -3.503   6.652  0.00  0.00    -0.064 A 
ATOM     29  C   UNL     1      -0.226  -3.886   7.849  0.00  0.00    +0.002 A 
ATOM     30  C   UNL     1      -0.199  -5.213   8.236  0.00  0.00    +0.000 A 
ATOM     31  C   UNL     1       0.403  -6.157   7.425  0.00  0.00    +0.000 A 
ATOM     32  C   UNL     1       0.978  -5.774   6.228  0.00  0.00    +0.000 A 
ATOM     33  C   UNL     1       0.947  -4.447   5.839  0.00  0.00    +0.002 A 
ENDBRANCH  27  28
ENDBRANCH  25  27
BRANCH  25  34
ATOM     34  C   UNL     1      -2.060  -2.011   6.521  0.00  0.00    -0.002 C 
BRANCH  34  35
ATOM     35  C   UNL     1      -1.955  -1.052   7.679  0.00  0.00    +0.089 A 
ATOM     36  C   UNL     1      -2.601   0.122   7.789  0.00  0.00    +0.042 A 
ATOM     37  C   UNL     1      -2.212   0.690   9.025  0.00  0.00    +0.041 A 
ATOM     38  C   UNL     1      -1.351  -0.172   9.595  0.00  0.00    +0.195 A 
ATOM     39  O   UNL     1      -1.204  -1.228   8.778  0.00  0.00    -0.470 OA
ENDBRANCH  34  35
ENDBRANCH  25  34
ENDBRANCH   1  25
TORSDOF 8
