REMARK  Name = ZINC34978893
REMARK  14 active torsions:
REMARK  status: ('A' for Active; 'I' for Inactive)
REMARK    1  A    between atoms: C_1  and  C_2
REMARK    2  A    between atoms: C_2  and  C_3
REMARK    3  A    between atoms: C_3  and  C_4
REMARK    4  A    between atoms: C_4  and  N_5
REMARK    5  A    between atoms: C_13  and  C_15
REMARK    6  A    between atoms: C_16  and  C_18
REMARK    7  A    between atoms: C_18  and  C_20
REMARK    8  A    between atoms: C_18  and  N_27
REMARK    9  A    between atoms: C_20  and  C_21
REMARK   10  A    between atoms: C_28  and  C_30
REMARK   11  A    between atoms: C_33  and  C_36
REMARK   12  A    between atoms: C_36  and  C_37
REMARK   13  A    between atoms: C_36  and  C_38
REMARK   14  A    between atoms: C_36  and  C_39
REMARK                            x       y       z     vdW  Elec       q    Type
REMARK                         _______ _______ _______ _____ _____    ______ ____
ROOT
ATOM      1  C   UNL     1       3.326  -4.385  -8.534  0.00  0.00    +0.164 C 
ENDROOT
BRANCH   1  12
ATOM      2  N   UNL     1       2.716  -2.669  -2.137  0.00  0.00    -0.299 N 
ATOM      3  C   UNL     1       2.642  -3.979  -2.443  0.00  0.00    +0.303 C 
ATOM      4  O   UNL     1       2.308  -4.784  -1.595  0.00  0.00    -0.253 OA
ATOM      5  N   UNL     1       2.939  -4.398  -3.690  0.00  0.00    -0.280 N 
ATOM      6  C   UNL     1       3.467  -3.458  -4.688  0.00  0.00    +0.128 C 
ATOM      7  C   UNL     1       2.567  -3.504  -5.929  0.00  0.00    +0.127 C 
ATOM      8  N   UNL     1       2.369  -4.908  -6.314  0.00  0.00    -0.297 N 
ATOM      9  C   UNL     1       1.841  -5.848  -5.315  0.00  0.00    +0.130 C 
ATOM     10  C   UNL     1       2.746  -5.803  -4.073  0.00  0.00    +0.092 C 
ATOM     11  C   UNL     1       2.081  -6.562  -2.922  0.00  0.00    +0.030 C 
ATOM     12  C   UNL     1       2.666  -5.327  -7.560  0.00  0.00    +0.236 C 
ATOM     13  O   UNL     1       2.402  -6.461  -7.898  0.00  0.00    -0.274 OA
ATOM     14  H   UNL     1       3.053  -2.036  -2.790  0.00  0.00    +0.150 HD
BRANCH   2  15
ATOM     15  C   UNL     1       2.288  -2.200  -0.817  0.00  0.00    +0.106 C 
BRANCH  15  16
ATOM     16  C   UNL     1       2.474  -0.684  -0.729  0.00  0.00    +0.018 C 
BRANCH  16  18
ATOM     17  C   UNL     1       2.212   1.321   0.738  0.00  0.00    +0.004 C 
ATOM     18  C   UNL     1       2.026  -0.195   0.650  0.00  0.00    -0.002 C 
ENDBRANCH  16  18
ENDBRANCH  15  16
ENDBRANCH   2  15
ENDBRANCH   1  12
BRANCH   1  19
ATOM     19  N   UNL     1       3.712  -5.121  -9.740  0.00  0.00    -0.300 N 
ATOM     20  C   UNL     1       4.722  -4.670 -10.510  0.00  0.00    +0.245 C 
ATOM     21  O   UNL     1       5.312  -3.652 -10.204  0.00  0.00    -0.270 OA
ATOM     22  H   UNL     1       3.241  -5.933  -9.984  0.00  0.00    +0.150 HD
BRANCH  20  23
ATOM     23  C   UNL     1       5.112  -5.413 -11.728  0.00  0.00    +0.037 A 
ATOM     24  C   UNL     1       4.432  -6.579 -12.085  0.00  0.00    +0.013 A 
ATOM     25  C   UNL     1       4.801  -7.267 -13.222  0.00  0.00    +0.005 A 
ATOM     26  C   UNL     1       5.841  -6.805 -14.008  0.00  0.00    -0.042 A 
ATOM     27  C   UNL     1       6.519  -5.650 -13.659  0.00  0.00    +0.005 A 
ATOM     28  C   UNL     1       6.157  -4.949 -12.528  0.00  0.00    +0.013 A 
BRANCH  26  29
ATOM     29  C   UNL     1       6.239  -7.562 -15.249  0.00  0.00    -0.013 C 
ATOM     30  C   UNL     1       5.049  -7.628 -16.209  0.00  0.00    +0.015 C 
ATOM     31  C   UNL     1       7.406  -6.846 -15.931  0.00  0.00    +0.015 C 
ATOM     32  C   UNL     1       6.664  -8.981 -14.866  0.00  0.00    +0.015 C 
ENDBRANCH  26  29
ENDBRANCH  20  23
ENDBRANCH   1  19
BRANCH   1  33
ATOM     33  C   UNL     1       2.347  -3.270  -8.908  0.00  0.00    +0.067 C 
BRANCH  33  34
ATOM     34  C   UNL     1       3.027  -2.295  -9.834  0.00  0.00    -0.045 A 
ATOM     35  C   UNL     1       3.711  -1.211  -9.315  0.00  0.00    +0.004 A 
ATOM     36  C   UNL     1       4.335  -0.316 -10.165  0.00  0.00    +0.000 A 
ATOM     37  C   UNL     1       4.275  -0.505 -11.533  0.00  0.00    +0.000 A 
ATOM     38  C   UNL     1       3.592  -1.589 -12.051  0.00  0.00    +0.000 A 
ATOM     39  C   UNL     1       2.972  -2.486 -11.202  0.00  0.00    +0.004 A 
ENDBRANCH  33  34
ENDBRANCH   1  33
TORSDOF 9
