REMARK  Name = ZINC20804337
REMARK  11 active torsions:
REMARK  status: ('A' for Active; 'I' for Inactive)
REMARK    1  A    between atoms: C_1  and  C_2
REMARK    2  A    between atoms: C_2  and  S_3
REMARK    3  A    between atoms: S_3  and  C_4
REMARK    4  A    between atoms: C_9  and  C_19
REMARK    5  A    between atoms: C_11  and  C_15
REMARK    6  A    between atoms: C_12  and  C_14
REMARK    7  A    between atoms: C_15  and  O_17
REMARK    8  A    between atoms: O_17  and  C_18
REMARK    9  A    between atoms: C_22  and  C_25
REMARK   10  A    between atoms: C_25  and  C_26
REMARK   11  A    between atoms: C_25  and  C_27
REMARK                            x       y       z     vdW  Elec       q    Type
REMARK                         _______ _______ _______ _____ _____    ______ ____
ROOT
ATOM      1  C   UNL     1      -3.112   1.598   2.770  0.00  0.00    +0.210 A 
ATOM      2  N   UNL     1      -2.463   2.373   3.651  0.00  0.00    -0.187 NA
ATOM      3  C   UNL     1      -3.262   2.674   4.639  0.00  0.00    +0.219 A 
ATOM      4  N   UNL     1      -4.460   2.082   4.407  0.00  0.00    -0.220 N 
ATOM      5  N   UNL     1      -4.342   1.402   3.196  0.00  0.00    -0.141 NA
ATOM      6  C   UNL     1      -5.603   2.191   5.310  0.00  0.00    +0.179 C 
ATOM      7  C   UNL     1      -5.337   3.266   6.329  0.00  0.00    +0.082 C 
ATOM      8  C   UNL     1      -4.127   3.820   6.511  0.00  0.00    +0.020 C 
ATOM      9  N   UNL     1      -3.035   3.450   5.767  0.00  0.00    -0.287 N 
ATOM     10  C   UNL     1      -3.964   4.881   7.568  0.00  0.00    +0.061 C 
ATOM     11  H   UNL     1      -2.009   3.745   6.034  0.00  0.00    +0.155 HD
ENDROOT
BRANCH   6  12
ATOM     12  C   UNL     1      -5.815   0.875   6.012  0.00  0.00    -0.018 A 
ATOM     13  C   UNL     1      -4.812   0.341   6.799  0.00  0.00    +0.006 A 
ATOM     14  C   UNL     1      -5.008  -0.864   7.447  0.00  0.00    +0.004 A 
ATOM     15  C   UNL     1      -6.205  -1.541   7.300  0.00  0.00    -0.045 A 
ATOM     16  C   UNL     1      -7.206  -1.010   6.508  0.00  0.00    +0.004 A 
ATOM     17  C   UNL     1      -7.012   0.198   5.865  0.00  0.00    +0.006 A 
BRANCH  15  18
ATOM     18  C   UNL     1      -6.417  -2.857   8.001  0.00  0.00    +0.013 C 
ATOM     19  C   UNL     1      -5.363  -3.862   7.530  0.00  0.00    +0.012 C 
ATOM     20  C   UNL     1      -6.290  -2.656   9.512  0.00  0.00    +0.012 C 
ENDBRANCH  15  18
ENDBRANCH   6  12
BRANCH   7  21
ATOM     21  C   UNL     1      -6.410   3.715   7.131  0.00  0.00    +0.339 C 
ATOM     22  O   UNL     1      -6.226   4.583   7.963  0.00  0.00    -0.245 OA
BRANCH  21  23
ATOM     23  O   UNL     1      -7.639   3.180   6.974  0.00  0.00    -0.465 OA
ATOM     24  C   UNL     1      -8.677   3.680   7.819  0.00  0.00    +0.280 C 
ENDBRANCH  21  23
ENDBRANCH   7  21
BRANCH   1  25
ATOM     25  S   UNL     1      -2.431   0.951   1.280  0.00  0.00    -0.085 S 
BRANCH  25  27
ATOM     26  C   UNL     1      -0.013   1.086   0.008  0.00  0.00    +0.016 C 
ATOM     27  C   UNL     1      -0.729   1.579   1.267  0.00  0.00    +0.074 C 
ENDBRANCH  25  27
ENDBRANCH   1  25
TORSDOF 6
