REMARK  Name = ZINC20642970
REMARK  11 active torsions:
REMARK  status: ('A' for Active; 'I' for Inactive)
REMARK    1  A    between atoms: C_1  and  C_2
REMARK    2  A    between atoms: C_2  and  C_3
REMARK    3  A    between atoms: C_3  and  C_5
REMARK    4  A    between atoms: C_3  and  N_6
REMARK    5  A    between atoms: C_7  and  C_9
REMARK    6  A    between atoms: C_9  and  S_10
REMARK    7  A    between atoms: S_10  and  C_11
REMARK    8  A    between atoms: C_21  and  C_26
REMARK    9  A    between atoms: C_26  and  C_27
REMARK   10  A    between atoms: C_27  and  C_28
REMARK   11  A    between atoms: N_30  and  C_31
REMARK                            x       y       z     vdW  Elec       q    Type
REMARK                         _______ _______ _______ _____ _____    ______ ____
ROOT
ATOM      1  C   UNL     1       0.264  -4.509  -2.599  0.00  0.00    +0.169 C 
ATOM      2  N   UNL     1       0.179  -4.941  -1.370  0.00  0.00    -0.225 NA
ATOM      3  C   UNL     1       0.169  -6.264  -1.068  0.00  0.00    +0.077 A 
ATOM      4  C   UNL     1       0.072  -6.706   0.253  0.00  0.00    +0.028 A 
ATOM      5  C   UNL     1       0.070  -8.057   0.523  0.00  0.00    +0.002 A 
ATOM      6  C   UNL     1       0.162  -8.987  -0.504  0.00  0.00    +0.001 A 
ATOM      7  C   UNL     1       0.258  -8.572  -1.816  0.00  0.00    +0.013 A 
ATOM      8  C   UNL     1       0.262  -7.212  -2.107  0.00  0.00    +0.041 A 
ATOM      9  C   UNL     1       0.364  -6.721  -3.499  0.00  0.00    +0.139 C 
ATOM     10  N   UNL     1       0.460  -7.377  -4.621  0.00  0.00    -0.255 NA
ATOM     11  C   UNL     1       0.532  -6.395  -5.712  0.00  0.00    +0.194 C 
ATOM     12  C   UNL     1       0.459  -5.058  -5.005  0.00  0.00    +0.251 C 
ATOM     13  O   UNL     1       0.484  -3.957  -5.513  0.00  0.00    -0.272 OA
ATOM     14  N   UNL     1       0.360  -5.349  -3.688  0.00  0.00    -0.200 N 
ENDROOT
BRANCH   1  15
ATOM     15  S   UNL     1       0.263  -2.769  -2.878  0.00  0.00    -0.080 S 
BRANCH  15  16
ATOM     16  C   UNL     1       0.122  -2.177  -1.174  0.00  0.00    +0.172 C 
BRANCH  16  18
ATOM     17  N   UNL     1       0.002  -0.004   0.002  0.00  0.00    -0.312 N 
ATOM     18  C   UNL     1       0.102  -0.670  -1.165  0.00  0.00    +0.224 C 
ATOM     19  O   UNL     1       0.175  -0.057  -2.209  0.00  0.00    -0.275 OA
ATOM     20  H   UNL     1      -0.064  -0.560   0.949  0.00  0.00    +0.149 HD
BRANCH  17  21
ATOM     21  C   UNL     1      -0.018   1.461   0.010  0.00  0.00    +0.070 C 
ATOM     22  C   UNL     1       1.418   1.990  -0.001  0.00  0.00    +0.028 C 
BRANCH  21  24
ATOM     23  C   UNL     1      -2.203   1.530   1.219  0.00  0.00    +0.005 C 
ATOM     24  C   UNL     1      -0.734   1.954   1.269  0.00  0.00    +0.018 C 
ENDBRANCH  21  24
ENDBRANCH  17  21
ENDBRANCH  16  18
ENDBRANCH  15  16
ENDBRANCH   1  15
BRANCH  11  25
ATOM     25  C   UNL     1       1.853  -6.532  -6.471  0.00  0.00    +0.045 C 
BRANCH  25  26
ATOM     26  C   UNL     1       1.887  -7.879  -7.196  0.00  0.00    +0.098 C 
BRANCH  26  27
ATOM     27  C   UNL     1       3.188  -8.014  -7.944  0.00  0.00    +0.213 C 
ATOM     28  O   UNL     1       4.008  -7.121  -7.901  0.00  0.00    -0.276 OA
ATOM     29  N   UNL     1       3.441  -9.128  -8.660  0.00  0.00    -0.312 N 
ATOM     30  H   UNL     1       2.698  -9.938  -8.698  0.00  0.00    +0.149 HD
BRANCH  29  31
ATOM     31  C   UNL     1       4.706  -9.259  -9.387  0.00  0.00    +0.073 C 
ATOM     32  C   UNL     1       4.581  -8.585 -10.755  0.00  0.00    +0.022 C 
ATOM     33  C   UNL     1       5.902  -8.722 -11.514  0.00  0.00    +0.002 C 
ATOM     34  C   UNL     1       6.229 -10.205 -11.704  0.00  0.00    +0.000 C 
ATOM     35  C   UNL     1       6.354 -10.879 -10.337  0.00  0.00    +0.002 C 
ATOM     36  C   UNL     1       5.033 -10.742  -9.577  0.00  0.00    +0.022 C 
ENDBRANCH  29  31
ENDBRANCH  26  27
ENDBRANCH  25  26
ENDBRANCH  11  25
TORSDOF 9
