REMARK  Name = ZINC05136970
REMARK  7 active torsions:
REMARK  status: ('A' for Active; 'I' for Inactive)
REMARK    1  A    between atoms: C_1  and  C_2
REMARK    2  A    between atoms: C_3  and  C_14
REMARK    3  A    between atoms: C_5  and  C_7
REMARK    4  A    between atoms: C_14  and  C_15
REMARK    5  A    between atoms: C_15  and  N_16
REMARK    6  A    between atoms: C_17  and  C_19
REMARK    7  A    between atoms: C_23  and  N_25
REMARK                            x       y       z     vdW  Elec       q    Type
REMARK                         _______ _______ _______ _____ _____    ______ ____
ROOT
ATOM      1  C   UNL     1      -0.019   1.526   0.010  0.00  0.00    +0.063 C 
ENDROOT
BRANCH   1   4
ATOM      2  C   UNL     1       1.256   2.144   2.745  0.00  0.00    +0.066 C 
ATOM      3  C   UNL     1      -0.220   2.301   2.479  0.00  0.00    +0.049 A 
ATOM      4  C   UNL     1      -0.724   2.012   1.250  0.00  0.00    +0.014 A 
ATOM      5  S   UNL     1      -2.456   2.375   1.511  0.00  0.00    -0.072 S 
ATOM      6  C   UNL     1      -2.320   2.863   3.226  0.00  0.00    +0.109 A 
ATOM      7  N   UNL     1      -1.019   2.717   3.433  0.00  0.00    -0.244 NA
BRANCH   6   8
ATOM      8  C   UNL     1      -3.375   3.314   4.159  0.00  0.00    +0.007 A 
ATOM      9  C   UNL     1      -4.699   3.403   3.729  0.00  0.00    +0.013 A 
ATOM     10  C   UNL     1      -5.679   3.820   4.605  0.00  0.00    +0.039 A 
ATOM     11  C   UNL     1      -5.349   4.160   5.907  0.00  0.00    +0.123 A 
ATOM     12  C   UNL     1      -4.035   4.078   6.338  0.00  0.00    +0.039 A 
ATOM     13  C   UNL     1      -3.048   3.658   5.471  0.00  0.00    +0.013 A 
ATOM     14  F   UNL     1      -6.313   4.573   6.760  0.00  0.00    -0.205 F 
ENDBRANCH   6   8
ENDBRANCH   1   4
BRANCH   1  15
ATOM     15  C   UNL     1       0.002  -0.004   0.002  0.00  0.00    +0.109 C 
BRANCH  15  16
ATOM     16  N   UNL     1       0.688  -0.476  -1.203  0.00  0.00    -0.311 N 
ATOM     17  C   UNL     1       0.827  -1.799  -1.425  0.00  0.00    +0.244 C 
ATOM     18  O   UNL     1       0.383  -2.599  -0.625  0.00  0.00    -0.270 OA
ATOM     19  H   UNL     1       1.042   0.162  -1.842  0.00  0.00    +0.149 HD
BRANCH  17  20
ATOM     20  C   UNL     1       1.519  -2.275  -2.641  0.00  0.00    +0.039 A 
ATOM     21  C   UNL     1       2.024  -1.359  -3.565  0.00  0.00    +0.013 A 
ATOM     22  C   UNL     1       2.673  -1.810  -4.696  0.00  0.00    +0.003 A 
ATOM     23  C   UNL     1       2.814  -3.168  -4.920  0.00  0.00    +0.033 A 
ATOM     24  C   UNL     1       2.311  -4.082  -4.011  0.00  0.00    +0.127 A 
ATOM     25  C   UNL     1       1.665  -3.644  -2.874  0.00  0.00    +0.045 A 
BRANCH  24  26
ATOM     26  N   UNL     1       2.466  -5.533  -4.260  0.00  0.00    +0.056 N 
ATOM     27  O   UNL     1       2.023  -6.338  -3.461  0.00  0.00    -0.126 OA
ATOM     28  O   UNL     1       3.036  -5.921  -5.264  0.00  0.00    -0.126 OA
ENDBRANCH  24  26
ENDBRANCH  17  20
ENDBRANCH  15  16
ENDBRANCH   1  15
TORSDOF 6
