REMARK  Name = ZINC20532127
REMARK  11 active torsions:
REMARK  status: ('A' for Active; 'I' for Inactive)
REMARK    1  A    between atoms: C_1  and  C_2
REMARK    2  A    between atoms: C_2  and  C_3
REMARK    3  A    between atoms: C_3  and  C_5
REMARK    4  A    between atoms: C_3  and  N_20
REMARK    5  A    between atoms: C_9  and  N_10
REMARK    6  A    between atoms: N_16  and  C_19
REMARK    7  A    between atoms: N_23  and  C_24
REMARK    8  A    between atoms: C_26  and  O_32
REMARK    9  A    between atoms: C_29  and  O_30
REMARK   10  A    between atoms: O_30  and  C_31
REMARK   11  A    between atoms: O_32  and  C_33
REMARK                            x       y       z     vdW  Elec       q    Type
REMARK                         _______ _______ _______ _____ _____    ______ ____
ROOT
ATOM      1  C   UNL     1       5.231   7.629   2.821  0.00  0.00    +0.107 C 
ENDROOT
BRANCH   1   2
ATOM      2  C   UNL     1       5.580   8.037   1.413  0.00  0.00    +0.007 A 
ATOM      3  C   UNL     1       6.583   7.365   0.720  0.00  0.00    -0.034 A 
ATOM      4  C   UNL     1       6.840   7.791  -0.549  0.00  0.00    -0.021 A 
ATOM      5  S   UNL     1       5.704   9.128  -0.786  0.00  0.00    -0.077 S 
ATOM      6  C   UNL     1       4.921   9.068   0.819  0.00  0.00    +0.090 A 
ATOM      7  C   UNL     1       7.859   7.237  -1.490  0.00  0.00    -0.036 C 
ATOM      8  N   UNL     1       8.780   6.380  -0.720  0.00  0.00    +0.381 N 
ATOM      9  C   UNL     1       8.030   5.443   0.128  0.00  0.00    -0.074 C 
ATOM     10  C   UNL     1       7.374   6.191   1.291  0.00  0.00    +0.018 C 
ATOM     11  C   UNL     1       9.700   5.661  -1.612  0.00  0.00    -0.096 C 
ATOM     12  H   UNL     1       9.386   7.022  -0.064  0.00  0.00    -0.082 HD
BRANCH   6  13
ATOM     13  N   UNL     1       3.896   9.871   1.331  0.00  0.00    -0.317 N 
ATOM     14  C   UNL     1       2.559   9.607   1.245  0.00  0.00    +0.092 A 
ATOM     15  C   UNL     1       1.891  10.608   1.855  0.00  0.00    +0.019 A 
ATOM     16  C   UNL     1       2.848  11.528   2.327  0.00  0.00    +0.019 A 
ATOM     17  C   UNL     1       4.066  11.053   1.993  0.00  0.00    +0.092 A 
ENDBRANCH   6  13
ENDBRANCH   1   2
BRANCH   1  18
ATOM     18  N   UNL     1       6.457   7.504   3.612  0.00  0.00    -0.292 N 
ATOM     19  C   UNL     1       6.969   8.584   4.236  0.00  0.00    +0.304 C 
ATOM     20  O   UNL     1       6.413   9.661   4.142  0.00  0.00    -0.252 OA
ATOM     21  N   UNL     1       8.097   8.470   4.964  0.00  0.00    -0.266 N 
ATOM     22  H   UNL     1       6.960   6.530   3.698  0.00  0.00    +0.151 HD
ATOM     23  H   UNL     1       8.637   7.512   4.996  0.00  0.00    +0.156 HD
BRANCH  21  24
ATOM     24  C   UNL     1       8.584   9.572   5.681  0.00  0.00    +0.080 A 
ATOM     25  C   UNL     1       8.201  10.856   5.324  0.00  0.00    +0.072 A 
ATOM     26  C   UNL     1       8.683  11.944   6.035  0.00  0.00    +0.122 A 
ATOM     27  C   UNL     1       9.544  11.748   7.105  0.00  0.00    +0.049 A 
ATOM     28  C   UNL     1       9.931  10.470   7.459  0.00  0.00    +0.051 A 
ATOM     29  C   UNL     1       9.452   9.379   6.752  0.00  0.00    +0.141 A 
BRANCH  29  30
ATOM     30  O   UNL     1       9.829   8.120   7.105  0.00  0.00    -0.493 OA
ATOM     31  C   UNL     1      10.722   7.997   8.214  0.00  0.00    +0.277 C 
ENDBRANCH  29  30
BRANCH  26  32
ATOM     32  O   UNL     1       8.308  13.204   5.686  0.00  0.00    -0.495 OA
ATOM     33  C   UNL     1       8.844  14.278   6.461  0.00  0.00    +0.277 C 
ENDBRANCH  26  32
ENDBRANCH  21  24
ENDBRANCH   1  18
BRANCH   1  35
ATOM     34  C   UNL     1       4.037   5.928   4.209  0.00  0.00    +0.006 C 
ATOM     35  C   UNL     1       4.502   6.284   2.795  0.00  0.00    +0.024 C 
ENDBRANCH   1  35
TORSDOF 7
