REMARK  Name = ZINC35747124
REMARK  14 active torsions:
REMARK  status: ('A' for Active; 'I' for Inactive)
REMARK    1  A    between atoms: C_1  and  C_2
REMARK    2  A    between atoms: C_8  and  C_17
REMARK    3  A    between atoms: C_12  and  C_13
REMARK    4  A    between atoms: C_13  and  O_15
REMARK    5  A    between atoms: O_15  and  C_16
REMARK    6  A    between atoms: C_17  and  N_18
REMARK    7  A    between atoms: N_18  and  C_19
REMARK    8  A    between atoms: N_18  and  C_25
REMARK    9  A    between atoms: C_19  and  C_20
REMARK   10  A    between atoms: C_25  and  C_26
REMARK   11  A    between atoms: C_26  and  C_28
REMARK   12  A    between atoms: C_26  and  O_32
REMARK   13  A    between atoms: C_28  and  C_29
REMARK   14  A    between atoms: C_29  and  C_30
REMARK                            x       y       z     vdW  Elec       q    Type
REMARK                         _______ _______ _______ _____ _____    ______ ____
ROOT
ATOM      1  C   UNL     1       0.167  -3.163  -4.230  0.00  0.00    -0.003 C 
ENDROOT
BRANCH   1   9
ATOM      2  C   UNL     1      -0.829   1.167   0.722  0.00  0.00    +0.046 C 
ATOM      3  C   UNL     1      -0.781  -0.331   0.567  0.00  0.00    -0.015 A 
ATOM      4  C   UNL     1      -0.536  -0.898  -0.685  0.00  0.00    +0.076 A 
ATOM      5  C   UNL     1      -0.297  -0.229  -1.984  0.00  0.00    +0.260 A 
ATOM      6  O   UNL     1      -0.295   0.986  -2.070  0.00  0.00    -0.267 OA
ATOM      7  N   UNL     1      -0.081  -1.000  -3.068  0.00  0.00    -0.312 N 
ATOM      8  H   UNL     1       0.078  -0.577  -3.927  0.00  0.00    +0.170 HD
ATOM      9  C   UNL     1      -0.080  -2.353  -2.984  0.00  0.00    +0.094 A 
ATOM     10  N   UNL     1      -0.288  -2.974  -1.855  0.00  0.00    -0.229 NA
ATOM     11  C   UNL     1      -0.511  -2.311  -0.727  0.00  0.00    +0.116 A 
ATOM     12  S   UNL     1      -0.826  -2.775   0.957  0.00  0.00    -0.062 S 
ATOM     13  C   UNL     1      -0.972  -1.137   1.652  0.00  0.00    +0.102 A 
BRANCH  13  14
ATOM     14  C   UNL     1      -1.234  -0.754   3.041  0.00  0.00    +0.346 C 
ATOM     15  O   UNL     1      -1.306   0.422   3.344  0.00  0.00    -0.244 OA
BRANCH  14  16
ATOM     16  O   UNL     1      -1.397  -1.705   3.984  0.00  0.00    -0.464 OA
ATOM     17  C   UNL     1      -1.650  -1.259   5.318  0.00  0.00    +0.280 C 
ENDBRANCH  14  16
ENDBRANCH  13  14
ENDBRANCH   1   9
BRANCH   1  18
ATOM     18  N   UNL     1       0.121  -4.594  -3.900  0.00  0.00    +0.391 N 
ATOM     19  H   UNL     1       0.776  -4.789  -3.157  0.00  0.00    -0.080 HD
BRANCH  18  20
ATOM     20  C   UNL     1      -1.235  -4.954  -3.465  0.00  0.00    -0.002 C 
BRANCH  20  21
ATOM     21  C   UNL     1      -1.247  -6.384  -2.990  0.00  0.00    +0.089 A 
ATOM     22  C   UNL     1      -0.915  -6.807  -1.757  0.00  0.00    +0.042 A 
ATOM     23  C   UNL     1      -1.069  -8.212  -1.751  0.00  0.00    +0.041 A 
ATOM     24  C   UNL     1      -1.486  -8.564  -2.981  0.00  0.00    +0.195 A 
ATOM     25  O   UNL     1      -1.597  -7.452  -3.725  0.00  0.00    -0.470 OA
ENDBRANCH  20  21
ENDBRANCH  18  20
BRANCH  18  26
ATOM     26  C   UNL     1       0.480  -5.382  -5.087  0.00  0.00    -0.046 C 
BRANCH  26  27
ATOM     27  C   UNL     1       1.941  -5.114  -5.455  0.00  0.00    +0.098 C 
BRANCH  27  28
ATOM     28  O   UNL     1       2.786  -5.522  -4.378  0.00  0.00    -0.394 OA
ATOM     29  H   UNL     1       2.765  -6.472  -4.200  0.00  0.00    +0.210 HD
ENDBRANCH  27  28
BRANCH  27  30
ATOM     30  C   UNL     1       2.302  -5.904  -6.715  0.00  0.00    +0.033 C 
BRANCH  30  31
ATOM     31  C   UNL     1       3.722  -5.541  -7.154  0.00  0.00    +0.029 C 
BRANCH  31  32
ATOM     32  C   UNL     1       4.079  -6.319  -8.394  0.00  0.00    -0.034 C 
ATOM     33  C   UNL     1       4.481  -5.688  -9.470  0.00  0.00    +0.004 C 
ENDBRANCH  31  32
ENDBRANCH  30  31
ENDBRANCH  27  30
ENDBRANCH  26  27
ENDBRANCH  18  26
ENDBRANCH   1  18
TORSDOF 12
