REMARK  Name = ZINC33613023
REMARK  14 active torsions:
REMARK  status: ('A' for Active; 'I' for Inactive)
REMARK    1  A    between atoms: C_1  and  C_2
REMARK    2  A    between atoms: C_2  and  C_3
REMARK    3  A    between atoms: C_3  and  C_4
REMARK    4  A    between atoms: C_4  and  C_5
REMARK    5  A    between atoms: C_5  and  C_7
REMARK    6  A    between atoms: C_5  and  N_36
REMARK    7  A    between atoms: C_9  and  C_12
REMARK    8  A    between atoms: N_14  and  C_15
REMARK    9  A    between atoms: C_15  and  C_16
REMARK   10  A    between atoms: C_16  and  C_35
REMARK   11  A    between atoms: C_20  and  C_34
REMARK   12  A    between atoms: C_29  and  C_31
REMARK   13  A    between atoms: C_31  and  C_32
REMARK   14  A    between atoms: C_31  and  C_33
REMARK                            x       y       z     vdW  Elec       q    Type
REMARK                         _______ _______ _______ _____ _____    ______ ____
ROOT
ATOM      1  C   UNL     1       0.648   5.593   8.117  0.00  0.00    +0.111 C 
ENDROOT
BRANCH   1   2
ATOM      2  C   UNL     1       1.957   6.344   7.867  0.00  0.00    -0.013 C 
ATOM      3  C   UNL     1       2.090   6.650   6.374  0.00  0.00    +0.008 C 
ATOM      4  C   UNL     1       0.914   7.529   5.938  0.00  0.00    +0.001 C 
ATOM      5  C   UNL     1       0.957   8.844   6.716  0.00  0.00    +0.011 C 
ATOM      6  C   UNL     1       0.833   8.566   8.217  0.00  0.00    -0.003 C 
ATOM      7  C   UNL     1       1.957   7.639   8.669  0.00  0.00    +0.007 C 
ATOM      8  C   UNL     1       3.290   8.372   8.511  0.00  0.00    +0.009 C 
ATOM      9  C   UNL     1       3.357   9.476   9.565  0.00  0.00    +0.036 C 
ATOM     10  C   UNL     1       2.096  10.299   9.560  0.00  0.00    -0.043 A 
ATOM     11  C   UNL     1       0.933   9.881   8.954  0.00  0.00    -0.038 A 
ATOM     12  C   UNL     1      -0.198  10.684   8.998  0.00  0.00    +0.005 A 
ATOM     13  C   UNL     1      -0.164  11.906   9.638  0.00  0.00    +0.004 A 
ATOM     14  C   UNL     1       1.006  12.332  10.239  0.00  0.00    -0.045 A 
ATOM     15  C   UNL     1       2.129  11.532  10.200  0.00  0.00    +0.007 A 
ATOM     16  C   UNL     1      -0.519   7.914   8.514  0.00  0.00    +0.016 C 
ATOM     17  C   UNL     1       3.134   5.473   8.310  0.00  0.00    +0.013 C 
BRANCH  14  18
ATOM     18  C   UNL     1       1.054  13.668  10.936  0.00  0.00    +0.013 C 
ATOM     19  C   UNL     1       0.729  14.778   9.934  0.00  0.00    +0.012 C 
ATOM     20  C   UNL     1       0.027  13.688  12.070  0.00  0.00    +0.012 C 
ENDBRANCH  14  18
ENDBRANCH   1   2
BRANCH   1  23
ATOM     21  C   UNL     1      -0.334   3.429   7.574  0.00  0.00    +0.266 C 
ATOM     22  O   UNL     1      -1.334   3.764   8.179  0.00  0.00    -0.268 OA
ATOM     23  N   UNL     1       0.714   4.273   7.485  0.00  0.00    -0.309 N 
ATOM     24  H   UNL     1       1.619   3.970   6.937  0.00  0.00    +0.149 HD
BRANCH  21  27
ATOM     25  C   UNL     1       0.466   0.399   5.831  0.00  0.00    +0.182 A 
ATOM     26  N   UNL     1       0.782   1.592   6.237  0.00  0.00    -0.210 NA
ATOM     27  C   UNL     1      -0.267   2.101   6.938  0.00  0.00    +0.163 A 
ATOM     28  C   UNL     1      -1.241   1.151   6.946  0.00  0.00    +0.230 A 
ATOM     29  O   UNL     1      -0.770   0.101   6.255  0.00  0.00    -0.449 OA
BRANCH  25  30
ATOM     30  C   UNL     1       1.352  -0.509   5.018  0.00  0.00    +0.013 C 
BRANCH  30  31
ATOM     31  N   UNL     1       1.314  -1.865   5.582  0.00  0.00    +0.386 N 
ATOM     32  H   UNL     1       1.671  -1.839   6.622  0.00  0.00    -0.089 HD
ATOM     33  H   UNL     1       1.960  -2.528   4.988  0.00  0.00    -0.089 HD
ATOM     34  H   UNL     1       0.281  -2.243   5.558  0.00  0.00    -0.089 HD
ENDBRANCH  30  31
BRANCH  30  35
ATOM     35  C   UNL     1       0.856  -0.544   3.571  0.00  0.00    -0.007 C 
BRANCH  35  36
ATOM     36  C   UNL     1       1.826  -1.365   2.719  0.00  0.00    -0.001 C 
BRANCH  36  38
ATOM     37  C   UNL     1       2.299  -2.221   0.419  0.00  0.00    +0.004 C 
ATOM     38  C   UNL     1       1.329  -1.400   1.272  0.00  0.00    -0.003 C 
ENDBRANCH  36  38
ENDBRANCH  35  36
ENDBRANCH  30  35
ENDBRANCH  25  30
ENDBRANCH  21  27
ENDBRANCH   1  23
TORSDOF 9
