REMARK  Name = ZINC06409892
REMARK  10 active torsions:
REMARK  status: ('A' for Active; 'I' for Inactive)
REMARK    1  A    between atoms: C_1  and  C_2
REMARK    2  A    between atoms: C_7  and  C_14
REMARK    3  A    between atoms: C_14  and  C_16
REMARK    4  A    between atoms: C_14  and  N_28
REMARK    5  A    between atoms: N_20  and  C_21
REMARK    6  A    between atoms: C_21  and  C_22
REMARK    7  A    between atoms: N_28  and  C_29
REMARK    8  A    between atoms: N_28  and  C_37
REMARK    9  A    between atoms: C_29  and  C_30
REMARK   10  A    between atoms: C_37  and  C_38
REMARK                            x       y       z     vdW  Elec       q    Type
REMARK                         _______ _______ _______ _____ _____    ______ ____
ROOT
ATOM      1  C   UNL     1      -0.005  -6.338   1.327  0.00  0.00    +0.040 C 
ENDROOT
BRANCH   1   8
ATOM      2  C   UNL     1      -0.965   1.382  -0.434  0.00  0.00    +0.044 C 
ATOM      3  C   UNL     1      -0.749  -0.105  -0.330  0.00  0.00    -0.048 A 
ATOM      4  C   UNL     1      -0.484  -0.842  -1.477  0.00  0.00    +0.004 A 
ATOM      5  C   UNL     1      -0.285  -2.192  -1.405  0.00  0.00    +0.010 A 
ATOM      6  C   UNL     1      -0.349  -2.837  -0.166  0.00  0.00    -0.001 A 
ATOM      7  C   UNL     1      -0.141  -4.282  -0.052  0.00  0.00    +0.017 A 
ATOM      8  C   UNL     1      -0.214  -4.853   1.175  0.00  0.00    +0.011 A 
ATOM      9  C   UNL     1      -0.487  -4.062   2.312  0.00  0.00    +0.251 A 
ATOM     10  O   UNL     1      -0.548  -4.595   3.406  0.00  0.00    -0.268 OA
ATOM     11  N   UNL     1      -0.680  -2.735   2.218  0.00  0.00    -0.322 N 
ATOM     12  H   UNL     1      -0.865  -2.220   3.019  0.00  0.00    +0.169 HD
ATOM     13  C   UNL     1      -0.618  -2.094   0.999  0.00  0.00    +0.049 A 
ATOM     14  C   UNL     1      -0.812  -0.719   0.902  0.00  0.00    +0.029 A 
ENDBRANCH   1   8
BRANCH   1  15
ATOM     15  C   UNL     1       1.241  -6.589   2.136  0.00  0.00    +0.143 A 
ATOM     16  N   UNL     1       1.421  -6.308   3.403  0.00  0.00    -0.115 NA
ATOM     17  N   UNL     1       2.614  -6.674   3.726  0.00  0.00    -0.023 NA
ATOM     18  N   UNL     1       3.199  -7.182   2.698  0.00  0.00    -0.044 NA
ATOM     19  N   UNL     1       2.383  -7.152   1.699  0.00  0.00    -0.228 N 
BRANCH  19  20
ATOM     20  C   UNL     1       2.651  -7.637   0.343  0.00  0.00    +0.178 C 
BRANCH  20  21
ATOM     21  C   UNL     1       3.245  -6.504  -0.496  0.00  0.00    +0.140 C 
ATOM     22  C   UNL     1       3.620  -7.020  -1.908  0.00  0.00    +0.035 C 
ATOM     23  C   UNL     1       3.560  -5.702  -2.729  0.00  0.00    +0.031 C 
ATOM     24  C   UNL     1       2.413  -4.937  -2.036  0.00  0.00    +0.160 C 
ATOM     25  O   UNL     1       2.263  -5.479  -0.717  0.00  0.00    -0.375 OA
ENDBRANCH  20  21
ENDBRANCH  19  20
ENDBRANCH   1  15
BRANCH   1  26
ATOM     26  N   UNL     1      -1.162  -6.928   2.013  0.00  0.00    +0.397 N 
ATOM     27  H   UNL     1      -1.178  -6.617   2.973  0.00  0.00    -0.079 HD
BRANCH  26  28
ATOM     28  C   UNL     1      -2.398  -6.506   1.341  0.00  0.00    -0.041 C 
BRANCH  28  29
ATOM     29  C   UNL     1      -3.589  -7.009   2.115  0.00  0.00    -0.064 A 
ATOM     30  C   UNL     1      -4.124  -8.251   1.829  0.00  0.00    +0.004 A 
ATOM     31  C   UNL     1      -5.215  -8.714   2.539  0.00  0.00    +0.038 A 
ATOM     32  C   UNL     1      -5.773  -7.934   3.537  0.00  0.00    +0.123 A 
ATOM     33  C   UNL     1      -5.236  -6.690   3.823  0.00  0.00    +0.038 A 
ATOM     34  C   UNL     1      -4.141  -6.231   3.116  0.00  0.00    +0.004 A 
ATOM     35  F   UNL     1      -6.840  -8.385   4.232  0.00  0.00    -0.205 F 
ENDBRANCH  28  29
ENDBRANCH  26  28
BRANCH  26  36
ATOM     36  C   UNL     1      -1.060  -8.393   1.974  0.00  0.00    -0.001 C 
BRANCH  36  37
ATOM     37  C   UNL     1       0.052  -8.842   2.888  0.00  0.00    +0.089 A 
ATOM     38  C   UNL     1      -0.036  -8.988   4.222  0.00  0.00    +0.042 A 
ATOM     39  C   UNL     1       1.231  -9.425   4.671  0.00  0.00    +0.041 A 
ATOM     40  C   UNL     1       2.018  -9.520   3.584  0.00  0.00    +0.195 A 
ATOM     41  O   UNL     1       1.297  -9.171   2.506  0.00  0.00    -0.470 OA
ENDBRANCH  36  37
ENDBRANCH  26  36
ENDBRANCH   1  26
TORSDOF 9
