REMARK  Name = ZINC00861487
REMARK  14 active torsions:
REMARK  status: ('A' for Active; 'I' for Inactive)
REMARK    1  A    between atoms: C_1  and  C_2
REMARK    2  A    between atoms: C_3  and  C_35
REMARK    3  A    between atoms: C_4  and  C_23
REMARK    4  A    between atoms: C_10  and  C_15
REMARK    5  A    between atoms: C_18  and  O_21
REMARK    6  A    between atoms: O_21  and  C_22
REMARK    7  A    between atoms: C_25  and  O_33
REMARK    8  A    between atoms: C_26  and  O_31
REMARK    9  A    between atoms: C_27  and  O_29
REMARK   10  A    between atoms: O_29  and  C_30
REMARK   11  A    between atoms: O_31  and  C_32
REMARK   12  A    between atoms: O_33  and  C_34
REMARK   13  A    between atoms: C_35  and  O_37
REMARK   14  A    between atoms: O_37  and  C_38
REMARK                            x       y       z     vdW  Elec       q    Type
REMARK                         _______ _______ _______ _____ _____    ______ ____
ROOT
ATOM      1  C   UNL     1      -0.018   1.503   0.010  0.00  0.00    +0.061 C 
ATOM      2  C   UNL     1       0.002  -0.004   0.002  0.00  0.00    +0.016 C 
ATOM      3  C   UNL     1      -1.155  -0.687   0.004  0.00  0.00    +0.065 C 
ATOM      4  C   UNL     1      -1.174  -2.188   0.004  0.00  0.00    +0.092 C 
ATOM      5  C   UNL     1       0.160  -2.745  -0.427  0.00  0.00    +0.024 C 
ATOM      6  C   UNL     1       1.268  -1.974  -0.407  0.00  0.00    +0.016 C 
ATOM      7  N   UNL     1       1.198  -0.667  -0.013  0.00  0.00    -0.321 N 
ATOM      8  C   UNL     1       2.608  -2.531  -0.819  0.00  0.00    +0.059 C 
ATOM      9  C   UNL     1       2.410  -3.613  -1.883  0.00  0.00    +0.032 C 
ATOM     10  C   UNL     1       1.508  -4.706  -1.303  0.00  0.00    +0.088 C 
ATOM     11  C   UNL     1       0.215  -4.085  -0.850  0.00  0.00    +0.162 C 
ATOM     12  O   UNL     1      -0.800  -4.753  -0.848  0.00  0.00    -0.292 OA
ATOM     13  H   UNL     1       2.006  -0.206   0.263  0.00  0.00    +0.152 HD
ENDROOT
BRANCH   9  14
ATOM     14  C   UNL     1       3.745  -4.201  -2.262  0.00  0.00    -0.043 A 
ATOM     15  C   UNL     1       4.523  -4.823  -1.302  0.00  0.00    +0.007 A 
ATOM     16  C   UNL     1       5.747  -5.362  -1.646  0.00  0.00    +0.046 A 
ATOM     17  C   UNL     1       6.196  -5.279  -2.956  0.00  0.00    +0.120 A 
ATOM     18  C   UNL     1       5.415  -4.655  -3.917  0.00  0.00    +0.046 A 
ATOM     19  C   UNL     1       4.189  -4.122  -3.569  0.00  0.00    +0.007 A 
BRANCH  17  20
ATOM     20  O   UNL     1       7.401  -5.809  -3.297  0.00  0.00    -0.495 OA
ATOM     21  C   UNL     1       7.799  -5.687  -4.664  0.00  0.00    +0.277 C 
ENDBRANCH  17  20
ENDBRANCH   9  14
BRANCH   4  22
ATOM     22  C   UNL     1      -1.489  -2.679   1.393  0.00  0.00    -0.028 A 
ATOM     23  C   UNL     1      -0.658  -2.345   2.447  0.00  0.00    +0.054 A 
ATOM     24  C   UNL     1      -0.944  -2.795   3.727  0.00  0.00    +0.165 A 
ATOM     25  C   UNL     1      -2.067  -3.583   3.950  0.00  0.00    +0.204 A 
ATOM     26  C   UNL     1      -2.900  -3.916   2.888  0.00  0.00    +0.165 A 
ATOM     27  C   UNL     1      -2.610  -3.458   1.611  0.00  0.00    +0.054 A 
BRANCH  26  28
ATOM     28  O   UNL     1      -4.000  -4.687   3.100  0.00  0.00    -0.491 OA
ATOM     29  C   UNL     1      -4.810  -4.990   1.963  0.00  0.00    +0.277 C 
ENDBRANCH  26  28
BRANCH  25  30
ATOM     30  O   UNL     1      -2.351  -4.027   5.204  0.00  0.00    -0.488 OA
ATOM     31  C   UNL     1      -3.178  -3.192   6.017  0.00  0.00    +0.277 C 
ENDBRANCH  25  30
BRANCH  24  32
ATOM     32  O   UNL     1      -0.126  -2.467   4.763  0.00  0.00    -0.491 OA
ATOM     33  C   UNL     1       1.010  -1.655   4.460  0.00  0.00    +0.277 C 
ENDBRANCH  24  32
ENDBRANCH   4  22
BRANCH   3  34
ATOM     34  C   UNL     1      -2.380   0.021   0.006  0.00  0.00    +0.338 C 
ATOM     35  O   UNL     1      -2.378   1.238   0.007  0.00  0.00    -0.245 OA
BRANCH  34  36
ATOM     36  O   UNL     1      -3.549  -0.652   0.008  0.00  0.00    -0.458 OA
BRANCH  36  37
ATOM     37  C   UNL     1      -4.747   0.128   0.011  0.00  0.00    +0.177 C 
ATOM     38  C   UNL     1      -5.171   0.406   1.454  0.00  0.00    +0.044 C 
ATOM     39  C   UNL     1      -6.453   1.241   1.457  0.00  0.00    +0.004 C 
ATOM     40  C   UNL     1      -7.564   0.472   0.737  0.00  0.00    +0.000 C 
ATOM     41  C   UNL     1      -7.139   0.195  -0.706  0.00  0.00    +0.004 C 
ATOM     42  C   UNL     1      -5.857  -0.640  -0.709  0.00  0.00    +0.044 C 
ENDBRANCH  36  37
ENDBRANCH  34  36
ENDBRANCH   3  34
TORSDOF 9
