REMARK  Name = ZINC03312017
REMARK  5 active torsions:
REMARK  status: ('A' for Active; 'I' for Inactive)
REMARK    1  A    between atoms: N_12  and  C_16
REMARK    2  A    between atoms: C_16  and  C_17
REMARK    3  A    between atoms: N_19  and  C_20
REMARK    4  A    between atoms: C_20  and  C_21
REMARK    5  A    between atoms: C_21  and  C_22
REMARK                            x       y       z     vdW  Elec       q    Type
REMARK                         _______ _______ _______ _____ _____    ______ ____
ROOT
ATOM      1  C   UNL     1       1.209  -0.678  -0.013  0.00  0.00    +0.000 A 
ATOM      2  C   UNL     1       0.002  -0.004   0.002  0.00  0.00    +0.000 A 
ATOM      3  C   UNL     1      -0.017   1.376   0.010  0.00  0.00    +0.006 A 
ATOM      4  C   UNL     1       1.169   2.092   0.002  0.00  0.00    -0.012 A 
ATOM      5  C   UNL     1       2.378   1.416  -0.009  0.00  0.00    -0.042 A 
ATOM      6  C   UNL     1       2.394   0.032  -0.018  0.00  0.00    +0.004 A 
ATOM      7  C   UNL     1       3.521   2.410  -0.005  0.00  0.00    +0.038 C 
ATOM      8  C   UNL     1       2.889   3.756  -0.428  0.00  0.00    +0.045 C 
ATOM      9  C   UNL     1       1.427   3.575  -0.002  0.00  0.00    +0.138 C 
ATOM     10  C   UNL     1       1.173   4.187   1.351  0.00  0.00    +0.251 C 
ATOM     11  O   UNL     1       1.709   3.903   2.400  0.00  0.00    -0.272 OA
ATOM     12  N   UNL     1       0.218   5.120   1.145  0.00  0.00    -0.215 N 
ATOM     13  C   UNL     1      -0.153   5.170  -0.141  0.00  0.00    +0.310 C 
ATOM     14  O   UNL     1      -0.997   5.930  -0.573  0.00  0.00    -0.252 OA
ATOM     15  N   UNL     1       0.517   4.282  -0.903  0.00  0.00    -0.281 N 
ATOM     16  H   UNL     1       0.415   4.139  -1.858  0.00  0.00    +0.152 HD
ENDROOT
BRANCH  12  17
ATOM     17  C   UNL     1      -0.343   5.972   2.197  0.00  0.00    +0.213 C 
BRANCH  17  18
ATOM     18  C   UNL     1      -1.540   5.291   2.809  0.00  0.00    +0.231 C 
ATOM     19  O   UNL     1      -1.890   4.202   2.406  0.00  0.00    -0.274 OA
ATOM     20  N   UNL     1      -2.221   5.892   3.805  0.00  0.00    -0.314 N 
ATOM     21  H   UNL     1      -1.941   6.763   4.127  0.00  0.00    +0.149 HD
BRANCH  20  22
ATOM     22  C   UNL     1      -3.385   5.231   4.400  0.00  0.00    +0.109 C 
BRANCH  22  23
ATOM     23  C   UNL     1      -3.970   6.120   5.499  0.00  0.00    +0.055 C 
BRANCH  23  24
ATOM     24  C   UNL     1      -5.167   5.439   6.111  0.00  0.00    -0.027 A 
ATOM     25  C   UNL     1      -6.439   5.737   5.658  0.00  0.00    +0.006 A 
ATOM     26  C   UNL     1      -7.536   5.109   6.215  0.00  0.00    +0.020 A 
ATOM     27  C   UNL     1      -7.364   4.190   7.235  0.00  0.00    +0.042 A 
ATOM     28  C   UNL     1      -6.093   3.895   7.693  0.00  0.00    +0.040 A 
ATOM     29  C   UNL     1      -4.994   4.520   7.131  0.00  0.00    +0.046 A 
ATOM     30 CL   UNL     1      -3.397   4.151   7.705  0.00  0.00    -0.083 Cl
ATOM     31 CL   UNL     1      -8.744   3.406   7.940  0.00  0.00    -0.083 Cl
ENDBRANCH  23  24
ENDBRANCH  22  23
ENDBRANCH  20  22
ENDBRANCH  17  18
ENDBRANCH  12  17
TORSDOF 5
