REMARK  Name = ZINC41023905
REMARK  5 active torsions:
REMARK  status: ('A' for Active; 'I' for Inactive)
REMARK    1  A    between atoms: C_1  and  C_2
REMARK    2  A    between atoms: C_8  and  C_10
REMARK    3  A    between atoms: C_10  and  S_11
REMARK    4  A    between atoms: S_11  and  C_12
REMARK    5  A    between atoms: C_16  and  N_18
REMARK                            x       y       z     vdW  Elec       q    Type
REMARK                         _______ _______ _______ _____ _____    ______ ____
ROOT
ATOM      1  C   UNL     1       5.541  -4.252  -0.047  0.00  0.00    +0.192 A 
ATOM      2  N   UNL     1       5.919  -2.982  -0.036  0.00  0.00    -0.207 NA
ATOM      3  C   UNL     1       7.209  -2.655  -0.040  0.00  0.00    +0.122 A 
ATOM      4  C   UNL     1       8.164  -3.666  -0.055  0.00  0.00    +0.086 A 
ATOM      5  C   UNL     1       7.730  -4.989  -0.066  0.00  0.00    +0.122 A 
ATOM      6  N   UNL     1       6.423  -5.241  -0.056  0.00  0.00    -0.207 NA
ATOM      7  N   UNL     1       7.595  -1.323  -0.029  0.00  0.00    -0.343 N 
ATOM      8  H   UNL     1       6.924  -0.623  -0.019  0.00  0.00    +0.144 HD
ATOM      9  H   UNL     1       8.537  -1.092  -0.032  0.00  0.00    +0.144 HD
ENDROOT
BRANCH   5  10
ATOM     10  N   UNL     1       8.646  -6.029  -0.081  0.00  0.00    -0.343 N 
ATOM     11  H   UNL     1       9.597  -5.838  -0.085  0.00  0.00    +0.144 HD
ATOM     12  H   UNL     1       8.336  -6.948  -0.089  0.00  0.00    +0.144 HD
ENDBRANCH   5  10
BRANCH   1  13
ATOM     13  S   UNL     1       3.821  -4.636  -0.041  0.00  0.00    -0.076 S 
BRANCH  13  14
ATOM     14  C   UNL     1       3.010  -3.014  -0.028  0.00  0.00    +0.179 C 
BRANCH  14  22
ATOM     15  C   UNL     1      -0.018   1.503   0.010  0.00  0.00    +0.089 C 
ATOM     16  C   UNL     1       0.002  -0.004   0.002  0.00  0.00    +0.136 A 
ATOM     17  C   UNL     1      -1.083  -0.801   0.003  0.00  0.00    +0.117 A 
ATOM     18  C   UNL     1      -0.649  -2.142  -0.007  0.00  0.00    +0.290 A 
ATOM     19  O   UNL     1      -1.360  -3.133  -0.009  0.00  0.00    -0.264 OA
ATOM     20  N   UNL     1       0.701  -2.126  -0.013  0.00  0.00    -0.102 N 
ATOM     21  O   UNL     1       1.103  -0.767  -0.013  0.00  0.00    -0.372 OA
ATOM     22  C   UNL     1       1.514  -3.200  -0.022  0.00  0.00    +0.274 C 
ATOM     23  O   UNL     1       1.043  -4.317  -0.026  0.00  0.00    -0.269 OA
ENDBRANCH  14  22
ENDBRANCH  13  14
ENDBRANCH   1  13
TORSDOF 4
