REMARK  Name = ZINC34831875
REMARK  12 active torsions:
REMARK  status: ('A' for Active; 'I' for Inactive)
REMARK    1  A    between atoms: C_1  and  C_2
REMARK    2  A    between atoms: C_2  and  N_3
REMARK    3  A    between atoms: N_6  and  C_9
REMARK    4  A    between atoms: C_10  and  C_21
REMARK    5  A    between atoms: C_11  and  C_20
REMARK    6  A    between atoms: N_13  and  C_14
REMARK    7  A    between atoms: C_21  and  N_22
REMARK    8  A    between atoms: N_22  and  C_23
REMARK    9  A    between atoms: C_23  and  C_24
REMARK   10  A    between atoms: C_24  and  O_25
REMARK   11  A    between atoms: O_25  and  C_26
REMARK   12  A    between atoms: C_27  and  C_29
REMARK                            x       y       z     vdW  Elec       q    Type
REMARK                         _______ _______ _______ _____ _____    ______ ____
ROOT
ATOM      1  C   UNL     1      -3.005  -3.105  -3.335  0.00  0.00    +0.130 A 
ATOM      2  C   UNL     1      -3.454  -4.337  -2.968  0.00  0.00    +0.032 A 
ATOM      3  C   UNL     1      -4.281  -4.814  -3.989  0.00  0.00    +0.067 A 
ATOM      4  N   UNL     1      -4.333  -3.912  -4.936  0.00  0.00    -0.170 NA
ATOM      5  N   UNL     1      -3.545  -2.820  -4.552  0.00  0.00    -0.218 N 
ATOM      6  C   UNL     1      -4.993  -6.142  -3.997  0.00  0.00    +0.068 C 
ENDROOT
BRANCH   1  10
ATOM      7  N   UNL     1      -0.507  -0.125  -1.942  0.00  0.00    +0.382 N 
ATOM      8  C   UNL     1      -1.955   0.086  -2.068  0.00  0.00    -0.060 C 
ATOM      9  C   UNL     1      -2.691  -1.217  -1.740  0.00  0.00    +0.088 C 
ATOM     10  N   UNL     1      -2.155  -2.285  -2.599  0.00  0.00    -0.318 N 
ATOM     11  C   UNL     1      -0.696  -2.460  -2.659  0.00  0.00    +0.088 C 
ATOM     12  C   UNL     1      -0.054  -1.098  -2.944  0.00  0.00    -0.060 C 
ATOM     13  H   UNL     1      -0.300  -0.474  -1.018  0.00  0.00    -0.082 HD
BRANCH   7  15
ATOM     14  C   UNL     1      -0.185   2.126  -1.032  0.00  0.00    -0.017 C 
ATOM     15  C   UNL     1       0.192   1.150  -2.149  0.00  0.00    -0.082 C 
ENDBRANCH   7  15
ENDBRANCH   1  10
BRANCH   5  16
ATOM     16  C   UNL     1      -3.344  -1.646  -5.290  0.00  0.00    +0.067 A 
ATOM     17  C   UNL     1      -3.476  -0.407  -4.677  0.00  0.00    +0.028 A 
ATOM     18  C   UNL     1      -3.277   0.748  -5.407  0.00  0.00    +0.002 A 
ATOM     19  C   UNL     1      -2.947   0.672  -6.748  0.00  0.00    +0.000 A 
ATOM     20  C   UNL     1      -2.815  -0.560  -7.362  0.00  0.00    +0.002 A 
ATOM     21  C   UNL     1      -3.007  -1.719  -6.636  0.00  0.00    +0.028 A 
ENDBRANCH   5  16
BRANCH   2  22
ATOM     22  C   UNL     1      -3.118  -5.058  -1.688  0.00  0.00    +0.148 C 
BRANCH  22  23
ATOM     23  N   UNL     1      -4.201  -4.867  -0.721  0.00  0.00    -0.291 N 
ATOM     24  C   UNL     1      -4.104  -3.905   0.218  0.00  0.00    +0.247 C 
ATOM     25  O   UNL     1      -3.143  -3.161   0.229  0.00  0.00    -0.270 OA
BRANCH  24  26
ATOM     26  C   UNL     1      -5.165  -3.755   1.233  0.00  0.00    +0.041 A 
ATOM     27  C   UNL     1      -5.760  -4.886   1.797  0.00  0.00    +0.017 A 
ATOM     28  C   UNL     1      -6.750  -4.744   2.745  0.00  0.00    +0.050 A 
ATOM     29  C   UNL     1      -7.160  -3.478   3.143  0.00  0.00    +0.166 A 
ATOM     30  C   UNL     1      -6.571  -2.344   2.583  0.00  0.00    +0.167 A 
ATOM     31  C   UNL     1      -5.574  -2.481   1.636  0.00  0.00    +0.062 A 
ATOM     32  O   UNL     1      -7.145  -1.236   3.137  0.00  0.00    -0.453 OA
ATOM     33  C   UNL     1      -8.369  -1.698   3.737  0.00  0.00    +0.466 C 
ATOM     34  O   UNL     1      -8.100  -3.078   4.046  0.00  0.00    -0.453 OA
ENDBRANCH  24  26
BRANCH  23  35
ATOM     35  C   UNL     1      -5.390  -5.721  -0.774  0.00  0.00    +0.136 C 
BRANCH  35  36
ATOM     36  C   UNL     1      -4.977  -7.182  -0.582  0.00  0.00    +0.178 C 
BRANCH  36  37
ATOM     37  O   UNL     1      -4.444  -7.358   0.732  0.00  0.00    -0.381 OA
ATOM     38  C   UNL     1      -4.025  -8.694   1.016  0.00  0.00    +0.194 C 
ENDBRANCH  36  37
ENDBRANCH  35  36
ENDBRANCH  23  35
ENDBRANCH  22  23
ENDBRANCH   2  22
TORSDOF 9
