REMARK  Name = ZINC39756078
REMARK  10 active torsions:
REMARK  status: ('A' for Active; 'I' for Inactive)
REMARK    1  A    between atoms: C_2  and  C_3
REMARK    2  A    between atoms: C_3  and  N_4
REMARK    3  A    between atoms: C_5  and  C_22
REMARK    4  A    between atoms: C_8  and  S_9
REMARK    5  A    between atoms: S_9  and  C_10
REMARK    6  A    between atoms: C_10  and  C_11
REMARK    7  A    between atoms: C_17  and  N_19
REMARK    8  A    between atoms: C_22  and  C_23
REMARK    9  A    between atoms: C_23  and  C_24
REMARK   10  A    between atoms: N_26  and  C_27
REMARK                            x       y       z     vdW  Elec       q    Type
REMARK                         _______ _______ _______ _____ _____    ______ ____
ROOT
ATOM      1  N   UNL     1      -1.317  -1.675  -1.091  0.00  0.00    -0.302 N 
ATOM      2  C   UNL     1      -1.787  -1.434  -2.353  0.00  0.00    +0.135 A 
ATOM      3  N   UNL     1      -1.618  -2.525  -3.044  0.00  0.00    -0.133 NA
ATOM      4  N   UNL     1      -1.078  -3.433  -2.312  0.00  0.00    -0.122 NA
ATOM      5  C   UNL     1      -0.866  -2.964  -1.104  0.00  0.00    +0.192 A 
ENDROOT
BRANCH   1   6
ATOM      6  C   UNL     1      -1.295  -0.742   0.038  0.00  0.00    +0.152 C 
BRANCH   6   8
ATOM      7  C   UNL     1      -0.021   1.341   0.024  0.00  0.00    +0.005 C 
ATOM      8  C   UNL     1      -0.002   0.031   0.026  0.00  0.00    -0.013 C 
ENDBRANCH   6   8
ENDBRANCH   1   6
BRANCH   5   9
ATOM      9  S   UNL     1      -0.141  -3.834   0.245  0.00  0.00    -0.077 S 
BRANCH   9  10
ATOM     10  C   UNL     1       0.226  -5.474  -0.437  0.00  0.00    +0.173 C 
BRANCH  10  11
ATOM     11  C   UNL     1       0.859  -6.331   0.629  0.00  0.00    +0.229 C 
ATOM     12  O   UNL     1       1.044  -5.880   1.739  0.00  0.00    -0.275 OA
ATOM     13  N   UNL     1       1.219  -7.599   0.348  0.00  0.00    -0.264 N 
ATOM     14  C   UNL     1       1.803  -8.390   1.331  0.00  0.00    +0.166 A 
ATOM     15  N   UNL     1       2.073  -8.075   2.580  0.00  0.00    -0.231 NA
ATOM     16  C   UNL     1       2.635  -8.947   3.397  0.00  0.00    +0.153 A 
ATOM     17  C   UNL     1       2.918 -10.172   2.890  0.00  0.00    +0.185 A 
ATOM     18  S   UNL     1       2.329  -9.984   1.215  0.00  0.00    -0.028 S 
ATOM     19  H   UNL     1       1.071  -7.960  -0.540  0.00  0.00    +0.157 HD
BRANCH  17  20
ATOM     20  N   UNL     1       3.539 -11.345   3.547  0.00  0.00    +0.065 N 
ATOM     21  O   UNL     1       3.872 -11.281   4.708  0.00  0.00    -0.126 OA
ATOM     22  O   UNL     1       3.713 -12.365   2.923  0.00  0.00    -0.126 OA
ENDBRANCH  17  20
ENDBRANCH  10  11
ENDBRANCH   9  10
ENDBRANCH   5   9
BRANCH   2  23
ATOM     23  C   UNL     1      -2.388  -0.145  -2.850  0.00  0.00    +0.085 C 
BRANCH  23  24
ATOM     24  C   UNL     1      -1.283   0.748  -3.419  0.00  0.00    +0.104 C 
BRANCH  24  25
ATOM     25  C   UNL     1      -1.885   2.037  -3.917  0.00  0.00    +0.218 C 
ATOM     26  O   UNL     1      -3.080   2.223  -3.826  0.00  0.00    -0.275 OA
ATOM     27  N   UNL     1      -1.095   2.982  -4.463  0.00  0.00    -0.284 N 
ATOM     28  H   UNL     1      -0.133   2.861  -4.478  0.00  0.00    +0.155 HD
BRANCH  27  29
ATOM     29  C   UNL     1      -1.664   4.138  -5.011  0.00  0.00    +0.052 A 
ATOM     30  C   UNL     1      -2.799   4.695  -4.436  0.00  0.00    +0.025 A 
ATOM     31  C   UNL     1      -3.357   5.836  -4.978  0.00  0.00    +0.002 A 
ATOM     32  C   UNL     1      -2.788   6.425  -6.092  0.00  0.00    +0.002 A 
ATOM     33  C   UNL     1      -1.658   5.874  -6.667  0.00  0.00    +0.022 A 
ATOM     34  C   UNL     1      -1.090   4.735  -6.127  0.00  0.00    +0.062 A 
ATOM     35 CL   UNL     1       0.333   4.048  -6.845  0.00  0.00    -0.082 Cl
ENDBRANCH  27  29
ENDBRANCH  24  25
ENDBRANCH  23  24
ENDBRANCH   2  23
TORSDOF 10
