REMARK  Name = ZINC20616552
REMARK  4 active torsions:
REMARK  status: ('A' for Active; 'I' for Inactive)
REMARK    1  A    between atoms: C_1  and  C_2
REMARK    2  A    between atoms: C_5  and  N_9
REMARK    3  A    between atoms: C_7  and  C_8
REMARK    4  A    between atoms: C_11  and  C_21
REMARK                            x       y       z     vdW  Elec       q    Type
REMARK                         _______ _______ _______ _____ _____    ______ ____
ROOT
ATOM      1  N   UNL     1       2.319   4.309   0.004  0.00  0.00    -0.325 N 
ATOM      2  C   UNL     1       2.297   5.620  -0.088  0.00  0.00    +0.212 A 
ATOM      3  C   UNL     1       3.547   6.396  -0.208  0.00  0.00    +0.098 A 
ATOM      4  C   UNL     1       3.470   7.626  -0.849  0.00  0.00    +0.030 A 
ATOM      5  C   UNL     1       2.158   8.043  -1.349  0.00  0.00    +0.019 A 
ATOM      6  C   UNL     1       2.038   9.124  -2.230  0.00  0.00    +0.026 A 
ATOM      7  C   UNL     1       0.792   9.493  -2.688  0.00  0.00    +0.019 A 
ATOM      8  C   UNL     1      -0.339   8.800  -2.280  0.00  0.00    +0.019 A 
ATOM      9  C   UNL     1      -0.236   7.733  -1.411  0.00  0.00    +0.048 A 
ATOM     10  C   UNL     1       1.008   7.345  -0.936  0.00  0.00    +0.137 A 
ATOM     11  O   UNL     1       1.123   6.303  -0.082  0.00  0.00    -0.439 OA
ATOM     12 BR   UNL     1       0.623  10.952  -3.879  0.00  0.00    -0.050 Br
ATOM     13  H   UNL     1       3.280   3.779   0.082  0.00  0.00    +0.169 HD
ENDROOT
BRANCH   3  14
ATOM     14  C   UNL     1       4.821   5.888   0.328  0.00  0.00    +0.255 C 
ATOM     15  O   UNL     1       4.858   4.806   0.884  0.00  0.00    -0.270 OA
ATOM     16  N   UNL     1       5.945   6.620   0.203  0.00  0.00    -0.261 N 
ATOM     17  C   UNL     1       7.147   6.140   0.708  0.00  0.00    +0.165 A 
ATOM     18  N   UNL     1       8.339   6.703   0.684  0.00  0.00    -0.233 NA
ATOM     19  C   UNL     1       9.387   6.105   1.216  0.00  0.00    +0.120 A 
ATOM     20  C   UNL     1       9.214   4.891   1.794  0.00  0.00    +0.068 A 
ATOM     21  S   UNL     1       7.462   4.650   1.542  0.00  0.00    -0.061 S 
ATOM     22  H   UNL     1       5.912   7.598  -0.301  0.00  0.00    +0.157 HD
ENDBRANCH   3  14
BRANCH   1  27
ATOM     23  C   UNL     1      -2.511   1.388  -0.005  0.00  0.00    +0.044 C 
ATOM     24  C   UNL     1      -1.223   2.171  -0.003  0.00  0.00    -0.047 A 
ATOM     25  C   UNL     1      -0.633   2.529  -1.202  0.00  0.00    +0.005 A 
ATOM     26  C   UNL     1       0.548   3.240  -1.208  0.00  0.00    +0.026 A 
ATOM     27  C   UNL     1       1.147   3.603   0.002  0.00  0.00    +0.042 A 
ATOM     28  C   UNL     1       0.543   3.243   1.208  0.00  0.00    +0.029 A 
ATOM     29  C   UNL     1      -0.639   2.532   1.199  0.00  0.00    -0.046 A 
ATOM     30  C   UNL     1      -1.292   2.142   2.499  0.00  0.00    +0.044 C 
ENDBRANCH   1  27
TORSDOF 2
