REMARK  Name = ZINC24831540
REMARK  6 active torsions:
REMARK  status: ('A' for Active; 'I' for Inactive)
REMARK    1  A    between atoms: C_1  and  C_2
REMARK    2  A    between atoms: C_2  and  C_4
REMARK    3  A    between atoms: C_2  and  N_11
REMARK    4  A    between atoms: N_11  and  C_12
REMARK    5  A    between atoms: C_12  and  C_13
REMARK    6  A    between atoms: C_26  and  C_28
REMARK                            x       y       z     vdW  Elec       q    Type
REMARK                         _______ _______ _______ _____ _____    ______ ____
ROOT
ATOM      1  C   UNL     1      -1.881   4.019   0.933  0.00  0.00    +0.203 C 
ATOM      2  O   UNL     1      -2.881   3.407   0.622  0.00  0.00    -0.277 OA
ATOM      3  N   UNL     1      -0.760   3.352   1.271  0.00  0.00    -0.259 N 
ATOM      4  C   UNL     1       0.403   4.045   1.631  0.00  0.00    +0.058 A 
ATOM      5  C   UNL     1       1.157   4.704   0.674  0.00  0.00    +0.025 A 
ATOM      6  C   UNL     1       2.324   5.349   1.041  0.00  0.00    +0.002 A 
ATOM      7  C   UNL     1       2.740   5.341   2.360  0.00  0.00    +0.002 A 
ATOM      8  C   UNL     1       1.987   4.695   3.324  0.00  0.00    +0.025 A 
ATOM      9  C   UNL     1       0.813   4.055   2.965  0.00  0.00    +0.055 A 
ATOM     10  N   UNL     1       0.019   3.417   3.925  0.00  0.00    -0.284 N 
ATOM     11  C   UNL     1      -0.424   2.156   3.723  0.00  0.00    +0.219 C 
ATOM     12  O   UNL     1      -1.174   1.646   4.528  0.00  0.00    -0.275 OA
ATOM     13  C   UNL     1       0.008   1.381   2.507  0.00  0.00    +0.128 C 
ATOM     14  C   UNL     1      -0.733   1.888   1.268  0.00  0.00    +0.194 C 
ATOM     15  H   UNL     1      -0.250   3.943   4.853  0.00  0.00    +0.155 HD
ENDROOT
BRANCH  14  16
ATOM     16  C   UNL     1      -0.017   1.395   0.010  0.00  0.00    +0.409 C 
ATOM     17  F   UNL     1       0.002  -0.004   0.002  0.00  0.00    -0.169 F 
ATOM     18  F   UNL     1       1.296   1.879  -0.000  0.00  0.00    -0.169 F 
ATOM     19  F   UNL     1      -0.694   1.858  -1.124  0.00  0.00    -0.169 F 
ENDBRANCH  14  16
BRANCH   1  20
ATOM     20  C   UNL     1      -1.892   5.526   0.940  0.00  0.00    +0.016 C 
BRANCH  20  21
ATOM     21  N   UNL     1      -3.220   6.008   0.537  0.00  0.00    +0.389 N 
ATOM     22  H   UNL     1      -3.966   5.618   1.245  0.00  0.00    -0.084 HD
ATOM     23  H   UNL     1      -3.440   5.631  -0.472  0.00  0.00    -0.084 HD
BRANCH  21  25
ATOM     24  C   UNL     1      -2.744   8.000  -0.805  0.00  0.00    -0.009 C 
ATOM     25  C   UNL     1      -3.268   7.476   0.533  0.00  0.00    -0.043 C 
BRANCH  25  26
ATOM     26  C   UNL     1      -4.691   7.932   0.729  0.00  0.00    -0.062 A 
ATOM     27  C   UNL     1      -5.723   7.265   0.097  0.00  0.00    +0.003 A 
ATOM     28  C   UNL     1      -7.029   7.680   0.280  0.00  0.00    +0.020 A 
ATOM     29  C   UNL     1      -7.301   8.770   1.088  0.00  0.00    +0.041 A 
ATOM     30  C   UNL     1      -6.267   9.441   1.716  0.00  0.00    +0.020 A 
ATOM     31  C   UNL     1      -4.962   9.021   1.536  0.00  0.00    +0.003 A 
ATOM     32 CL   UNL     1      -8.940   9.296   1.313  0.00  0.00    -0.084 Cl
ENDBRANCH  25  26
ENDBRANCH  21  25
ENDBRANCH  20  21
ENDBRANCH   1  20
TORSDOF 5
