REMARK  Name = ZINC23254197
REMARK  9 active torsions:
REMARK  status: ('A' for Active; 'I' for Inactive)
REMARK    1  A    between atoms: C_1  and  C_2
REMARK    2  A    between atoms: C_2  and  C_3
REMARK    3  A    between atoms: C_3  and  C_4
REMARK    4  A    between atoms: C_4  and  C_5
REMARK    5  A    between atoms: C_5  and  C_28
REMARK    6  A    between atoms: N_8  and  C_12
REMARK    7  A    between atoms: C_12  and  N_13
REMARK    8  A    between atoms: N_16  and  C_19
REMARK    9  A    between atoms: C_19  and  C_20
REMARK                            x       y       z     vdW  Elec       q    Type
REMARK                         _______ _______ _______ _____ _____    ______ ____
ROOT
ATOM      1  C   UNL     1      -3.367  -1.276   0.911  0.00  0.00    +0.138 C 
ATOM      2  C   UNL     1      -2.359  -0.776  -0.105  0.00  0.00    +0.252 C 
ATOM      3  O   UNL     1      -2.526  -0.643  -1.298  0.00  0.00    -0.272 OA
ATOM      4  N   UNL     1      -1.237  -0.512   0.595  0.00  0.00    -0.210 N 
ATOM      5  C   UNL     1      -1.394  -0.778   1.897  0.00  0.00    +0.311 C 
ATOM      6  O   UNL     1      -0.521  -0.623   2.728  0.00  0.00    -0.252 OA
ATOM      7  N   UNL     1      -2.628  -1.231   2.184  0.00  0.00    -0.281 N 
ATOM      8  H   UNL     1      -3.120  -1.541   3.117  0.00  0.00    +0.152 HD
ENDROOT
BRANCH   1   9
ATOM      9  C   UNL     1      -4.565  -0.363   0.961  0.00  0.00    -0.015 A 
ATOM     10  C   UNL     1      -5.651  -0.602   0.140  0.00  0.00    +0.009 A 
ATOM     11  C   UNL     1      -6.752   0.231   0.189  0.00  0.00    +0.039 A 
ATOM     12  C   UNL     1      -6.763   1.313   1.053  0.00  0.00    +0.123 A 
ATOM     13  C   UNL     1      -5.673   1.555   1.871  0.00  0.00    +0.039 A 
ATOM     14  C   UNL     1      -4.575   0.717   1.825  0.00  0.00    +0.009 A 
ATOM     15  F   UNL     1      -7.837   2.131   1.098  0.00  0.00    -0.205 F 
ENDBRANCH   1   9
BRANCH   1  16
ATOM     16  C   UNL     1      -3.794  -2.709   0.586  0.00  0.00    +0.040 C 
BRANCH  16  17
ATOM     17  C   UNL     1      -2.589  -3.642   0.718  0.00  0.00    +0.003 C 
BRANCH  17  19
ATOM     18  C   UNL     1      -1.810  -6.008   0.525  0.00  0.00    +0.004 C 
ATOM     19  C   UNL     1      -3.015  -5.075   0.393  0.00  0.00    -0.003 C 
ENDBRANCH  17  19
ENDBRANCH  16  17
ENDBRANCH   1  16
BRANCH   4  20
ATOM     20  C   UNL     1       0.002  -0.004   0.002  0.00  0.00    +0.205 C 
BRANCH  20  21
ATOM     21  N   UNL     1      -0.018   1.465   0.010  0.00  0.00    -0.290 NA
ATOM     22  C   UNL     1      -0.799   1.987  -1.120  0.00  0.00    +0.067 C 
ATOM     23  C   UNL     1      -0.862   3.514  -1.031  0.00  0.00    -0.063 C 
ATOM     24  N   UNL     1       0.503   4.059  -1.041  0.00  0.00    +0.387 N 
ATOM     25  C   UNL     1       1.284   3.537   0.089  0.00  0.00    -0.063 C 
ATOM     26  C   UNL     1       1.347   2.010   0.000  0.00  0.00    +0.067 C 
ATOM     27  H   UNL     1       0.992   3.734  -1.971  0.00  0.00    -0.081 HD
BRANCH  24  28
ATOM     28  C   UNL     1       0.483   5.528  -1.033  0.00  0.00    +0.019 C 
BRANCH  28  29
ATOM     29  C   UNL     1      -0.110   6.029  -2.324  0.00  0.00    +0.199 C 
ATOM     30  O   UNL     1      -0.479   5.241  -3.169  0.00  0.00    -0.278 OA
ATOM     31  N   UNL     1      -0.229   7.354  -2.542  0.00  0.00    -0.303 N 
ATOM     32  C   UNL     1       0.208   8.322  -1.526  0.00  0.00    +0.107 C 
ATOM     33  C   UNL     1       1.183   9.311  -2.182  0.00  0.00    +0.019 C 
ATOM     34  C   UNL     1       0.514   9.943  -3.404  0.00  0.00    +0.003 C 
ATOM     35  C   UNL     1       0.176   8.853  -4.424  0.00  0.00    +0.019 C 
ATOM     36  C   UNL     1      -0.805   7.858  -3.796  0.00  0.00    +0.107 C 
ENDBRANCH  28  29
ENDBRANCH  24  28
ENDBRANCH  20  21
ENDBRANCH   4  20
TORSDOF 8
