REMARK  Name = ZINC63340044
REMARK  9 active torsions:
REMARK  status: ('A' for Active; 'I' for Inactive)
REMARK    1  A    between atoms: C_1  and  C_2
REMARK    2  A    between atoms: C_2  and  O_3
REMARK    3  A    between atoms: O_3  and  C_4
REMARK    4  A    between atoms: C_4  and  C_6
REMARK    5  A    between atoms: C_6  and  C_8
REMARK    6  A    between atoms: C_6  and  N_18
REMARK    7  A    between atoms: C_8  and  C_9
REMARK    8  A    between atoms: N_18  and  S_19
REMARK    9  A    between atoms: S_19  and  C_22
REMARK                            x       y       z     vdW  Elec       q    Type
REMARK                         _______ _______ _______ _____ _____    ______ ____
ROOT
ATOM      1  C   UNL     1       1.468  -2.353  -2.550  0.00  0.00    +0.189 C 
ENDROOT
BRANCH   1   2
ATOM      2  C   UNL     1       0.775  -1.794  -1.334  0.00  0.00    +0.326 C 
ATOM      3  O   UNL     1       0.314  -2.540  -0.504  0.00  0.00    -0.249 OA
BRANCH   2   4
ATOM      4  O   UNL     1       0.671  -0.465  -1.174  0.00  0.00    -0.464 OA
BRANCH   4   6
ATOM      5  C   UNL     1      -0.019   1.526   0.010  0.00  0.00    +0.048 C 
ATOM      6  C   UNL     1       0.002  -0.004   0.002  0.00  0.00    +0.229 C 
ENDBRANCH   4   6
ENDBRANCH   2   4
ENDBRANCH   1   2
BRANCH   1   7
ATOM      7  N   UNL     1       1.450  -3.817  -2.491  0.00  0.00    -0.176 NA
ATOM      8  H   UNL     1       2.137  -4.291  -1.996  0.00  0.00    +0.149 HD
BRANCH   7   9
ATOM      9  S   UNL     1       0.258  -4.663  -3.269  0.00  0.00    +0.059 S 
ATOM     10  O   UNL     1       0.527  -6.040  -3.050  0.00  0.00    -0.153 OA
ATOM     11  O   UNL     1      -0.975  -4.059  -2.900  0.00  0.00    -0.153 OA
BRANCH   9  12
ATOM     12  C   UNL     1       0.460  -4.378  -4.996  0.00  0.00    +0.107 A 
ATOM     13  C   UNL     1      -0.186  -3.306  -5.588  0.00  0.00    +0.030 A 
ATOM     14  C   UNL     1      -0.024  -3.087  -6.945  0.00  0.00    +0.019 A 
ATOM     15  C   UNL     1       0.771  -3.934  -7.679  0.00  0.00    +0.041 A 
ATOM     16  C   UNL     1       1.438  -5.029  -7.109  0.00  0.00    +0.058 A 
ATOM     17  C   UNL     1       1.259  -5.222  -5.729  0.00  0.00    +0.055 A 
ATOM     18  N   UNL     1       2.202  -5.789  -7.979  0.00  0.00    -0.316 N 
ATOM     19  H   UNL     1       2.687  -6.560  -7.644  0.00  0.00    +0.169 HD
ATOM     20  C   UNL     1       2.279  -5.470  -9.286  0.00  0.00    +0.289 A 
ATOM     21  O   UNL     1       2.898  -6.029 -10.172  0.00  0.00    -0.260 OA
ATOM     22  S   UNL     1       1.241  -4.020  -9.390  0.00  0.00    -0.027 S 
ENDBRANCH   9  12
ENDBRANCH   7   9
ENDBRANCH   1   7
BRANCH   1  23
ATOM     23  C   UNL     1       2.917  -1.862  -2.583  0.00  0.00    +0.065 C 
BRANCH  23  24
ATOM     24  C   UNL     1       3.573  -2.320  -3.860  0.00  0.00    -0.039 C 
ATOM     25  C   UNL     1       3.694  -1.618  -5.010  0.00  0.00    -0.001 A 
ATOM     26  C   UNL     1       3.265  -0.270  -5.401  0.00  0.00    +0.010 A 
ATOM     27  C   UNL     1       3.535   0.166  -6.653  0.00  0.00    +0.001 A 
ATOM     28  C   UNL     1       4.211  -0.635  -7.583  0.00  0.00    +0.002 A 
ATOM     29  C   UNL     1       4.635  -1.884  -7.298  0.00  0.00    +0.026 A 
ATOM     30  C   UNL     1       4.406  -2.444  -6.011  0.00  0.00    +0.043 A 
ATOM     31  N   UNL     1       4.714  -3.612  -5.499  0.00  0.00    -0.380 N 
ATOM     32  C   UNL     1       4.236  -3.656  -4.113  0.00  0.00    +0.144 C 
ATOM     33  H   UNL     1       5.182  -4.325  -5.960  0.00  0.00    +0.160 HD
ENDBRANCH  23  24
ENDBRANCH   1  23
TORSDOF 8
