REMARK  Name = ZINC40291403
REMARK  7 active torsions:
REMARK  status: ('A' for Active; 'I' for Inactive)
REMARK    1  A    between atoms: C_1  and  C_2
REMARK    2  A    between atoms: C_7  and  O_8
REMARK    3  A    between atoms: O_8  and  C_9
REMARK    4  A    between atoms: C_10  and  C_17
REMARK    5  A    between atoms: C_11  and  C_16
REMARK    6  A    between atoms: C_12  and  C_15
REMARK    7  A    between atoms: C_17  and  N_19
REMARK                            x       y       z     vdW  Elec       q    Type
REMARK                         _______ _______ _______ _____ _____    ______ ____
ROOT
ATOM      1  C   UNL     1      -0.037  -0.797   3.505  0.00  0.00    +0.250 A 
ATOM      2  C   UNL     1      -0.137  -0.107   4.726  0.00  0.00    +0.071 A 
ATOM      3  C   UNL     1      -0.248  -0.871   5.896  0.00  0.00    -0.013 A 
ATOM      4  C   UNL     1      -0.253  -2.250   5.770  0.00  0.00    +0.064 A 
ATOM      5  N   UNL     1      -0.154  -2.807   4.579  0.00  0.00    -0.151 NA
ATOM      6  N   UNL     1      -0.057  -2.121   3.500  0.00  0.00    -0.110 NA
ATOM      7  C   UNL     1      -0.371  -3.116   6.998  0.00  0.00    +0.068 C 
ATOM      8  C   UNL     1      -0.360  -0.212   7.246  0.00  0.00    +0.046 C 
ENDROOT
BRANCH   2   9
ATOM      9  C   UNL     1      -0.123   1.368   4.774  0.00  0.00    +0.082 C 
ATOM     10  S   UNL     1      -1.599   2.237   4.793  0.00  0.00    -0.035 S 
BRANCH   9  11
ATOM     11  N   UNL     1       1.050   2.031   4.804  0.00  0.00    -0.352 N 
ATOM     12  H   UNL     1       1.884   1.544   4.719  0.00  0.00    +0.143 HD
ATOM     13  H   UNL     1       1.059   2.995   4.909  0.00  0.00    +0.143 HD
ENDBRANCH   9  11
ENDBRANCH   2   9
BRANCH   1  14
ATOM     14  O   UNL     1       0.074  -0.112   2.341  0.00  0.00    -0.436 OA
BRANCH  14  21
ATOM     15  C   UNL     1       2.562  -1.093   1.432  0.00  0.00    +0.047 C 
ATOM     16  C   UNL     1       1.274  -1.327   0.685  0.00  0.00    -0.008 A 
ATOM     17  C   UNL     1       1.279  -2.053  -0.490  0.00  0.00    +0.007 A 
ATOM     18  C   UNL     1       0.098  -2.268  -1.176  0.00  0.00    +0.000 A 
ATOM     19  C   UNL     1      -1.091  -1.759  -0.686  0.00  0.00    +0.004 A 
ATOM     20  C   UNL     1      -1.101  -1.033   0.489  0.00  0.00    +0.046 A 
ATOM     21  C   UNL     1       0.082  -0.821   1.182  0.00  0.00    +0.133 A 
ENDBRANCH  14  21
ENDBRANCH   1  14
TORSDOF 4
