REMARK  Name = ZINC16024978
REMARK  8 active torsions:
REMARK  status: ('A' for Active; 'I' for Inactive)
REMARK    1  A    between atoms: C_1  and  C_2
REMARK    2  A    between atoms: C_2  and  C_3
REMARK    3  A    between atoms: C_3  and  C_5
REMARK    4  A    between atoms: C_3  and  N_6
REMARK    5  A    between atoms: C_11  and  C_29
REMARK    6  A    between atoms: C_29  and  C_30
REMARK    7  A    between atoms: C_30  and  C_31
REMARK    8  A    between atoms: C_30  and  C_32
REMARK                            x       y       z     vdW  Elec       q    Type
REMARK                         _______ _______ _______ _____ _____    ______ ____
ROOT
ATOM      1  N   UNL     1      -2.082  -0.162   1.273  0.00  0.00    -0.239 N 
ATOM      2  C   UNL     1      -1.617  -0.547   2.467  0.00  0.00    +0.227 C 
ATOM      3  O   UNL     1      -0.632  -1.230   2.648  0.00  0.00    -0.275 OA
ATOM      4  C   UNL     1      -2.511   0.002   3.556  0.00  0.00    +0.107 C 
ATOM      5  C   UNL     1      -3.263  -1.167   4.228  0.00  0.00    +0.068 C 
ATOM      6  N   UNL     1      -4.675  -0.710   4.319  0.00  0.00    -0.295 NA
ATOM      7  C   UNL     1      -4.902   0.014   3.054  0.00  0.00    +0.136 C 
ATOM      8  C   UNL     1      -3.593   0.790   2.766  0.00  0.00    +0.122 C 
ATOM      9  C   UNL     1      -3.183   0.596   1.324  0.00  0.00    +0.228 C 
ATOM     10  O   UNL     1      -3.764   1.053   0.363  0.00  0.00    -0.275 OA
ATOM     11  C   UNL     1      -6.078   0.944   3.157  0.00  0.00    +0.004 A 
ATOM     12  C   UNL     1      -6.371   2.015   3.971  0.00  0.00    +0.023 A 
ATOM     13  C   UNL     1      -7.571   2.690   3.822  0.00  0.00    +0.018 A 
ATOM     14  C   UNL     1      -8.472   2.286   2.853  0.00  0.00    +0.017 A 
ATOM     15  C   UNL     1      -8.181   1.215   2.035  0.00  0.00    +0.025 A 
ATOM     16  C   UNL     1      -6.977   0.530   2.179  0.00  0.00    +0.039 A 
ATOM     17  N   UNL     1      -6.462  -0.566   1.482  0.00  0.00    -0.283 N 
ATOM     18  C   UNL     1      -5.247  -0.931   1.936  0.00  0.00    +0.243 C 
ATOM     19  O   UNL     1      -4.564  -1.844   1.523  0.00  0.00    -0.273 OA
ATOM     20 BR   UNL     1      -7.976   4.161   4.940  0.00  0.00    -0.050 Br
ATOM     21  H   UNL     1      -5.304  -1.494   4.405  0.00  0.00    +0.123 HD
ATOM     22  H   UNL     1      -6.925  -1.013   0.757  0.00  0.00    +0.155 HD
ENDROOT
BRANCH   1  23
ATOM     23  C   UNL     1      -1.433  -0.534   0.013  0.00  0.00    +0.081 C 
ATOM     24  C   UNL     1      -1.416  -2.058  -0.121  0.00  0.00    +0.028 C 
BRANCH  23  26
ATOM     25  C   UNL     1      -0.019   1.526   0.010  0.00  0.00    +0.006 C 
ATOM     26  C   UNL     1       0.002  -0.004   0.002  0.00  0.00    +0.019 C 
ENDBRANCH  23  26
ENDBRANCH   1  23
BRANCH   5  27
ATOM     27  C   UNL     1      -2.696  -1.431   5.624  0.00  0.00    +0.022 C 
BRANCH  27  28
ATOM     28  C   UNL     1      -3.368  -2.669   6.222  0.00  0.00    -0.016 C 
ATOM     29  C   UNL     1      -2.997  -3.901   5.394  0.00  0.00    +0.007 C 
ATOM     30  C   UNL     1      -2.894  -2.861   7.664  0.00  0.00    +0.007 C 
ENDBRANCH  27  28
ENDBRANCH   5  27
TORSDOF 4
