REMARK  Name = ZINC39666118
REMARK  9 active torsions:
REMARK  status: ('A' for Active; 'I' for Inactive)
REMARK    1  A    between atoms: C_1  and  C_2
REMARK    2  A    between atoms: C_5  and  O_8
REMARK    3  A    between atoms: O_8  and  C_9
REMARK    4  A    between atoms: C_9  and  C_11
REMARK    5  A    between atoms: C_9  and  C_12
REMARK    6  A    between atoms: C_12  and  N_13
REMARK    7  A    between atoms: C_14  and  C_16
REMARK    8  A    between atoms: C_27  and  C_29
REMARK    9  A    between atoms: C_32  and  C_37
REMARK                            x       y       z     vdW  Elec       q    Type
REMARK                         _______ _______ _______ _____ _____    ______ ____
ROOT
ATOM      1  C   UNL     1       4.479  -6.835   0.091  0.00  0.00    +0.100 C 
ATOM      2  C   UNL     1       5.445  -6.162   1.091  0.00  0.00    +0.121 C 
ATOM      3  N   UNL     1       6.094  -7.289   1.801  0.00  0.00    -0.296 N 
ATOM      4  C   UNL     1       6.324  -8.305   0.747  0.00  0.00    +0.115 C 
ATOM      5  C   UNL     1       5.061  -8.240  -0.136  0.00  0.00    -0.004 C 
ATOM      6  C   UNL     1       4.058  -9.304   0.301  0.00  0.00    -0.010 C 
ATOM      7  C   UNL     1       4.637 -10.692   0.014  0.00  0.00    -0.082 C 
ATOM      8  N   UNL     1       4.921 -10.819  -1.421  0.00  0.00    +0.379 N 
ATOM      9  C   UNL     1       5.954  -9.853  -1.813  0.00  0.00    -0.082 C 
ATOM     10  C   UNL     1       5.431  -8.429  -1.603  0.00  0.00    -0.010 C 
ATOM     11  C   UNL     1       6.406  -7.371   3.110  0.00  0.00    +0.250 C 
ATOM     12  O   UNL     1       6.234  -6.412   3.837  0.00  0.00    -0.270 OA
ATOM     13  H   UNL     1       5.245 -11.754  -1.617  0.00  0.00    -0.086 HD
ATOM     14  H   UNL     1       4.078 -10.640  -1.946  0.00  0.00    -0.086 HD
ENDROOT
BRANCH  11  15
ATOM     15  C   UNL     1       6.956  -8.627   3.660  0.00  0.00    +0.075 A 
ATOM     16  C   UNL     1       7.913  -9.347   2.942  0.00  0.00    +0.016 A 
ATOM     17  C   UNL     1       8.424 -10.518   3.460  0.00  0.00    +0.007 A 
ATOM     18  C   UNL     1       7.991 -10.983   4.691  0.00  0.00    -0.012 A 
ATOM     19  C   UNL     1       7.043 -10.277   5.410  0.00  0.00    +0.162 A 
ATOM     20  C   UNL     1       6.526  -9.096   4.904  0.00  0.00    +0.171 A 
ATOM     21  F   UNL     1       5.605  -8.402   5.609  0.00  0.00    -0.202 F 
ATOM     22  F   UNL     1       6.626 -10.738   6.610  0.00  0.00    -0.202 F 
ATOM     23  C   UNL     1       8.555 -12.265   5.248  0.00  0.00    +0.047 C 
ENDBRANCH  11  15
BRANCH   1  25
ATOM     24  N   UNL     1       2.024  -7.040  -0.131  0.00  0.00    -0.312 N 
ATOM     25  C   UNL     1       3.095  -6.929   0.680  0.00  0.00    +0.218 C 
ATOM     26  O   UNL     1       2.945  -6.904   1.883  0.00  0.00    -0.275 OA
ATOM     27  H   UNL     1       2.143  -7.060  -1.093  0.00  0.00    +0.149 HD
BRANCH  24  28
ATOM     28  C   UNL     1       0.678  -7.131   0.442  0.00  0.00    +0.148 C 
BRANCH  28  29
ATOM     29  C   UNL     1      -0.349  -7.249  -0.686  0.00  0.00    +0.187 C 
ATOM     30  C   UNL     1      -1.760  -7.219  -0.095  0.00  0.00    +0.053 C 
BRANCH  29  31
ATOM     31  O   UNL     1      -0.151  -8.480  -1.384  0.00  0.00    -0.488 OA
BRANCH  31  36
ATOM     32  C   UNL     1      -1.721  -8.635  -6.791  0.00  0.00    +0.044 C 
ATOM     33  C   UNL     1      -1.301  -8.594  -5.344  0.00  0.00    -0.050 A 
ATOM     34  C   UNL     1      -1.563  -7.471  -4.581  0.00  0.00    +0.007 A 
ATOM     35  C   UNL     1      -1.179  -7.431  -3.255  0.00  0.00    +0.046 A 
ATOM     36  C   UNL     1      -0.530  -8.518  -2.688  0.00  0.00    +0.121 A 
ATOM     37  C   UNL     1      -0.269  -9.644  -3.456  0.00  0.00    +0.046 A 
ATOM     38  C   UNL     1      -0.659  -9.681  -4.780  0.00  0.00    +0.007 A 
ENDBRANCH  31  36
ENDBRANCH  29  31
ENDBRANCH  28  29
ENDBRANCH  24  28
ENDBRANCH   1  25
TORSDOF 6
