REMARK  Name = ZINC39324866
REMARK  10 active torsions:
REMARK  status: ('A' for Active; 'I' for Inactive)
REMARK    1  A    between atoms: C_1  and  O_2
REMARK    2  A    between atoms: O_2  and  C_3
REMARK    3  A    between atoms: C_7  and  C_17
REMARK    4  A    between atoms: C_14  and  O_15
REMARK    5  A    between atoms: O_15  and  C_16
REMARK    6  A    between atoms: C_17  and  N_18
REMARK    7  A    between atoms: N_18  and  C_19
REMARK    8  A    between atoms: N_18  and  S_25
REMARK    9  A    between atoms: C_19  and  C_20
REMARK   10  A    between atoms: S_25  and  C_28
REMARK                            x       y       z     vdW  Elec       q    Type
REMARK                         _______ _______ _______ _____ _____    ______ ____
ROOT
ATOM      1  C   UNL     1      -6.946  -0.236  -1.171  0.00  0.00    +0.126 C 
ENDROOT
BRANCH   1   6
ATOM      2  C   UNL     1      -1.274  -0.486   0.179  0.00  0.00    +0.162 A 
ATOM      3  C   UNL     1      -2.422   0.237   0.123  0.00  0.00    +0.059 A 
ATOM      4  C   UNL     1      -3.706  -0.467   0.136  0.00  0.00    -0.003 A 
ATOM      5  C   UNL     1      -4.877   0.225   0.080  0.00  0.00    -0.003 C 
ATOM      6  C   UNL     1      -6.162  -0.579   0.098  0.00  0.00    +0.114 C 
ATOM      7  C   UNL     1      -6.041  -2.084   0.175  0.00  0.00    +0.225 C 
ATOM      8  O   UNL     1      -7.041  -2.777   0.191  0.00  0.00    -0.275 OA
ATOM      9  N   UNL     1      -4.845  -2.643   0.224  0.00  0.00    -0.284 N 
ATOM     10  C   UNL     1      -3.711  -1.940   0.209  0.00  0.00    +0.044 A 
ATOM     11  C   UNL     1      -2.477  -2.604   0.264  0.00  0.00    +0.073 A 
ATOM     12  C   UNL     1      -1.300  -1.892   0.243  0.00  0.00    +0.163 A 
ATOM     13  H   UNL     1      -4.789  -3.611   0.274  0.00  0.00    +0.155 HD
BRANCH   2  15
ATOM     14  C   UNL     1      -0.110   1.587   0.102  0.00  0.00    +0.277 C 
ATOM     15  O   UNL     1      -0.077   0.160   0.168  0.00  0.00    -0.491 OA
ENDBRANCH   2  15
BRANCH  12  16
ATOM     16  O   UNL     1      -0.126  -2.567   0.291  0.00  0.00    -0.491 OA
ATOM     17  C   UNL     1      -0.200  -3.993   0.355  0.00  0.00    +0.277 C 
ENDBRANCH  12  16
ENDBRANCH   1   6
BRANCH   1  18
ATOM     18  N   UNL     1      -8.188  -1.014  -1.202  0.00  0.00    -0.168 NA
BRANCH  18  19
ATOM     19  S   UNL     1      -8.461  -2.088  -2.432  0.00  0.00    +0.061 S 
ATOM     20  O   UNL     1      -9.868  -2.132  -2.627  0.00  0.00    -0.153 OA
ATOM     21  O   UNL     1      -7.558  -1.749  -3.476  0.00  0.00    -0.153 OA
BRANCH  19  22
ATOM     22  C   UNL     1      -7.983  -3.680  -1.850  0.00  0.00    +0.106 A 
ATOM     23  C   UNL     1      -6.721  -4.169  -2.132  0.00  0.00    +0.030 A 
ATOM     24  C   UNL     1      -6.345  -5.418  -1.676  0.00  0.00    +0.022 A 
ATOM     25  C   UNL     1      -7.232  -6.180  -0.936  0.00  0.00    +0.041 A 
ATOM     26  C   UNL     1      -8.495  -5.690  -0.654  0.00  0.00    +0.022 A 
ATOM     27  C   UNL     1      -8.868  -4.438  -1.106  0.00  0.00    +0.030 A 
ATOM     28 CL   UNL     1      -6.761  -7.749  -0.362  0.00  0.00    -0.084 Cl
ENDBRANCH  19  22
ENDBRANCH  18  19
BRANCH  18  29
ATOM     29  C   UNL     1      -9.187  -0.841  -0.145  0.00  0.00    +0.183 C 
BRANCH  29  30
ATOM     30  C   UNL     1     -10.079   0.326  -0.482  0.00  0.00    +0.120 A 
ATOM     31  C   UNL     1     -11.224   0.263  -1.184  0.00  0.00    +0.046 A 
ATOM     32  C   UNL     1     -11.730   1.581  -1.263  0.00  0.00    +0.041 A 
ATOM     33  C   UNL     1     -10.863   2.371  -0.604  0.00  0.00    +0.195 A 
ATOM     34  O   UNL     1      -9.868   1.604  -0.128  0.00  0.00    -0.466 OA
ENDBRANCH  29  30
ENDBRANCH  18  29
ENDBRANCH   1  18
TORSDOF 8
