REMARK  Name = ZINC12565113
REMARK  13 active torsions:
REMARK  status: ('A' for Active; 'I' for Inactive)
REMARK    1  A    between atoms: C_1  and  C_2
REMARK    2  A    between atoms: C_5  and  N_8
REMARK    3  A    between atoms: N_8  and  S_9
REMARK    4  A    between atoms: S_9  and  C_12
REMARK    5  A    between atoms: C_15  and  N_21
REMARK    6  A    between atoms: C_16  and  N_18
REMARK    7  A    between atoms: N_21  and  C_22
REMARK    8  A    between atoms: C_22  and  C_23
REMARK    9  A    between atoms: C_23  and  C_25
REMARK   10  A    between atoms: C_23  and  N_28
REMARK   11  A    between atoms: C_25  and  C_26
REMARK   12  A    between atoms: C_25  and  C_27
REMARK   13  A    between atoms: N_31  and  C_34
REMARK                            x       y       z     vdW  Elec       q    Type
REMARK                         _______ _______ _______ _____ _____    ______ ____
ROOT
ATOM      1  C   UNL     1       3.278  -1.896   2.142  0.00  0.00    +0.108 A 
ATOM      2  C   UNL     1       4.152  -1.317   3.044  0.00  0.00    +0.030 A 
ATOM      3  C   UNL     1       4.058  -1.616   4.388  0.00  0.00    +0.027 A 
ATOM      4  C   UNL     1       3.085  -2.501   4.835  0.00  0.00    +0.058 A 
ATOM      5  C   UNL     1       2.209  -3.081   3.926  0.00  0.00    +0.149 A 
ATOM      6  C   UNL     1       2.305  -2.773   2.583  0.00  0.00    +0.063 A 
ENDROOT
BRANCH   1   7
ATOM      7  S   UNL     1       3.401  -1.510   0.427  0.00  0.00    +0.059 S 
ATOM      8  O   UNL     1       2.816  -2.597  -0.277  0.00  0.00    -0.153 OA
ATOM      9  O   UNL     1       4.739  -1.088   0.200  0.00  0.00    -0.153 OA
BRANCH   7  10
ATOM     10  N   UNL     1       2.436  -0.193   0.151  0.00  0.00    -0.187 NA
ATOM     11  H   UNL     1       1.656  -0.274  -0.419  0.00  0.00    +0.148 HD
BRANCH  10  16
ATOM     12  C   UNL     1       2.281   5.074   2.402  0.00  0.00    +0.007 C 
ATOM     13  C   UNL     1       1.942   3.728   1.758  0.00  0.00    -0.014 C 
ATOM     14  C   UNL     1       2.728   3.574   0.454  0.00  0.00    +0.005 C 
ATOM     15  C   UNL     1       2.388   2.228  -0.190  0.00  0.00    +0.020 C 
ATOM     16  C   UNL     1       2.761   1.095   0.768  0.00  0.00    +0.077 C 
ATOM     17  C   UNL     1       1.975   1.250   2.071  0.00  0.00    +0.020 C 
ATOM     18  C   UNL     1       2.315   2.595   2.716  0.00  0.00    +0.005 C 
ENDBRANCH  10  16
ENDBRANCH   7  10
ENDBRANCH   1   7
BRANCH   5  19
ATOM     19  N   UNL     1       1.171  -4.025   4.397  0.00  0.00    +0.058 N 
ATOM     20  O   UNL     1       0.884  -4.991   3.730  0.00  0.00    -0.126 OA
ATOM     21  O   UNL     1       0.608  -3.829   5.450  0.00  0.00    -0.126 OA
ENDBRANCH   5  19
BRANCH   4  22
ATOM     22  N   UNL     1       2.987  -2.807   6.194  0.00  0.00    -0.341 N 
ATOM     23  H   UNL     1       2.270  -3.377   6.513  0.00  0.00    +0.146 HD
BRANCH  22  24
ATOM     24  C   UNL     1       3.969  -2.267   7.139  0.00  0.00    +0.120 C 
BRANCH  24  25
ATOM     25  C   UNL     1       3.712  -2.850   8.530  0.00  0.00    +0.076 C 
BRANCH  25  26
ATOM     26  N   UNL     1       3.778  -4.316   8.466  0.00  0.00    -0.301 NA
ATOM     27  C   UNL     1       3.003  -4.926   9.556  0.00  0.00    +0.066 C 
ATOM     28  C   UNL     1       3.048  -6.449   9.419  0.00  0.00    -0.064 C 
ATOM     29  N   UNL     1       4.443  -6.905   9.473  0.00  0.00    +0.379 N 
ATOM     30  C   UNL     1       5.198  -6.307   8.364  0.00  0.00    -0.064 C 
ATOM     31  C   UNL     1       5.171  -4.782   8.492  0.00  0.00    +0.066 C 
ATOM     32  C   UNL     1       4.485  -8.369   9.359  0.00  0.00    -0.096 C 
ATOM     33  H   UNL     1       4.855  -6.624  10.350  0.00  0.00    -0.082 HD
ENDBRANCH  25  26
BRANCH  25  34
ATOM     34  C   UNL     1       4.774  -2.334   9.503  0.00  0.00    +0.001 C 
ATOM     35  C   UNL     1       4.741  -0.804   9.529  0.00  0.00    +0.009 C 
ATOM     36  C   UNL     1       4.486  -2.874  10.905  0.00  0.00    +0.009 C 
ENDBRANCH  25  34
ENDBRANCH  24  25
ENDBRANCH  22  24
ENDBRANCH   4  22
TORSDOF 9
