REMARK  Name = ZINC11980581
REMARK  10 active torsions:
REMARK  status: ('A' for Active; 'I' for Inactive)
REMARK    1  A    between atoms: C_1  and  C_2
REMARK    2  A    between atoms: C_2  and  O_3
REMARK    3  A    between atoms: O_3  and  C_4
REMARK    4  A    between atoms: C_9  and  N_12
REMARK    5  A    between atoms: C_13  and  C_15
REMARK    6  A    between atoms: C_23  and  C_25
REMARK    7  A    between atoms: C_23  and  C_26
REMARK    8  A    between atoms: C_23  and  N_75
REMARK    9  A    between atoms: C_26  and  C_27
REMARK   10  A    between atoms: C_27  and  C_28
REMARK                            x       y       z     vdW  Elec       q    Type
REMARK                         _______ _______ _______ _____ _____    ______ ____
ROOT
ATOM      1  C   UNL     1       1.280   1.980   0.001  0.00  0.00    +0.082 C 
ATOM      2  C   UNL     1       2.096   2.005   1.295  0.00  0.00    +0.020 C 
ATOM      3  C   UNL     1       2.578   1.181   0.103  0.00  0.00    -0.021 C 
ATOM      4  C   UNL     1       3.795   1.691  -0.675  0.00  0.00    -0.011 C 
ATOM      5  C   UNL     1       3.841   0.983  -2.033  0.00  0.00    -0.078 C 
ATOM      6  C   UNL     1       2.596  -0.933  -1.211  0.00  0.00    -0.078 C 
ATOM      7  C   UNL     1       2.472  -0.345   0.199  0.00  0.00    -0.011 C 
ATOM      8  N   UNL     1       3.871  -0.479  -1.807  0.00  0.00    +0.381 N 
ATOM      9  H   UNL     1       4.637  -0.699  -1.159  0.00  0.00    -0.081 HD
ENDROOT
BRANCH   1  11
ATOM     10  N   UNL     1      -0.790   1.182  -1.093  0.00  0.00    -0.312 N 
ATOM     11  C   UNL     1      -0.014   1.209   0.009  0.00  0.00    +0.217 C 
ATOM     12  O   UNL     1      -0.356   0.608   1.005  0.00  0.00    -0.275 OA
ATOM     13  H   UNL     1      -0.516   1.662  -1.891  0.00  0.00    +0.149 HD
BRANCH  10  19
ATOM     14  C   UNL     1      -4.670  -1.885  -3.241  0.00  0.00    +0.403 C 
ATOM     15  O   UNL     1      -5.473  -1.337  -3.970  0.00  0.00    -0.226 OA
ATOM     16  N   UNL     1      -4.045  -1.181  -2.276  0.00  0.00    -0.267 N 
ATOM     17  C   UNL     1      -4.325   0.249  -2.093  0.00  0.00    +0.113 C 
ATOM     18  C   UNL     1      -3.001   1.019  -2.126  0.00  0.00    +0.041 C 
ATOM     19  C   UNL     1      -2.045   0.427  -1.087  0.00  0.00    +0.076 C 
ATOM     20  C   UNL     1      -1.762  -1.038  -1.429  0.00  0.00    +0.041 C 
ATOM     21  C   UNL     1      -3.072  -1.830  -1.387  0.00  0.00    +0.113 C 
BRANCH  14  22
ATOM     22  O   UNL     1      -4.404  -3.196  -3.398  0.00  0.00    -0.451 OA
BRANCH  22  24
ATOM     23  C   UNL     1      -4.683  -5.358  -4.482  0.00  0.00    +0.048 C 
ATOM     24  C   UNL     1      -5.113  -3.890  -4.458  0.00  0.00    +0.230 C 
ENDBRANCH  22  24
ENDBRANCH  14  22
ENDBRANCH  10  19
ENDBRANCH   1  11
BRANCH   8  25
ATOM     25  C   UNL     1       4.108  -1.181  -3.084  0.00  0.00    -0.071 C 
ATOM     26  C   UNL     1       3.096  -0.734  -4.142  0.00  0.00    -0.013 C 
BRANCH  25  27
ATOM     27  C   UNL     1       5.524  -0.861  -3.566  0.00  0.00    -0.011 C 
BRANCH  27  28
ATOM     28  C   UNL     1       6.541  -1.419  -2.568  0.00  0.00    +0.036 C 
BRANCH  28  29
ATOM     29  C   UNL     1       7.936  -1.103  -3.042  0.00  0.00    -0.022 A 
ATOM     30  C   UNL     1       8.735  -1.906  -3.762  0.00  0.00    +0.087 A 
ATOM     31  N   UNL     1       9.928  -1.280  -4.006  0.00  0.00    -0.360 N 
ATOM     32  H   UNL     1      10.665  -1.662  -4.506  0.00  0.00    +0.165 HD
ATOM     33  C   UNL     1       9.924  -0.027  -3.434  0.00  0.00    +0.047 A 
ATOM     34  C   UNL     1       8.674   0.141  -2.811  0.00  0.00    +0.003 A 
ATOM     35  C   UNL     1       8.386   1.329  -2.137  0.00  0.00    +0.010 A 
ATOM     36  C   UNL     1       9.318   2.328  -2.096  0.00  0.00    +0.001 A 
ATOM     37  C   UNL     1      10.550   2.169  -2.714  0.00  0.00    +0.002 A 
ATOM     38  C   UNL     1      10.857   1.003  -3.380  0.00  0.00    +0.026 A 
ENDBRANCH  28  29
ENDBRANCH  27  28
ENDBRANCH  25  27
ENDBRANCH   8  25
TORSDOF 8
