REMARK  Name = ZINC12501426
REMARK  7 active torsions:
REMARK  status: ('A' for Active; 'I' for Inactive)
REMARK    1  A    between atoms: C_6  and  O_7
REMARK    2  A    between atoms: O_7  and  C_8
REMARK    3  A    between atoms: C_8  and  C_9
REMARK    4  A    between atoms: N_11  and  N_12
REMARK    5  A    between atoms: N_12  and  C_13
REMARK    6  A    between atoms: C_13  and  N_15
REMARK    7  A    between atoms: C_16  and  C_18
REMARK                            x       y       z     vdW  Elec       q    Type
REMARK                         _______ _______ _______ _____ _____    ______ ____
ROOT
ATOM      1  N   UNL     1       3.067   7.821   0.013  0.00  0.00    -0.245 N 
ATOM      2  H   UNL     1       2.167   8.181   0.024  0.00  0.00    +0.172 HD
ENDROOT
BRANCH   1   5
ATOM      3  C   UNL     1       2.209   5.601   0.010  0.00  0.00    +0.267 C 
ATOM      4  O   UNL     1       1.083   6.051   0.023  0.00  0.00    -0.271 OA
ATOM      5  N   UNL     1       3.268   6.435   0.004  0.00  0.00    -0.232 N 
ATOM      6  H   UNL     1       4.169   6.075  -0.006  0.00  0.00    +0.173 HD
BRANCH   3   7
ATOM      7  C   UNL     1       2.425   4.109   0.001  0.00  0.00    +0.326 C 
BRANCH   7   8
ATOM      8  O   UNL     1       1.159   3.445   0.009  0.00  0.00    -0.483 OA
BRANCH   8  14
ATOM      9  C   UNL     1      -0.017   1.377   0.010  0.00  0.00    +0.047 A 
ATOM     10  C   UNL     1       0.002  -0.004   0.002  0.00  0.00    +0.023 A 
ATOM     11  C   UNL     1       1.209  -0.680  -0.013  0.00  0.00    +0.041 A 
ATOM     12  C   UNL     1       2.399   0.025  -0.020  0.00  0.00    +0.023 A 
ATOM     13  C   UNL     1       2.385   1.406  -0.013  0.00  0.00    +0.047 A 
ATOM     14  C   UNL     1       1.176   2.086   0.002  0.00  0.00    +0.121 A 
ATOM     15 CL   UNL     1       1.230  -2.416  -0.023  0.00  0.00    -0.084 Cl
ENDBRANCH   8  14
ENDBRANCH   7   8
ENDBRANCH   3   7
ENDBRANCH   1   5
BRANCH   1  16
ATOM     16  C   UNL     1       4.126   8.655   0.008  0.00  0.00    +0.153 C 
ATOM     17  S   UNL     1       3.881  10.350   0.018  0.00  0.00    -0.017 S 
BRANCH  16  18
ATOM     18  N   UNL     1       5.378   8.155  -0.007  0.00  0.00    -0.263 N 
ATOM     19  C   UNL     1       6.437   8.989  -0.012  0.00  0.00    +0.251 C 
ATOM     20  O   UNL     1       6.263  10.192  -0.005  0.00  0.00    -0.270 OA
ATOM     21  H   UNL     1       5.516   7.195  -0.013  0.00  0.00    +0.157 HD
BRANCH  19  22
ATOM     22  C   UNL     1       7.808   8.441  -0.028  0.00  0.00    +0.055 A 
ATOM     23  C   UNL     1       8.011   7.059  -0.037  0.00  0.00    +0.016 A 
ATOM     24  C   UNL     1       9.293   6.554  -0.051  0.00  0.00    +0.021 A 
ATOM     25  C   UNL     1      10.380   7.413  -0.058  0.00  0.00    +0.042 A 
ATOM     26  C   UNL     1      10.187   8.784  -0.048  0.00  0.00    +0.040 A 
ATOM     27  C   UNL     1       8.908   9.304  -0.040  0.00  0.00    +0.054 A 
ATOM     28 CL   UNL     1       8.666  11.023  -0.036  0.00  0.00    -0.083 Cl
ATOM     29 CL   UNL     1      11.992   6.768  -0.076  0.00  0.00    -0.083 Cl
ENDBRANCH  19  22
ENDBRANCH  16  18
ENDBRANCH   1  16
TORSDOF 7
