REMARK  Name = ZINC19651304
REMARK  9 active torsions:
REMARK  status: ('A' for Active; 'I' for Inactive)
REMARK    1  A    between atoms: C_1  and  C_2
REMARK    2  A    between atoms: C_5  and  N_8
REMARK    3  A    between atoms: C_9  and  C_11
REMARK    4  A    between atoms: C_11  and  C_13
REMARK    5  A    between atoms: C_11  and  N_14
REMARK    6  A    between atoms: C_25  and  C_29
REMARK    7  A    between atoms: C_29  and  C_30
REMARK    8  A    between atoms: C_29  and  C_31
REMARK    9  A    between atoms: C_29  and  C_32
REMARK                            x       y       z     vdW  Elec       q    Type
REMARK                         _______ _______ _______ _____ _____    ______ ____
ROOT
ATOM      1  N   UNL     1       1.137   1.919   0.003  0.00  0.00    -0.199 N 
ATOM      2  C   UNL     1      -0.011   1.214   0.018  0.00  0.00    +0.279 A 
ATOM      3  O   UNL     1       0.008  -0.005   0.020  0.00  0.00    -0.265 OA
ATOM      4  C   UNL     1      -1.258   1.925   0.026  0.00  0.00    +0.079 A 
ATOM      5  C   UNL     1      -2.611   1.373   0.047  0.00  0.00    -0.023 A 
ATOM      6  C   UNL     1      -3.633   2.256   0.058  0.00  0.00    -0.004 A 
ATOM      7  S   UNL     1      -2.861   3.852   0.049  0.00  0.00    -0.071 S 
ATOM      8  C   UNL     1      -1.165   3.326   0.030  0.00  0.00    +0.138 A 
ATOM      9  N   UNL     1       0.002   3.963   0.015  0.00  0.00    -0.123 NA
ATOM     10  N   UNL     1       1.117   3.317   0.002  0.00  0.00    -0.061 NA
ATOM     11  C   UNL     1      -5.099   1.947   0.075  0.00  0.00    +0.046 C 
ATOM     12  C   UNL     1      -5.277   0.469   0.452  0.00  0.00    -0.000 C 
ATOM     13  C   UNL     1      -4.320  -0.374  -0.396  0.00  0.00    +0.009 C 
ATOM     14  C   UNL     1      -2.878  -0.129   0.051  0.00  0.00    +0.037 C 
ENDROOT
BRANCH  12  15
ATOM     15  C   UNL     1      -6.720   0.040   0.176  0.00  0.00    -0.035 C 
ATOM     16  C   UNL     1      -6.890  -1.438   0.534  0.00  0.00    +0.011 C 
ATOM     17  C   UNL     1      -7.674   0.883   1.024  0.00  0.00    +0.011 C 
ATOM     18  C   UNL     1      -7.038   0.245  -1.307  0.00  0.00    +0.011 C 
ENDBRANCH  12  15
BRANCH   1  19
ATOM     19  C   UNL     1       2.420   1.212  -0.011  0.00  0.00    +0.195 C 
ATOM     20  C   UNL     1       3.229   1.599   1.228  0.00  0.00    +0.043 C 
BRANCH  19  22
ATOM     21  N   UNL     1       4.405   1.058  -1.478  0.00  0.00    -0.284 N 
ATOM     22  C   UNL     1       3.188   1.590  -1.251  0.00  0.00    +0.242 C 
ATOM     23  O   UNL     1       2.710   2.373  -2.045  0.00  0.00    -0.273 OA
ATOM     24  H   UNL     1       4.871   0.408  -0.723  0.00  0.00    +0.155 HD
BRANCH  21  29
ATOM     25  C   UNL     1       7.128   2.174  -6.329  0.00  0.00    +0.044 C 
ATOM     26  C   UNL     1       6.404   1.878  -5.040  0.00  0.00    -0.050 A 
ATOM     27  C   UNL     1       5.617   2.850  -4.452  0.00  0.00    +0.005 A 
ATOM     28  C   UNL     1       4.953   2.582  -3.271  0.00  0.00    +0.023 A 
ATOM     29  C   UNL     1       5.077   1.334  -2.675  0.00  0.00    +0.033 A 
ATOM     30  C   UNL     1       5.873   0.361  -3.265  0.00  0.00    +0.023 A 
ATOM     31  C   UNL     1       6.530   0.634  -4.449  0.00  0.00    +0.005 A 
ENDBRANCH  21  29
ENDBRANCH  19  22
ENDBRANCH   1  19
TORSDOF 4
