REMARK  Name = ZINC12931868
REMARK  5 active torsions:
REMARK  status: ('A' for Active; 'I' for Inactive)
REMARK    1  A    between atoms: C_5  and  C_6
REMARK    2  A    between atoms: N_8  and  N_9
REMARK    3  A    between atoms: C_10  and  C_12
REMARK    4  A    between atoms: C_12  and  C_13
REMARK    5  A    between atoms: C_13  and  N_14
REMARK                            x       y       z     vdW  Elec       q    Type
REMARK                         _______ _______ _______ _____ _____    ______ ____
ROOT
ATOM      1  N   UNL     1      -0.288   1.272  -2.443  0.00  0.00    -0.234 N 
ATOM      2  C   UNL     1      -0.742   1.585  -1.213  0.00  0.00    +0.231 C 
ATOM      3  O   UNL     1      -1.736   2.268  -1.088  0.00  0.00    -0.274 OA
ATOM      4  H   UNL     1       0.507   0.726  -2.543  0.00  0.00    +0.173 HD
ENDROOT
BRANCH   1   7
ATOM      5  C   UNL     1      -0.513   1.424  -4.808  0.00  0.00    +0.267 C 
ATOM      6  O   UNL     1       0.485   0.738  -4.933  0.00  0.00    -0.268 OA
ATOM      7  N   UNL     1      -0.966   1.736  -3.578  0.00  0.00    -0.230 N 
ATOM      8  H   UNL     1      -1.761   2.283  -3.479  0.00  0.00    +0.173 HD
BRANCH   5  13
ATOM      9  C   UNL     1      -0.928   1.706  -7.332  0.00  0.00    +0.024 A 
ATOM     10  C   UNL     1      -1.769   2.274  -8.281  0.00  0.00    -0.036 A 
ATOM     11  C   UNL     1      -2.801   3.011  -7.811  0.00  0.00    -0.006 A 
ATOM     12  S   UNL     1      -2.696   2.912  -6.097  0.00  0.00    -0.088 S 
ATOM     13  C   UNL     1      -1.222   1.909  -5.996  0.00  0.00    +0.076 A 
ATOM     14  C   UNL     1      -3.818   3.769  -8.634  0.00  0.00    +0.043 C 
ATOM     15  C   UNL     1      -4.684   2.726  -9.360  0.00  0.00    +0.005 C 
ATOM     16  C   UNL     1      -3.954   2.187 -10.568  0.00  0.00    +0.001 C 
ATOM     17  C   UNL     1      -2.789   1.271 -10.293  0.00  0.00    +0.005 C 
ATOM     18  C   UNL     1      -1.566   2.034  -9.782  0.00  0.00    +0.036 C 
ENDBRANCH   5  13
ENDBRANCH   1   7
BRANCH   2  19
ATOM     19  C   UNL     1      -0.013   1.086   0.008  0.00  0.00    +0.117 C 
BRANCH  19  20
ATOM     20  C   UNL     1      -0.729   1.579   1.267  0.00  0.00    +0.127 C 
BRANCH  20  21
ATOM     21  N   UNL     1      -0.020   1.094   2.454  0.00  0.00    -0.224 N 
ATOM     22  C   UNL     1       0.978   1.762   3.067  0.00  0.00    +0.247 C 
ATOM     23  O   UNL     1       1.442   2.838   2.753  0.00  0.00    -0.273 OA
ATOM     24  C   UNL     1       1.396   0.889   4.227  0.00  0.00    +0.113 C 
ATOM     25  C   UNL     1       1.179   1.619   5.548  0.00  0.00    +0.035 C 
ATOM     26  C   UNL     1       1.581   0.709   6.710  0.00  0.00    +0.003 C 
ATOM     27  C   UNL     1       3.052   0.314   6.563  0.00  0.00    +0.000 C 
ATOM     28  C   UNL     1       3.249  -0.439   5.245  0.00  0.00    +0.003 C 
ATOM     29  C   UNL     1       2.854   0.467   4.077  0.00  0.00    +0.035 C 
ATOM     30  N   UNL     1       0.510  -0.278   4.132  0.00  0.00    -0.285 N 
ATOM     31  C   UNL     1      -0.287  -0.065   3.068  0.00  0.00    +0.309 C 
ATOM     32  O   UNL     1      -1.150  -0.840   2.704  0.00  0.00    -0.252 OA
ATOM     33  H   UNL     1       0.498  -1.048   4.722  0.00  0.00    +0.151 HD
ENDBRANCH  20  21
ENDBRANCH  19  20
ENDBRANCH   2  19
TORSDOF 5
