REMARK  Name = ZINC40815131
REMARK  7 active torsions:
REMARK  status: ('A' for Active; 'I' for Inactive)
REMARK    1  A    between atoms: C_1  and  C_2
REMARK    2  A    between atoms: C_5  and  S_8
REMARK    3  A    between atoms: S_8  and  N_11
REMARK    4  A    between atoms: N_11  and  N_12
REMARK    5  A    between atoms: C_19  and  C_31
REMARK    6  A    between atoms: C_20  and  C_22
REMARK    7  A    between atoms: C_27  and  C_30
REMARK                            x       y       z     vdW  Elec       q    Type
REMARK                         _______ _______ _______ _____ _____    ______ ____
ROOT
ATOM      1  N   UNL     1       2.700  -4.273   0.724  0.00  0.00    -0.170 NA
ATOM      2  C   UNL     1       3.832  -4.880   0.903  0.00  0.00    +0.071 C 
ATOM      3  C   UNL     1       4.360  -5.926  -0.067  0.00  0.00    +0.058 C 
ATOM      4  C   UNL     1       4.947  -7.083   0.747  0.00  0.00    +0.014 C 
ATOM      5  C   UNL     1       6.160  -6.614   1.555  0.00  0.00    +0.075 C 
ATOM      6  C   UNL     1       5.782  -5.404   2.370  0.00  0.00    +0.115 A 
ATOM      7  C   UNL     1       4.708  -4.601   2.065  0.00  0.00    +0.042 A 
ATOM      8  C   UNL     1       4.658  -3.581   3.021  0.00  0.00    +0.009 A 
ATOM      9  C   UNL     1       5.710  -3.798   3.868  0.00  0.00    +0.193 A 
ATOM     10  O   UNL     1       6.369  -4.909   3.458  0.00  0.00    -0.454 OA
ATOM     11  C   UNL     1       3.647  -2.466   3.102  0.00  0.00    +0.048 C 
ENDROOT
BRANCH   9  12
ATOM     12  C   UNL     1       6.058  -2.974   5.031  0.00  0.00    +0.282 C 
ATOM     13  O   UNL     1       5.303  -2.095   5.402  0.00  0.00    -0.267 OA
ATOM     14  N   UNL     1       7.214  -3.192   5.689  0.00  0.00    -0.295 N 
ATOM     15  C   UNL     1       8.211  -4.132   5.160  0.00  0.00    +0.108 C 
ATOM     16  C   UNL     1       9.560  -3.414   5.058  0.00  0.00    +0.022 C 
ATOM     17  C   UNL     1       9.920  -2.817   6.421  0.00  0.00    -0.011 C 
ATOM     18  C   UNL     1       8.857  -1.794   6.829  0.00  0.00    +0.022 C 
ATOM     19  C   UNL     1       7.503  -2.489   6.947  0.00  0.00    +0.108 C 
ATOM     20  C   UNL     1      11.283  -2.129   6.333  0.00  0.00    +0.007 C 
ENDBRANCH   9  12
BRANCH   1  21
ATOM     21  N   UNL     1       1.911  -4.577  -0.393  0.00  0.00    -0.136 N 
ATOM     22  H   UNL     1       2.212  -5.241  -1.033  0.00  0.00    +0.197 HD
BRANCH  21  23
ATOM     23  S   UNL     1       0.466  -3.801  -0.622  0.00  0.00    +0.086 S 
ATOM     24  O   UNL     1      -0.283  -3.978   0.573  0.00  0.00    -0.149 OA
ATOM     25  O   UNL     1      -0.018  -4.212  -1.893  0.00  0.00    -0.149 OA
BRANCH  23  30
ATOM     26  C   UNL     1       1.652   2.099  -1.054  0.00  0.00    +0.044 C 
ATOM     27  C   UNL     1       1.356   0.625  -0.946  0.00  0.00    -0.050 A 
ATOM     28  C   UNL     1       1.349  -0.163  -2.081  0.00  0.00    +0.005 A 
ATOM     29  C   UNL     1       1.077  -1.515  -1.982  0.00  0.00    +0.029 A 
ATOM     30  C   UNL     1       0.814  -2.079  -0.748  0.00  0.00    +0.110 A 
ATOM     31  C   UNL     1       0.822  -1.290   0.388  0.00  0.00    +0.029 A 
ATOM     32  C   UNL     1       1.098   0.061   0.289  0.00  0.00    +0.005 A 
ENDBRANCH  23  30
ENDBRANCH  21  23
ENDBRANCH   1  21
TORSDOF 4
