REMARK  Name = ZINC48353753
REMARK  8 active torsions:
REMARK  status: ('A' for Active; 'I' for Inactive)
REMARK    1  A    between atoms: C_1  and  C_2
REMARK    2  A    between atoms: C_5  and  C_35
REMARK    3  A    between atoms: N_8  and  C_10
REMARK    4  A    between atoms: C_10  and  C_11
REMARK    5  A    between atoms: C_16  and  C_17
REMARK    6  A    between atoms: C_17  and  N_18
REMARK    7  A    between atoms: C_19  and  C_21
REMARK    8  A    between atoms: C_21  and  N_22
REMARK                            x       y       z     vdW  Elec       q    Type
REMARK                         _______ _______ _______ _____ _____    ______ ____
ROOT
ATOM      1  C   UNL     1       0.437  -1.763   3.434  0.00  0.00    +0.139 C 
ENDROOT
BRANCH   1   7
ATOM      2  C   UNL     1       2.210  -0.003   3.286  0.00  0.00    -0.059 A 
ATOM      3  C   UNL     1       2.790   1.175   3.718  0.00  0.00    +0.002 A 
ATOM      4  C   UNL     1       2.236   1.871   4.776  0.00  0.00    +0.000 A 
ATOM      5  C   UNL     1       1.101   1.389   5.402  0.00  0.00    +0.000 A 
ATOM      6  C   UNL     1       0.521   0.212   4.969  0.00  0.00    +0.005 A 
ATOM      7  C   UNL     1       1.073  -0.482   3.909  0.00  0.00    -0.029 A 
BRANCH   2   8
ATOM      8  C   UNL     1       2.815  -0.762   2.133  0.00  0.00    -0.043 C 
BRANCH   8  14
ATOM      9  C   UNL     1       4.795  -3.198   4.952  0.00  0.00    +0.005 C 
ATOM     10  C   UNL     1       5.651  -2.394   3.971  0.00  0.00    -0.031 C 
ATOM     11  C   UNL     1       6.150  -3.314   2.854  0.00  0.00    +0.003 C 
ATOM     12  C   UNL     1       4.947  -3.849   2.071  0.00  0.00    -0.031 C 
ATOM     13  C   UNL     1       4.132  -2.672   1.532  0.00  0.00    -0.075 C 
ATOM     14  N   UNL     1       3.661  -1.845   2.650  0.00  0.00    +0.383 N 
ATOM     15  C   UNL     1       4.809  -1.270   3.362  0.00  0.00    -0.075 C 
ATOM     16  C   UNL     1       5.438  -4.709   0.905  0.00  0.00    +0.005 C 
ATOM     17  H   UNL     1       3.124  -2.416   3.285  0.00  0.00    -0.081 HD
ENDBRANCH   8  14
ENDBRANCH   2   8
ENDBRANCH   1   7
BRANCH   1  18
ATOM     18  N   UNL     1       1.148  -2.905   4.014  0.00  0.00    -0.310 N 
ATOM     19  C   UNL     1       0.815  -4.160   3.653  0.00  0.00    +0.231 C 
ATOM     20  O   UNL     1      -0.072  -4.344   2.847  0.00  0.00    -0.274 OA
ATOM     21  H   UNL     1       1.858  -2.758   4.659  0.00  0.00    +0.149 HD
BRANCH  19  22
ATOM     22  C   UNL     1       1.546  -5.335   4.250  0.00  0.00    +0.212 C 
BRANCH  22  23
ATOM     23  N   UNL     1       1.003  -6.580   3.699  0.00  0.00    -0.233 N 
ATOM     24  C   UNL     1      -0.027  -7.243   4.259  0.00  0.00    +0.226 C 
ATOM     25  O   UNL     1      -0.759  -6.830   5.133  0.00  0.00    -0.275 OA
ATOM     26  C   UNL     1      -0.102  -8.622   3.583  0.00  0.00    +0.091 C 
ATOM     27  C   UNL     1       0.828  -9.514   4.410  0.00  0.00    +0.040 C 
ATOM     28  C   UNL     1       1.546 -10.534   3.595  0.00  0.00    -0.030 C 
ATOM     29  C   UNL     1       1.683 -10.491   2.312  0.00  0.00    -0.030 C 
ATOM     30  C   UNL     1       1.086  -9.418   1.458  0.00  0.00    +0.040 C 
ATOM     31  C   UNL     1       0.522  -8.259   2.226  0.00  0.00    +0.091 C 
ATOM     32  C   UNL     1       1.486  -7.164   2.580  0.00  0.00    +0.226 C 
ATOM     33  O   UNL     1       2.497  -6.864   1.982  0.00  0.00    -0.275 OA
ENDBRANCH  22  23
ENDBRANCH  19  22
ENDBRANCH   1  18
TORSDOF 6
