REMARK  Name = ZINC13501084
REMARK  10 active torsions:
REMARK  status: ('A' for Active; 'I' for Inactive)
REMARK    1  A    between atoms: C_1  and  C_2
REMARK    2  A    between atoms: C_2  and  C_3
REMARK    3  A    between atoms: C_3  and  C_5
REMARK    4  A    between atoms: C_3  and  N_72
REMARK    5  A    between atoms: N_9  and  C_10
REMARK    6  A    between atoms: C_15  and  C_16
REMARK    7  A    between atoms: C_15  and  N_72
REMARK    8  A    between atoms: C_20  and  C_29
REMARK    9  A    between atoms: C_22  and  C_28
REMARK   10  A    between atoms: C_30  and  N_72
REMARK                            x       y       z     vdW  Elec       q    Type
REMARK                         _______ _______ _______ _____ _____    ______ ____
ROOT
ATOM      1  N   UNL     1       0.599  -1.924  -1.381  0.00  0.00    +0.391 N 
ATOM      2  H   UNL     1      -0.424  -1.875  -1.310  0.00  0.00    -0.080 HD
ENDROOT
BRANCH   1   3
ATOM      3  C   UNL     1       1.149  -0.553  -1.355  0.00  0.00    -0.067 C 
ATOM      4  C   UNL     1       2.656  -0.574  -1.615  0.00  0.00    -0.015 C 
ATOM      5  C   UNL     1       3.199   0.856  -1.585  0.00  0.00    -0.002 C 
ATOM      6  C   UNL     1       2.507   1.687  -2.667  0.00  0.00    -0.000 C 
ATOM      7  C   UNL     1       0.999   1.709  -2.407  0.00  0.00    -0.002 C 
ATOM      8  C   UNL     1       0.456   0.278  -2.437  0.00  0.00    -0.015 C 
ENDBRANCH   1   3
BRANCH   1   9
ATOM      9  C   UNL     1       0.960  -2.589  -2.651  0.00  0.00    +0.003 C 
BRANCH   9  10
ATOM     10  C   UNL     1       2.410  -2.999  -2.639  0.00  0.00    +0.138 A 
ATOM     11  N   UNL     1       3.051  -3.578  -1.652  0.00  0.00    -0.115 NA
ATOM     12  N   UNL     1       4.269  -3.768  -2.026  0.00  0.00    -0.023 NA
ATOM     13  N   UNL     1       4.422  -3.325  -3.225  0.00  0.00    -0.044 NA
ATOM     14  N   UNL     1       3.297  -2.848  -3.640  0.00  0.00    -0.228 N 
BRANCH  14  15
ATOM     15  C   UNL     1       3.035  -2.252  -4.952  0.00  0.00    +0.111 C 
ATOM     16  C   UNL     1       3.364  -3.264  -6.068  0.00  0.00    +0.027 C 
ATOM     17  C   UNL     1       3.976  -2.398  -7.198  0.00  0.00    +0.002 C 
ATOM     18  C   UNL     1       4.813  -1.355  -6.415  0.00  0.00    +0.002 C 
ATOM     19  C   UNL     1       3.955  -1.038  -5.172  0.00  0.00    +0.027 C 
ENDBRANCH  14  15
ENDBRANCH   9  10
BRANCH   9  21
ATOM     20  C   UNL     1      -1.380  -3.400  -2.978  0.00  0.00    +0.002 C 
ATOM     21  C   UNL     1       0.081  -3.829  -2.825  0.00  0.00    -0.011 C 
ENDBRANCH   9  21
ENDBRANCH   1   9
BRANCH   1  22
ATOM     22  C   UNL     1       1.123  -2.701  -0.238  0.00  0.00    -0.036 C 
BRANCH  22  23
ATOM     23  C   UNL     1       0.361  -2.309   1.001  0.00  0.00    +0.001 A 
ATOM     24  C   UNL     1      -0.728  -3.023   1.379  0.00  0.00    +0.017 A 
ATOM     25  C   UNL     1      -1.443  -2.619   2.591  0.00  0.00    -0.001 A 
ATOM     26  C   UNL     1      -2.570  -3.319   3.033  0.00  0.00    +0.013 A 
ATOM     27  C   UNL     1      -3.219  -2.913   4.165  0.00  0.00    -0.050 A 
ATOM     28  C   UNL     1      -2.770  -1.811   4.880  0.00  0.00    +0.008 A 
ATOM     29  C   UNL     1      -1.661  -1.107   4.463  0.00  0.00    -0.026 A 
ATOM     30  C   UNL     1      -0.984  -1.502   3.314  0.00  0.00    +0.052 A 
ATOM     31  N   UNL     1       0.127  -0.814   2.873  0.00  0.00    -0.322 N 
ATOM     32  H   UNL     1       0.442  -0.045   3.372  0.00  0.00    +0.169 HD
ATOM     33  C   UNL     1       0.780  -1.196   1.762  0.00  0.00    +0.251 A 
ATOM     34  O   UNL     1       1.758  -0.564   1.401  0.00  0.00    -0.268 OA
ATOM     35  C   UNL     1      -1.183   0.087   5.250  0.00  0.00    +0.046 C 
ATOM     36  C   UNL     1      -4.434  -3.667   4.641  0.00  0.00    +0.044 C 
ENDBRANCH  22  23
ENDBRANCH   1  22
TORSDOF 7
