REMARK  Name = ZINC02435089
REMARK  9 active torsions:
REMARK  status: ('A' for Active; 'I' for Inactive)
REMARK    1  A    between atoms: C_1  and  C_2
REMARK    2  A    between atoms: C_2  and  N_3
REMARK    3  A    between atoms: C_4  and  C_27
REMARK    4  A    between atoms: C_10  and  C_18
REMARK    5  A    between atoms: C_12  and  C_16
REMARK    6  A    between atoms: C_13  and  N_15
REMARK    7  A    between atoms: C_21  and  C_24
REMARK    8  A    between atoms: C_24  and  C_25
REMARK    9  A    between atoms: C_24  and  C_26
REMARK                            x       y       z     vdW  Elec       q    Type
REMARK                         _______ _______ _______ _____ _____    ______ ____
ROOT
ATOM      1  N   UNL     1      -5.897   2.710   1.017  0.00  0.00    -0.312 N 
ATOM      2  C   UNL     1      -5.810   1.357   1.121  0.00  0.00    +0.022 A 
ATOM      3  C   UNL     1      -4.638   0.720   0.912  0.00  0.00    +0.068 A 
ATOM      4  C   UNL     1      -3.486   1.463   0.583  0.00  0.00    +0.141 A 
ATOM      5  C   UNL     1      -3.582   2.835   0.480  0.00  0.00    +0.072 A 
ATOM      6  C   UNL     1      -4.819   3.453   0.705  0.00  0.00    +0.259 A 
ATOM      7  O   UNL     1      -4.919   4.666   0.617  0.00  0.00    -0.267 OA
ATOM      8  C   UNL     1      -2.378   3.666   0.130  0.00  0.00    +0.103 C 
ATOM      9  C   UNL     1      -1.122   2.865   0.330  0.00  0.00    +0.098 C 
ATOM     10  C   UNL     1      -1.158   1.516   0.433  0.00  0.00    +0.199 C 
ATOM     11  O   UNL     1      -2.312   0.829   0.373  0.00  0.00    -0.441 OA
ATOM     12  C   UNL     1      -7.038   0.558   1.472  0.00  0.00    +0.064 C 
ENDROOT
BRANCH   8  13
ATOM     13  C   UNL     1      -2.474   4.103  -1.309  0.00  0.00    -0.034 A 
ATOM     14  C   UNL     1      -2.528   3.158  -2.316  0.00  0.00    +0.005 A 
ATOM     15  C   UNL     1      -2.621   3.559  -3.636  0.00  0.00    +0.004 A 
ATOM     16  C   UNL     1      -2.649   4.905  -3.949  0.00  0.00    -0.045 A 
ATOM     17  C   UNL     1      -2.591   5.850  -2.942  0.00  0.00    +0.004 A 
ATOM     18  C   UNL     1      -2.503   5.449  -1.622  0.00  0.00    +0.005 A 
BRANCH  16  19
ATOM     19  C   UNL     1      -2.745   5.342  -5.388  0.00  0.00    +0.013 C 
ATOM     20  C   UNL     1      -1.539   4.808  -6.164  0.00  0.00    +0.012 C 
ATOM     21  C   UNL     1      -4.032   4.792  -6.004  0.00  0.00    +0.012 C 
ENDBRANCH  16  19
ENDBRANCH   8  13
BRANCH  10  22
ATOM     22  N   UNL     1       0.017   0.829   0.609  0.00  0.00    -0.328 N 
ATOM     23  H   UNL     1       0.007  -0.138   0.688  0.00  0.00    +0.145 HD
ATOM     24  H   UNL     1       0.858   1.310   0.650  0.00  0.00    +0.145 HD
ENDBRANCH  10  22
BRANCH   1  26
ATOM     25  C   UNL     1      -7.928   3.519  -0.080  0.00  0.00    +0.027 C 
ATOM     26  C   UNL     1      -7.185   3.369   1.249  0.00  0.00    +0.122 C 
ENDBRANCH   1  26
BRANCH   9  27
ATOM     27  C   UNL     1       0.138   3.542   0.408  0.00  0.00    +0.101 C 
ATOM     28  N   UNL     1       1.137   4.079   0.470  0.00  0.00    -0.191 NA
ENDBRANCH   9  27
TORSDOF 5
