REMARK  Name = ZINC22451148
REMARK  4 active torsions:
REMARK  status: ('A' for Active; 'I' for Inactive)
REMARK    1  A    between atoms: C_1  and  C_2
REMARK    2  A    between atoms: C_3  and  C_18
REMARK    3  A    between atoms: C_15  and  C_17
REMARK    4  A    between atoms: C_18  and  C_19
REMARK                            x       y       z     vdW  Elec       q    Type
REMARK                         _______ _______ _______ _____ _____    ______ ____
ROOT
ATOM      1  C   UNL     1      -0.221   1.031   0.465  0.00  0.00    +0.066 C 
ATOM      2  C   UNL     1      -0.888   1.758   1.605  0.00  0.00    +0.050 A 
ATOM      3  C   UNL     1      -0.924   3.122   1.614  0.00  0.00    +0.042 A 
ATOM      4  C   UNL     1      -1.557   3.777   2.686  0.00  0.00    +0.256 A 
ATOM      5  O   UNL     1      -1.613   4.995   2.724  0.00  0.00    -0.267 OA
ATOM      6  N   UNL     1      -2.098   3.032   3.674  0.00  0.00    -0.295 N 
ATOM      7  H   UNL     1      -2.594   3.523   4.524  0.00  0.00    +0.172 HD
ATOM      8  C   UNL     1      -2.026   1.675   3.613  0.00  0.00    +0.199 A 
ATOM      9  N   UNL     1      -1.435   1.068   2.603  0.00  0.00    -0.221 NA
ATOM     10  N   UNL     1      -2.576   0.926   4.619  0.00  0.00    -0.298 N 
ATOM     11  C   UNL     1      -3.962   1.335   4.881  0.00  0.00    +0.108 C 
ATOM     12  C   UNL     1      -4.590   0.386   5.904  0.00  0.00    +0.019 C 
ATOM     13  C   UNL     1      -3.773   0.426   7.198  0.00  0.00    +0.003 C 
ATOM     14  C   UNL     1      -2.323   0.044   6.890  0.00  0.00    +0.022 C 
ATOM     15  C   UNL     1      -1.761   1.002   5.838  0.00  0.00    +0.073 C 
ATOM     16  C   UNL     1      -0.318   0.612   5.511  0.00  0.00    +0.028 C 
ENDROOT
BRANCH   3  17
ATOM     17  C   UNL     1      -0.303   3.913   0.492  0.00  0.00    +0.078 C 
BRANCH  17  18
ATOM     18  C   UNL     1      -1.355   4.240  -0.535  0.00  0.00    -0.035 A 
ATOM     19  C   UNL     1      -2.611   3.729  -0.415  0.00  0.00    +0.004 A 
ATOM     20  C   UNL     1      -3.598   4.021  -1.355  0.00  0.00    +0.001 A 
ATOM     21  C   UNL     1      -3.334   4.826  -2.420  0.00  0.00    +0.008 A 
ATOM     22  C   UNL     1      -2.050   5.373  -2.577  0.00  0.00    -0.018 A 
ATOM     23  C   UNL     1      -1.048   5.080  -1.619  0.00  0.00    -0.014 A 
ATOM     24  C   UNL     1       0.239   5.624  -1.778  0.00  0.00    +0.009 A 
ATOM     25  C   UNL     1       0.502   6.428  -2.844  0.00  0.00    +0.001 A 
ATOM     26  C   UNL     1      -0.484   6.720  -3.784  0.00  0.00    +0.001 A 
ATOM     27  C   UNL     1      -1.740   6.208  -3.664  0.00  0.00    +0.008 A 
ENDBRANCH  17  18
ENDBRANCH   3  17
TORSDOF 2
