REMARK  Name = ZINC13686449
REMARK  7 active torsions:
REMARK  status: ('A' for Active; 'I' for Inactive)
REMARK    1  A    between atoms: C_1  and  C_2
REMARK    2  A    between atoms: C_7  and  O_8
REMARK    3  A    between atoms: O_8  and  C_9
REMARK    4  A    between atoms: C_9  and  C_10
REMARK    5  A    between atoms: C_10  and  N_11
REMARK    6  A    between atoms: C_13  and  C_20
REMARK    7  A    between atoms: N_26  and  C_29
REMARK                            x       y       z     vdW  Elec       q    Type
REMARK                         _______ _______ _______ _____ _____    ______ ____
ROOT
ATOM      1  N   UNL     1       0.795  -0.145   7.069  0.00  0.00    -0.343 N 
ATOM      2  C   UNL     1      -0.322  -0.775   7.472  0.00  0.00    +0.095 A 
ATOM      3  C   UNL     1      -0.185  -1.162   8.795  0.00  0.00    +0.001 A 
ATOM      4  C   UNL     1       1.158  -0.711   9.216  0.00  0.00    +0.007 A 
ATOM      5  C   UNL     1       1.722  -0.089   8.092  0.00  0.00    +0.050 A 
ATOM      6  C   UNL     1       3.006   0.440   8.180  0.00  0.00    +0.026 A 
ATOM      7  C   UNL     1       3.709   0.346   9.361  0.00  0.00    +0.002 A 
ATOM      8  C   UNL     1       3.151  -0.273  10.469  0.00  0.00    +0.001 A 
ATOM      9  C   UNL     1       1.876  -0.795  10.403  0.00  0.00    +0.010 A 
ENDROOT
BRANCH   3  10
ATOM     10  C   UNL     1      -1.134  -1.846   9.581  0.00  0.00    +0.028 C 
ATOM     11  C   UNL     1      -2.463  -1.442   9.574  0.00  0.00    +0.102 C 
ATOM     12  C   UNL     1      -3.519  -2.252  10.211  0.00  0.00    +0.276 C 
ATOM     13  N   UNL     1      -4.784  -1.801  10.167  0.00  0.00    -0.123 NA
ATOM     14  C   UNL     1      -5.098  -0.674   9.579  0.00  0.00    +0.340 C 
ATOM     15  O   UNL     1      -6.391  -0.295   9.580  0.00  0.00    -0.250 OA
ATOM     16  N   UNL     1      -4.192   0.135   8.967  0.00  0.00    -0.188 N 
ATOM     17  C   UNL     1      -2.881  -0.183   8.936  0.00  0.00    +0.264 C 
ATOM     18  O   UNL     1      -2.070   0.545   8.392  0.00  0.00    -0.269 OA
ATOM     19  O   UNL     1      -3.251  -3.306  10.764  0.00  0.00    -0.268 OA
BRANCH  16  20
ATOM     20  C   UNL     1      -4.627   1.323   8.364  0.00  0.00    +0.046 A 
ATOM     21  C   UNL     1      -4.652   2.504   9.094  0.00  0.00    +0.027 A 
ATOM     22  C   UNL     1      -5.081   3.674   8.498  0.00  0.00    +0.040 A 
ATOM     23  C   UNL     1      -5.486   3.670   7.174  0.00  0.00    +0.124 A 
ATOM     24  C   UNL     1      -5.462   2.493   6.444  0.00  0.00    +0.040 A 
ATOM     25  C   UNL     1      -5.029   1.322   7.035  0.00  0.00    +0.027 A 
ATOM     26  F   UNL     1      -5.906   4.815   6.593  0.00  0.00    -0.205 F 
ENDBRANCH  16  20
ENDBRANCH   3  10
BRANCH   1  27
ATOM     27  C   UNL     1       1.004   0.401   5.726  0.00  0.00    +0.163 C 
BRANCH  27  28
ATOM     28  C   UNL     1       1.739  -0.628   4.865  0.00  0.00    +0.250 C 
BRANCH  28  29
ATOM     29  O   UNL     1       1.943  -0.095   3.555  0.00  0.00    -0.490 OA
BRANCH  29  36
ATOM     30  C   UNL     1       2.354   0.940   0.959  0.00  0.00    +0.047 C 
ATOM     31  C   UNL     1       2.818  -0.434   1.369  0.00  0.00    -0.009 A 
ATOM     32  C   UNL     1       3.478  -1.241   0.462  0.00  0.00    +0.007 A 
ATOM     33  C   UNL     1       3.903  -2.502   0.838  0.00  0.00    +0.000 A 
ATOM     34  C   UNL     1       3.669  -2.959   2.122  0.00  0.00    +0.004 A 
ATOM     35  C   UNL     1       3.010  -2.156   3.032  0.00  0.00    +0.046 A 
ATOM     36  C   UNL     1       2.587  -0.888   2.659  0.00  0.00    +0.123 A 
ENDBRANCH  29  36
ENDBRANCH  28  29
ENDBRANCH  27  28
ENDBRANCH   1  27
TORSDOF 6
