REMARK  Name = ZINC39054549
REMARK  4 active torsions:
REMARK  status: ('A' for Active; 'I' for Inactive)
REMARK    1  A    between atoms: C_1  and  C_2
REMARK    2  A    between atoms: C_2  and  C_12
REMARK    3  A    between atoms: N_5  and  S_8
REMARK    4  A    between atoms: S_8  and  N_11
REMARK                            x       y       z     vdW  Elec       q    Type
REMARK                         _______ _______ _______ _____ _____    ______ ____
ROOT
ATOM      1  C   UNL     1      -0.019   1.526   0.010  0.00  0.00    +0.011 C 
ATOM      2  C   UNL     1       0.002  -0.004   0.002  0.00  0.00    -0.032 C 
ATOM      3  C   UNL     1      -1.434  -0.533   0.011  0.00  0.00    +0.023 C 
ATOM      4  C   UNL     1      -1.409  -2.065  -0.032  0.00  0.00    +0.111 C 
ATOM      5  N   UNL     1      -0.578  -2.556   1.075  0.00  0.00    -0.167 NA
ATOM      6  C   UNL     1       0.791  -2.042   1.212  0.00  0.00    +0.111 C 
ATOM      7  C   UNL     1       0.742  -0.511   1.242  0.00  0.00    +0.023 C 
ATOM      8  C   UNL     1       0.719  -0.497  -1.256  0.00  0.00    +0.011 C 
ENDROOT
BRANCH   5   9
ATOM      9  S   UNL     1      -1.173  -3.668   2.148  0.00  0.00    +0.095 S 
ATOM     10  O   UNL     1      -0.421  -3.521   3.344  0.00  0.00    -0.141 OA
ATOM     11  O   UNL     1      -2.589  -3.544   2.119  0.00  0.00    -0.141 OA
BRANCH   9  12
ATOM     12  N   UNL     1      -0.817  -5.169   1.546  0.00  0.00    -0.193 NA
ATOM     13  H   UNL     1      -0.341  -5.254   0.705  0.00  0.00    +0.145 HD
ATOM     14  H   UNL     1      -1.085  -5.963   2.034  0.00  0.00    +0.145 HD
ENDBRANCH   9  12
ENDBRANCH   5   9
TORSDOF 2
