REMARK  Name = ZINC20803860
REMARK  7 active torsions:
REMARK  status: ('A' for Active; 'I' for Inactive)
REMARK    1  A    between atoms: C_1  and  C_2
REMARK    2  A    between atoms: C_7  and  N_8
REMARK    3  A    between atoms: C_9  and  C_11
REMARK    4  A    between atoms: C_13  and  C_33
REMARK    5  A    between atoms: C_21  and  C_23
REMARK    6  A    between atoms: C_26  and  O_29
REMARK    7  A    between atoms: O_29  and  C_30
REMARK                            x       y       z     vdW  Elec       q    Type
REMARK                         _______ _______ _______ _____ _____    ______ ____
ROOT
ATOM      1  C   UNL     1       1.280   7.435   0.039  0.00  0.00    +0.124 C 
ATOM      2  C   UNL     1       0.524   8.007  -1.166  0.00  0.00    +0.084 C 
ATOM      3  N   UNL     1       1.101   7.435  -2.398  0.00  0.00    -0.310 N 
ATOM      4  C   UNL     1       2.487   7.375  -2.457  0.00  0.00    +0.214 A 
ATOM      5  N   UNL     1       3.269   7.142  -3.476  0.00  0.00    -0.202 NA
ATOM      6  C   UNL     1       4.545   7.183  -3.079  0.00  0.00    +0.247 A 
ATOM      7  N   UNL     1       4.588   7.442  -1.796  0.00  0.00    -0.156 NA
ATOM      8  N   UNL     1       3.267   7.571  -1.366  0.00  0.00    -0.225 N 
ATOM      9  C   UNL     1       2.753   7.856  -0.027  0.00  0.00    +0.154 C 
ATOM     10  C   UNL     1      -0.956   7.631  -1.069  0.00  0.00    +0.028 C 
ATOM     11  H   UNL     1       0.439   7.086  -3.205  0.00  0.00    +0.149 HD
ENDROOT
BRANCH   9  12
ATOM     12  C   UNL     1       3.546   7.083   0.996  0.00  0.00    -0.022 A 
ATOM     13  C   UNL     1       4.022   5.822   0.691  0.00  0.00    +0.009 A 
ATOM     14  C   UNL     1       4.753   5.114   1.625  0.00  0.00    +0.046 A 
ATOM     15  C   UNL     1       5.000   5.665   2.874  0.00  0.00    +0.127 A 
ATOM     16  C   UNL     1       4.516   6.928   3.179  0.00  0.00    +0.046 A 
ATOM     17  C   UNL     1       3.790   7.635   2.240  0.00  0.00    +0.009 A 
BRANCH  15  18
ATOM     18  O   UNL     1       5.715   4.968   3.796  0.00  0.00    -0.434 OA
BRANCH  18  19
ATOM     19  C   UNL     1       6.181   3.673   3.412  0.00  0.00    +0.541 C 
ATOM     20  F   UNL     1       5.089   2.860   3.090  0.00  0.00    -0.166 F 
ATOM     21  F   UNL     1       7.019   3.791   2.297  0.00  0.00    -0.166 F 
ENDBRANCH  18  19
ENDBRANCH  15  18
ENDBRANCH   9  12
BRANCH   1  23
ATOM     22  N   UNL     1       1.100   5.247   1.179  0.00  0.00    -0.285 N 
ATOM     23  C   UNL     1       1.188   5.931   0.021  0.00  0.00    +0.224 C 
ATOM     24  O   UNL     1       1.192   5.335  -1.036  0.00  0.00    -0.275 OA
ATOM     25  H   UNL     1       1.004   5.789   2.132  0.00  0.00    +0.155 HD
BRANCH  22  32
ATOM     26  C   UNL     1      -0.118   3.862   3.346  0.00  0.00    +0.045 C 
ATOM     27  C   UNL     1       0.549   3.133   2.208  0.00  0.00    -0.029 A 
ATOM     28  C   UNL     1       0.577   1.752   2.193  0.00  0.00    +0.005 A 
ATOM     29  C   UNL     1       1.193   1.082   1.152  0.00  0.00    +0.000 A 
ATOM     30  C   UNL     1       1.773   1.792   0.117  0.00  0.00    +0.002 A 
ATOM     31  C   UNL     1       1.744   3.173   0.123  0.00  0.00    +0.023 A 
ATOM     32  C   UNL     1       1.131   3.848   1.170  0.00  0.00    +0.036 A 
ENDBRANCH  22  32
ENDBRANCH   1  23
TORSDOF 5
