REMARK  Name = ZINC19892397
REMARK  17 active torsions:
REMARK  status: ('A' for Active; 'I' for Inactive)
REMARK    1  A    between atoms: C_1  and  C_2
REMARK    2  A    between atoms: C_2  and  C_3
REMARK    3  A    between atoms: C_3  and  C_4
REMARK    4  A    between atoms: C_4  and  O_5
REMARK    5  A    between atoms: O_5  and  C_6
REMARK    6  A    between atoms: C_6  and  C_8
REMARK    7  A    between atoms: C_9  and  C_41
REMARK    8  A    between atoms: C_13  and  C_15
REMARK    9  A    between atoms: C_17  and  O_23
REMARK   10  A    between atoms: C_20  and  O_21
REMARK   11  A    between atoms: O_21  and  C_22
REMARK   12  A    between atoms: O_23  and  C_24
REMARK   13  A    between atoms: C_28  and  C_31
REMARK   14  A    between atoms: C_34  and  O_39
REMARK   15  A    between atoms: C_35  and  O_37
REMARK   16  A    between atoms: O_37  and  C_38
REMARK   17  A    between atoms: O_39  and  C_40
REMARK                            x       y       z     vdW  Elec       q    Type
REMARK                         _______ _______ _______ _____ _____    ______ ____
ROOT
ATOM      1  C   UNL     1       1.199   2.070   0.010  0.00  0.00    +0.065 C 
ATOM      2  C   UNL     1       1.168   3.409  -0.098  0.00  0.00    +0.016 C 
ATOM      3  N   UNL     1       2.329   4.131  -0.104  0.00  0.00    -0.321 N 
ATOM      4  C   UNL     1       3.491   3.589   0.375  0.00  0.00    +0.016 C 
ATOM      5  C   UNL     1       3.622   2.252   0.503  0.00  0.00    +0.024 C 
ATOM      6  C   UNL     1       2.499   1.327   0.107  0.00  0.00    +0.096 C 
ATOM      7  C   UNL     1       4.804   1.683   1.009  0.00  0.00    +0.162 C 
ATOM      8  O   UNL     1       4.893   0.475   1.102  0.00  0.00    -0.292 OA
ATOM      9  C   UNL     1       5.961   2.544   1.437  0.00  0.00    +0.088 C 
ATOM     10  C   UNL     1       5.427   3.904   1.899  0.00  0.00    +0.032 C 
ATOM     11  C   UNL     1       4.615   4.520   0.757  0.00  0.00    +0.059 C 
ATOM     12  C   UNL     1      -0.156   4.121  -0.208  0.00  0.00    +0.061 C 
ATOM     13  H   UNL     1       2.336   5.158  -0.497  0.00  0.00    +0.152 HD
ENDROOT
BRANCH   6  14
ATOM     14  C   UNL     1       2.817   0.707  -1.229  0.00  0.00    +0.010 A 
ATOM     15  C   UNL     1       2.963   1.509  -2.345  0.00  0.00    +0.053 A 
ATOM     16  C   UNL     1       3.260   0.940  -3.574  0.00  0.00    +0.121 A 
ATOM     17  C   UNL     1       3.400  -0.436  -3.685  0.00  0.00    +0.049 A 
ATOM     18  C   UNL     1       3.248  -1.238  -2.571  0.00  0.00    +0.049 A 
ATOM     19  C   UNL     1       2.956  -0.668  -1.341  0.00  0.00    +0.124 A 
BRANCH  19  20
ATOM     20  O   UNL     1       2.807  -1.458  -0.244  0.00  0.00    -0.495 OA
ATOM     21  C   UNL     1       2.964  -2.865  -0.432  0.00  0.00    +0.277 C 
ENDBRANCH  19  20
BRANCH  16  22
ATOM     22  O   UNL     1       3.409   1.730  -4.671  0.00  0.00    -0.495 OA
ATOM     23  C   UNL     1       3.709   1.075  -5.905  0.00  0.00    +0.277 C 
ENDBRANCH  16  22
ENDBRANCH   6  14
BRANCH  10  24
ATOM     24  C   UNL     1       6.580   4.808   2.251  0.00  0.00    -0.040 A 
ATOM     25  C   UNL     1       7.522   5.130   1.291  0.00  0.00    +0.008 A 
ATOM     26  C   UNL     1       8.582   5.959   1.609  0.00  0.00    +0.049 A 
ATOM     27  C   UNL     1       8.701   6.470   2.892  0.00  0.00    +0.161 A 
ATOM     28  C   UNL     1       7.753   6.147   3.857  0.00  0.00    +0.162 A 
ATOM     29  C   UNL     1       6.690   5.319   3.531  0.00  0.00    +0.053 A 
BRANCH  28  30
ATOM     30  O   UNL     1       7.865   6.646   5.117  0.00  0.00    -0.491 OA
ATOM     31  C   UNL     1       6.855   6.272   6.056  0.00  0.00    +0.277 C 
ENDBRANCH  28  30
BRANCH  27  32
ATOM     32  O   UNL     1       9.743   7.285   3.206  0.00  0.00    -0.491 OA
ATOM     33  C   UNL     1      10.678   7.573   2.165  0.00  0.00    +0.277 C 
ENDBRANCH  27  32
ENDBRANCH  10  24
BRANCH   1  34
ATOM     34  C   UNL     1      -0.017   1.347   0.026  0.00  0.00    +0.338 C 
ATOM     35  O   UNL     1      -1.078   1.941   0.048  0.00  0.00    -0.245 OA
BRANCH  34  36
ATOM     36  O   UNL     1       0.001  -0.003   0.011  0.00  0.00    -0.461 OA
BRANCH  36  37
ATOM     37  C   UNL     1      -1.264  -0.668   0.028  0.00  0.00    +0.232 C 
BRANCH  37  38
ATOM     38  C   UNL     1      -1.044  -2.182   0.007  0.00  0.00    +0.041 C 
BRANCH  38  40
ATOM     39  C   UNL     1      -2.178  -4.408   0.005  0.00  0.00    +0.004 C 
ATOM     40  C   UNL     1      -2.398  -2.894   0.026  0.00  0.00    -0.000 C 
ENDBRANCH  38  40
ENDBRANCH  37  38
ENDBRANCH  36  37
ENDBRANCH  34  36
ENDBRANCH   1  34
TORSDOF 11
