REMARK  Name = ZINC20911504
REMARK  12 active torsions:
REMARK  status: ('A' for Active; 'I' for Inactive)
REMARK    1  A    between atoms: C_1  and  C_2
REMARK    2  A    between atoms: C_3  and  C_18
REMARK    3  A    between atoms: C_5  and  C_7
REMARK    4  A    between atoms: C_12  and  N_13
REMARK    5  A    between atoms: N_13  and  S_14
REMARK    6  A    between atoms: S_14  and  C_17
REMARK    7  A    between atoms: C_18  and  N_19
REMARK    8  A    between atoms: N_19  and  C_20
REMARK    9  A    between atoms: N_19  and  C_21
REMARK   10  A    between atoms: N_24  and  C_27
REMARK   11  A    between atoms: C_27  and  C_28
REMARK   12  A    between atoms: C_28  and  C_29
REMARK                            x       y       z     vdW  Elec       q    Type
REMARK                         _______ _______ _______ _____ _____    ______ ____
ROOT
ATOM      1  C   UNL     1       4.455  -2.802   6.690  0.00  0.00    +0.088 C 
ATOM      2  C   UNL     1       3.333  -2.816   7.696  0.00  0.00    +0.127 A 
ATOM      3  C   UNL     1       2.030  -2.603   7.439  0.00  0.00    +0.097 A 
ATOM      4  N   UNL     1       1.360  -2.707   8.597  0.00  0.00    -0.212 NA
ATOM      5  C   UNL     1       2.218  -2.972   9.556  0.00  0.00    +0.230 A 
ATOM      6  O   UNL     1       3.449  -3.042   9.020  0.00  0.00    -0.440 OA
ENDROOT
BRANCH   5   7
ATOM      7  C   UNL     1       1.886  -3.163  10.982  0.00  0.00    +0.059 A 
ATOM      8  C   UNL     1       0.563  -3.059  11.414  0.00  0.00    +0.015 A 
ATOM      9  C   UNL     1       0.259  -3.243  12.746  0.00  0.00    +0.001 A 
ATOM     10  C   UNL     1       1.261  -3.520  13.661  0.00  0.00    +0.002 A 
ATOM     11  C   UNL     1       2.575  -3.620  13.248  0.00  0.00    +0.025 A 
ATOM     12  C   UNL     1       2.899  -3.443  11.910  0.00  0.00    +0.060 A 
BRANCH  12  13
ATOM     13  N   UNL     1       4.224  -3.542  11.492  0.00  0.00    -0.220 N 
ATOM     14  H   UNL     1       4.596  -2.893  10.686  0.00  0.00    +0.173 HD
BRANCH  13  15
ATOM     15  S   UNL     1       5.238  -4.639  12.207  0.00  0.00    +0.040 S 
ATOM     16  O   UNL     1       6.456  -4.532  11.483  0.00  0.00    -0.155 OA
ATOM     17  O   UNL     1       5.189  -4.328  13.593  0.00  0.00    -0.155 OA
ATOM     18  C   UNL     1       4.469  -6.253  11.902  0.00  0.00    +0.218 C 
ENDBRANCH  13  15
ENDBRANCH  12  13
ENDBRANCH   5   7
BRANCH   3  19
ATOM     19  C   UNL     1       1.428  -2.308   6.089  0.00  0.00    +0.143 C 
BRANCH  19  20
ATOM     20  N   UNL     1       1.405  -0.855   5.871  0.00  0.00    -0.297 NA
ATOM     21  C   UNL     1       2.768  -0.316   5.772  0.00  0.00    +0.105 C 
BRANCH  20  22
ATOM     22  C   UNL     1       0.616  -0.514   4.680  0.00  0.00    +0.053 C 
ATOM     23  C   UNL     1       0.510   1.009   4.555  0.00  0.00    +0.000 C 
ATOM     24  C   UNL     1      -0.261   1.359   3.280  0.00  0.00    -0.077 C 
ATOM     25  N   UNL     1       0.439   0.802   2.116  0.00  0.00    +0.380 N 
ATOM     26  C   UNL     1       0.511  -0.663   2.190  0.00  0.00    -0.077 C 
ATOM     27  C   UNL     1       1.305  -1.073   3.433  0.00  0.00    +0.000 C 
ATOM     28  H   UNL     1       1.468   1.189   2.126  0.00  0.00    -0.082 HD
BRANCH  25  29
ATOM     29  C   UNL     1      -0.196   1.234   0.864  0.00  0.00    -0.074 C 
BRANCH  29  30
ATOM     30  C   UNL     1       0.693   0.848  -0.320  0.00  0.00    +0.016 C 
BRANCH  30  31
ATOM     31  C   UNL     1       0.042   1.292  -1.604  0.00  0.00    -0.049 A 
ATOM     32  C   UNL     1      -0.815   0.439  -2.275  0.00  0.00    +0.003 A 
ATOM     33  C   UNL     1      -1.417   0.848  -3.450  0.00  0.00    +0.000 A 
ATOM     34  C   UNL     1      -1.153   2.106  -3.960  0.00  0.00    +0.000 A 
ATOM     35  C   UNL     1      -0.291   2.956  -3.293  0.00  0.00    +0.000 A 
ATOM     36  C   UNL     1       0.306   2.549  -2.114  0.00  0.00    +0.003 A 
ENDBRANCH  30  31
ENDBRANCH  29  30
ENDBRANCH  25  29
ENDBRANCH  20  22
ENDBRANCH  19  20
ENDBRANCH   3  19
TORSDOF 9
