REMARK  Name = ZINC40233976
REMARK  9 active torsions:
REMARK  status: ('A' for Active; 'I' for Inactive)
REMARK    1  A    between atoms: C_1  and  C_2
REMARK    2  A    between atoms: C_5  and  S_8
REMARK    3  A    between atoms: S_8  and  O_11
REMARK    4  A    between atoms: O_11  and  C_12
REMARK    5  A    between atoms: C_14  and  O_35
REMARK    6  A    between atoms: C_16  and  N_25
REMARK    7  A    between atoms: N_25  and  C_26
REMARK    8  A    between atoms: C_26  and  C_28
REMARK    9  A    between atoms: C_26  and  C_29
REMARK                            x       y       z     vdW  Elec       q    Type
REMARK                         _______ _______ _______ _____ _____    ______ ____
ROOT
ATOM      1  C   UNL     1       2.183  -4.809   1.225  0.00  0.00    +0.232 C 
ATOM      2  C   UNL     1       3.645  -4.415   0.993  0.00  0.00    +0.139 C 
ATOM      3  C   UNL     1       4.393  -5.595   0.362  0.00  0.00    -0.008 C 
ATOM      4  C   UNL     1       4.148  -6.846   1.223  0.00  0.00    +0.136 C 
ATOM      5  C   UNL     1       4.343  -6.443   2.704  0.00  0.00    +0.193 C 
ATOM      6  O   UNL     1       3.040  -6.023   3.148  0.00  0.00    -0.346 OA
ATOM      7  C   UNL     1       2.140  -6.139   1.993  0.00  0.00    +0.284 C 
ATOM      8  O   UNL     1       2.733  -7.149   1.143  0.00  0.00    -0.345 OA
ENDROOT
BRANCH   3   9
ATOM      9  N   UNL     1       3.895  -5.824  -1.000  0.00  0.00    +0.389 N 
ATOM     10  H   UNL     1       4.329  -6.651  -1.383  0.00  0.00    -0.084 HD
ATOM     11  H   UNL     1       2.894  -5.951  -0.976  0.00  0.00    -0.084 HD
BRANCH   9  12
ATOM     12  C   UNL     1       4.221  -4.665  -1.842  0.00  0.00    -0.043 C 
ATOM     13  C   UNL     1       5.740  -4.547  -1.981  0.00  0.00    -0.009 C 
BRANCH  12  14
ATOM     14  C   UNL     1       3.604  -4.845  -3.205  0.00  0.00    -0.062 A 
ATOM     15  C   UNL     1       3.606  -6.090  -3.806  0.00  0.00    +0.002 A 
ATOM     16  C   UNL     1       3.040  -6.255  -5.056  0.00  0.00    +0.000 A 
ATOM     17  C   UNL     1       2.472  -5.175  -5.706  0.00  0.00    +0.000 A 
ATOM     18  C   UNL     1       2.470  -3.930  -5.105  0.00  0.00    +0.000 A 
ATOM     19  C   UNL     1       3.031  -3.766  -3.853  0.00  0.00    +0.002 A 
ENDBRANCH  12  14
ENDBRANCH   9  12
ENDBRANCH   3   9
BRANCH   2  20
ATOM     20  O   UNL     1       4.252  -4.077   2.242  0.00  0.00    -0.391 OA
ATOM     21  H   UNL     1       3.827  -3.338   2.698  0.00  0.00    +0.210 HD
ENDBRANCH   2  20
BRANCH   1  22
ATOM     22  O   UNL     1       1.522  -4.962  -0.033  0.00  0.00    -0.223 OA
BRANCH  22  23
ATOM     23  S   UNL     1       0.063  -4.530  -0.023  0.00  0.00    +0.112 S 
ATOM     24  O   UNL     1      -0.476  -4.950   1.223  0.00  0.00    -0.142 OA
ATOM     25  O   UNL     1      -0.490  -4.937  -1.267  0.00  0.00    -0.142 OA
BRANCH  23  30
ATOM     26  C   UNL     1      -0.018   1.503   0.010  0.00  0.00    +0.044 C 
ATOM     27  C   UNL     1       0.002  -0.004   0.002  0.00  0.00    -0.050 A 
ATOM     28  C   UNL     1       0.006  -0.689  -1.199  0.00  0.00    +0.005 A 
ATOM     29  C   UNL     1       0.025  -2.071  -1.206  0.00  0.00    +0.030 A 
ATOM     30  C   UNL     1       0.040  -2.768  -0.013  0.00  0.00    +0.117 A 
ATOM     31  C   UNL     1       0.037  -2.084   1.188  0.00  0.00    +0.030 A 
ATOM     32  C   UNL     1       0.023  -0.702   1.195  0.00  0.00    +0.005 A 
ENDBRANCH  23  30
ENDBRANCH  22  23
ENDBRANCH   1  22
TORSDOF 7
