REMARK  Name = ZINC21467247
REMARK  6 active torsions:
REMARK  status: ('A' for Active; 'I' for Inactive)
REMARK    1  A    between atoms: C_6  and  N_7
REMARK    2  A    between atoms: C_8  and  C_10
REMARK    3  A    between atoms: C_10  and  O_11
REMARK    4  A    between atoms: O_11  and  C_12
REMARK    5  A    between atoms: C_12  and  C_14
REMARK    6  A    between atoms: C_14  and  C_15
REMARK                            x       y       z     vdW  Elec       q    Type
REMARK                         _______ _______ _______ _____ _____    ______ ____
ROOT
ATOM      1  N   UNL     1       5.767   5.827   0.475  0.00  0.00    -0.283 N 
ATOM      2  C   UNL     1       6.815   6.210  -0.282  0.00  0.00    +0.255 C 
ATOM      3  O   UNL     1       6.913   5.816  -1.425  0.00  0.00    -0.272 OA
ATOM      4  H   UNL     1       5.631   6.252   1.480  0.00  0.00    +0.155 HD
ENDROOT
BRANCH   1  10
ATOM      5  C   UNL     1       3.513   4.971   0.339  0.00  0.00    +0.027 A 
ATOM      6  C   UNL     1       2.608   4.046  -0.148  0.00  0.00    +0.051 A 
ATOM      7  C   UNL     1       3.034   3.036  -0.992  0.00  0.00    +0.167 A 
ATOM      8  C   UNL     1       4.380   2.952  -1.353  0.00  0.00    +0.169 A 
ATOM      9  C   UNL     1       5.284   3.877  -0.867  0.00  0.00    +0.073 A 
ATOM     10  C   UNL     1       4.852   4.889  -0.019  0.00  0.00    +0.037 A 
ATOM     11  O   UNL     1       4.534   1.875  -2.188  0.00  0.00    -0.447 OA
ATOM     12  C   UNL     1       3.214   1.642  -2.691  0.00  0.00    +0.254 C 
ATOM     13  O   UNL     1       2.358   2.011  -1.604  0.00  0.00    -0.448 OA
ATOM     14  C   UNL     1       3.009   0.186  -3.111  0.00  0.00    +0.093 C 
ATOM     15  C   UNL     1       2.092   0.220  -4.350  0.00  0.00    +0.008 C 
ATOM     16  C   UNL     1       1.764   1.705  -4.614  0.00  0.00    +0.008 C 
ATOM     17  C   UNL     1       2.929   2.481  -3.945  0.00  0.00    +0.093 C 
ENDBRANCH   1  10
BRANCH   2  18
ATOM     18  C   UNL     1       7.864   7.127   0.292  0.00  0.00    +0.328 C 
BRANCH  18  19
ATOM     19  O   UNL     1       8.879   7.389  -0.712  0.00  0.00    -0.455 OA
BRANCH  19  20
ATOM     20  C   UNL     1       9.893   8.194  -0.358  0.00  0.00    +0.308 C 
ATOM     21  O   UNL     1       9.931   8.665   0.754  0.00  0.00    -0.251 OA
BRANCH  20  22
ATOM     22  C   UNL     1      10.984   8.512  -1.348  0.00  0.00    +0.124 C 
BRANCH  22  23
ATOM     23  C   UNL     1      12.008   9.444  -0.697  0.00  0.00    +0.003 C 
ATOM     24  C   UNL     1      12.760   8.709   0.437  0.00  0.00    +0.008 C 
ATOM     25  C   UNL     1      14.255   8.722  -0.009  0.00  0.00    -0.010 C 
ATOM     26  C   UNL     1      14.310   7.741  -1.219  0.00  0.00    +0.004 C 
ATOM     27  C   UNL     1      13.558   8.475  -2.352  0.00  0.00    +0.004 C 
ATOM     28  C   UNL     1      13.117   9.834  -1.721  0.00  0.00    -0.007 C 
ATOM     29  C   UNL     1      14.324  10.103  -0.752  0.00  0.00    +0.007 C 
ENDBRANCH  22  23
ENDBRANCH  20  22
ENDBRANCH  19  20
ENDBRANCH  18  19
ENDBRANCH   2  18
TORSDOF 6
