REMARK  Name = ZINC39404974
REMARK  7 active torsions:
REMARK  status: ('A' for Active; 'I' for Inactive)
REMARK    1  A    between atoms: C_1  and  O_2
REMARK    2  A    between atoms: O_2  and  C_3
REMARK    3  A    between atoms: C_5  and  N_32
REMARK    4  A    between atoms: N_16  and  C_19
REMARK    5  A    between atoms: C_19  and  C_20
REMARK    6  A    between atoms: C_25  and  C_26
REMARK    7  A    between atoms: C_33  and  C_35
REMARK                            x       y       z     vdW  Elec       q    Type
REMARK                         _______ _______ _______ _____ _____    ______ ____
ROOT
ATOM      1  C   UNL     1      -1.020  -0.221   0.070  0.00  0.00    +0.153 C 
ATOM      2  C   UNL     1      -1.395  -0.430  -1.413  0.00  0.00    +0.133 C 
ATOM      3  C   UNL     1      -0.908  -1.823  -1.753  0.00  0.00    -0.021 A 
ATOM      4  C   UNL     1      -0.689  -2.421  -2.982  0.00  0.00    +0.006 A 
ATOM      5  C   UNL     1      -0.237  -3.724  -3.051  0.00  0.00    +0.000 A 
ATOM      6  C   UNL     1      -0.003  -4.435  -1.889  0.00  0.00    +0.000 A 
ATOM      7  C   UNL     1      -0.221  -3.840  -0.662  0.00  0.00    +0.004 A 
ATOM      8  C   UNL     1      -0.673  -2.533  -0.590  0.00  0.00    -0.034 A 
ATOM      9  C   UNL     1      -0.984  -1.662   0.610  0.00  0.00    +0.021 C 
ATOM     10  C   UNL     1       0.108  -1.797   1.668  0.00  0.00    -0.005 C 
ATOM     11  C   UNL     1      -0.257  -0.944   2.886  0.00  0.00    -0.078 C 
ATOM     12  N   UNL     1      -1.546  -1.389   3.428  0.00  0.00    +0.380 N 
ATOM     13  C   UNL     1      -2.607  -1.170   2.438  0.00  0.00    -0.078 C 
ATOM     14  C   UNL     1      -2.341  -2.033   1.202  0.00  0.00    -0.005 C 
ATOM     15  H   UNL     1      -1.495  -2.371   3.652  0.00  0.00    -0.082 HD
ENDROOT
BRANCH   2  16
ATOM     16  N   UNL     1      -2.847  -0.340  -1.588  0.00  0.00    -0.299 N 
ATOM     17  C   UNL     1      -3.361   0.011  -2.783  0.00  0.00    +0.280 C 
ATOM     18  O   UNL     1      -2.620   0.252  -3.717  0.00  0.00    -0.267 OA
ATOM     19  H   UNL     1      -3.438  -0.532  -0.843  0.00  0.00    +0.150 HD
BRANCH  17  20
ATOM     20  C   UNL     1      -4.815   0.101  -2.958  0.00  0.00    +0.189 A 
ATOM     21  C   UNL     1      -5.465   0.437  -4.111  0.00  0.00    +0.054 A 
ATOM     22  C   UNL     1      -6.839   0.397  -3.825  0.00  0.00    +0.042 A 
ATOM     23  C   UNL     1      -6.965   0.043  -2.527  0.00  0.00    +0.196 A 
ATOM     24  O   UNL     1      -5.744  -0.140  -2.010  0.00  0.00    -0.458 OA
ENDBRANCH  17  20
ENDBRANCH   2  16
BRANCH   1  26
ATOM     25  C   UNL     1       0.212   1.821   0.308  0.00  0.00    +0.194 C 
ATOM     26  O   UNL     1       0.262   0.398   0.188  0.00  0.00    -0.377 OA
ENDBRANCH   1  26
BRANCH  12  27
ATOM     27  C   UNL     1      -1.851  -0.627   4.647  0.00  0.00    -0.063 C 
BRANCH  27  28
ATOM     28  C   UNL     1      -0.838  -0.982   5.737  0.00  0.00    +0.066 C 
ATOM     29  C   UNL     1      -1.050  -2.402   6.222  0.00  0.00    +0.115 C 
ATOM     30  N   UNL     1      -1.342  -2.313   7.479  0.00  0.00    -0.161 NA
ATOM     31  N   UNL     1      -1.359  -0.997   7.929  0.00  0.00    -0.153 NA
ATOM     32  C   UNL     1      -1.073  -0.145   6.979  0.00  0.00    +0.077 C 
BRANCH  32  33
ATOM     33  C   UNL     1      -0.996   1.321   7.089  0.00  0.00    -0.001 A 
ATOM     34  C   UNL     1      -0.682   2.094   5.967  0.00  0.00    +0.010 A 
ATOM     35  C   UNL     1      -0.611   3.467   6.078  0.00  0.00    +0.001 A 
ATOM     36  C   UNL     1      -0.850   4.079   7.296  0.00  0.00    +0.000 A 
ATOM     37  C   UNL     1      -1.162   3.321   8.411  0.00  0.00    +0.001 A 
ATOM     38  C   UNL     1      -1.243   1.948   8.314  0.00  0.00    +0.010 A 
ENDBRANCH  32  33
ENDBRANCH  27  28
ENDBRANCH  12  27
TORSDOF 6
