REMARK  Name = ZINC32809865
REMARK  4 active torsions:
REMARK  status: ('A' for Active; 'I' for Inactive)
REMARK    1  A    between atoms: C_3  and  C_6
REMARK    2  A    between atoms: C_6  and  C_8
REMARK    3  A    between atoms: C_6  and  N_15
REMARK    4  A    between atoms: C_16  and  C_18
REMARK                            x       y       z     vdW  Elec       q    Type
REMARK                         _______ _______ _______ _____ _____    ______ ____
ROOT
ATOM      1  N   UNL     1       1.913  -2.481  -0.917  0.00  0.00    -0.299 N 
ATOM      2  C   UNL     1       2.168  -2.460  -2.240  0.00  0.00    +0.263 C 
ATOM      3  O   UNL     1       2.939  -1.639  -2.698  0.00  0.00    -0.269 OA
ATOM      4  H   UNL     1       1.215  -3.224  -0.503  0.00  0.00    +0.150 HD
ENDROOT
BRANCH   2   5
ATOM      5  C   UNL     1       1.513  -3.431  -3.131  0.00  0.00    +0.124 A 
ATOM      6  C   UNL     1       1.662  -3.536  -4.491  0.00  0.00    +0.005 A 
ATOM      7  C   UNL     1       0.842  -4.601  -4.885  0.00  0.00    +0.067 A 
ATOM      8  N   UNL     1       0.260  -5.069  -3.819  0.00  0.00    -0.178 NA
ATOM      9  N   UNL     1       0.626  -4.412  -2.773  0.00  0.00    -0.272 N 
ATOM     10  H   UNL     1       0.336  -4.533  -1.719  0.00  0.00    +0.189 HD
ATOM     11  C   UNL     1       0.709  -5.056  -6.317  0.00  0.00    +0.057 C 
ATOM     12  C   UNL     1       1.250  -3.944  -7.225  0.00  0.00    +0.007 C 
ATOM     13  C   UNL     1       2.640  -3.515  -6.750  0.00  0.00    +0.005 C 
ATOM     14  C   UNL     1       2.518  -2.735  -5.433  0.00  0.00    +0.039 C 
ENDBRANCH   2   5
BRANCH   1  15
ATOM     15  C   UNL     1       2.565  -1.514  -0.030  0.00  0.00    +0.140 C 
BRANCH  15  16
ATOM     16  C   UNL     1       2.631  -2.078   1.366  0.00  0.00    -0.022 A 
ATOM     17  C   UNL     1       1.557  -2.781   1.879  0.00  0.00    +0.008 A 
ATOM     18  C   UNL     1       1.619  -3.303   3.157  0.00  0.00    +0.038 A 
ATOM     19  C   UNL     1       2.754  -3.113   3.927  0.00  0.00    +0.123 A 
ATOM     20  C   UNL     1       3.827  -2.404   3.414  0.00  0.00    +0.038 A 
ATOM     21  C   UNL     1       3.765  -1.888   2.134  0.00  0.00    +0.008 A 
ATOM     22  F   UNL     1       2.814  -3.619   5.178  0.00  0.00    -0.205 F 
ENDBRANCH  15  16
BRANCH  15  25
ATOM     23  C   UNL     1       1.300   2.079   0.001  0.00  0.00    +0.008 A 
ATOM     24  C   UNL     1       2.220   1.048  -0.013  0.00  0.00    +0.013 A 
ATOM     25  C   UNL     1       1.773  -0.232  -0.016  0.00  0.00    +0.014 A 
ATOM     26  S   UNL     1       0.002  -0.004   0.002  0.00  0.00    -0.099 S 
ATOM     27  C   UNL     1      -0.022   1.781   0.012  0.00  0.00    +0.045 A 
ENDBRANCH  15  25
ENDBRANCH   1  15
TORSDOF 4
