REMARK  Name = ZINC00921794
REMARK  7 active torsions:
REMARK  status: ('A' for Active; 'I' for Inactive)
REMARK    1  A    between atoms: C_1  and  C_2
REMARK    2  A    between atoms: C_4  and  C_28
REMARK    3  A    between atoms: C_6  and  S_8
REMARK    4  A    between atoms: S_8  and  C_9
REMARK    5  A    between atoms: C_15  and  N_17
REMARK    6  A    between atoms: N_17  and  S_18
REMARK    7  A    between atoms: S_18  and  C_21
REMARK                            x       y       z     vdW  Elec       q    Type
REMARK                         _______ _______ _______ _____ _____    ______ ____
ROOT
ATOM      1  C   UNL     1       0.041  -1.542   3.919  0.00  0.00    +0.073 C 
ATOM      2  C   UNL     1       1.337  -0.735   3.818  0.00  0.00    +0.016 C 
ATOM      3  C   UNL     1       1.327   0.380   4.865  0.00  0.00    +0.001 C 
ATOM      4  C   UNL     1       1.216  -0.234   6.263  0.00  0.00    +0.002 C 
ATOM      5  C   UNL     1      -0.080  -1.040   6.364  0.00  0.00    +0.021 C 
ATOM      6  C   UNL     1      -0.070  -2.156   5.317  0.00  0.00    +0.090 C 
ENDROOT
BRANCH   6   7
ATOM      7  N   UNL     1       1.075  -3.038   5.555  0.00  0.00    -0.186 NA
ATOM      8  H   UNL     1       1.945  -2.814   5.189  0.00  0.00    +0.148 HD
BRANCH   7   9
ATOM      9  S   UNL     1       0.884  -4.420   6.448  0.00  0.00    +0.059 S 
ATOM     10  O   UNL     1       2.150  -5.064   6.476  0.00  0.00    -0.153 OA
ATOM     11  O   UNL     1       0.193  -4.045   7.632  0.00  0.00    -0.153 OA
BRANCH   9  12
ATOM     12  C   UNL     1      -0.200  -5.477   5.547  0.00  0.00    +0.105 A 
ATOM     13  C   UNL     1      -1.566  -5.398   5.745  0.00  0.00    +0.030 A 
ATOM     14  C   UNL     1      -2.416  -6.227   5.039  0.00  0.00    +0.022 A 
ATOM     15  C   UNL     1      -1.900  -7.137   4.133  0.00  0.00    +0.041 A 
ATOM     16  C   UNL     1      -0.533  -7.215   3.934  0.00  0.00    +0.022 A 
ATOM     17  C   UNL     1       0.316  -6.382   4.638  0.00  0.00    +0.030 A 
ATOM     18 CL   UNL     1      -2.968  -8.179   3.245  0.00  0.00    -0.084 Cl
ENDBRANCH   9  12
ENDBRANCH   7   9
ENDBRANCH   6   7
BRANCH   1  19
ATOM     19  S   UNL     1       0.053  -2.864   2.678  0.00  0.00    -0.081 S 
BRANCH  19  25
ATOM     20  C   UNL     1      -0.018   1.503   0.010  0.00  0.00    +0.066 C 
ATOM     21  C   UNL     1       0.002  -0.004   0.002  0.00  0.00    +0.043 A 
ATOM     22  C   UNL     1       0.006  -0.699  -1.198  0.00  0.00    +0.046 A 
ATOM     23  C   UNL     1       0.025  -2.084  -1.161  0.00  0.00    +0.043 A 
ATOM     24  N   UNL     1       0.039  -2.699   0.010  0.00  0.00    -0.227 NA
ATOM     25  C   UNL     1       0.035  -2.005   1.140  0.00  0.00    +0.189 A 
ATOM     26  N   UNL     1       0.022  -0.679   1.139  0.00  0.00    -0.227 NA
ATOM     27  C   UNL     1       0.029  -2.881  -2.440  0.00  0.00    +0.066 C 
ENDBRANCH  19  25
ENDBRANCH   1  19
TORSDOF 5
