REMARK  Name = ZINC06457018
REMARK  6 active torsions:
REMARK  status: ('A' for Active; 'I' for Inactive)
REMARK    1  A    between atoms: C_3  and  S_21
REMARK    2  A    between atoms: C_6  and  N_7
REMARK    3  A    between atoms: N_7  and  C_8
REMARK    4  A    between atoms: C_9  and  C_10
REMARK    5  A    between atoms: C_10  and  C_12
REMARK    6  A    between atoms: S_21  and  N_24
REMARK                            x       y       z     vdW  Elec       q    Type
REMARK                         _______ _______ _______ _____ _____    ______ ____
ROOT
ATOM      1  C   UNL     1       8.435   3.588  -0.069  0.00  0.00    +0.025 A 
ATOM      2  C   UNL     1       9.626   4.288  -0.070  0.00  0.00    +0.031 A 
ATOM      3  C   UNL     1      10.830   3.607  -0.087  0.00  0.00    +0.113 A 
ATOM      4  C   UNL     1      10.846   2.224  -0.096  0.00  0.00    +0.031 A 
ATOM      5  C   UNL     1       9.659   1.518  -0.088  0.00  0.00    +0.025 A 
ATOM      6  C   UNL     1       8.448   2.199  -0.071  0.00  0.00    +0.031 A 
ENDROOT
BRANCH   3   7
ATOM      7  S   UNL     1      12.347   4.504  -0.097  0.00  0.00    +0.102 S 
ATOM      8  O   UNL     1      12.068   5.779   0.465  0.00  0.00    -0.146 OA
ATOM      9  O   UNL     1      13.335   3.635   0.439  0.00  0.00    -0.146 OA
BRANCH   7  10
ATOM     10  N   UNL     1      12.752   4.763  -1.681  0.00  0.00    -0.093 NA
ATOM     11  C   UNL     1      13.843   5.411  -1.977  0.00  0.00    +0.212 C 
ATOM     12  N   UNL     1      14.658   5.880  -0.974  0.00  0.00    -0.369 N 
ATOM     13  N   UNL     1      14.180   5.626  -3.293  0.00  0.00    -0.369 N 
ATOM     14  H   UNL     1      15.579   6.428  -1.224  0.00  0.00    +0.159 HD
ATOM     15  H   UNL     1      14.388   5.708   0.079  0.00  0.00    +0.159 HD
ATOM     16  H   UNL     1      15.101   6.173  -3.542  0.00  0.00    +0.159 HD
ATOM     17  H   UNL     1      13.528   5.251  -4.096  0.00  0.00    +0.159 HD
ENDBRANCH   7  10
ENDBRANCH   3   7
BRANCH   6  18
ATOM     18  N   UNL     1       7.245   1.488  -0.063  0.00  0.00    -0.320 N 
ATOM     19  H   UNL     1       7.256   0.388  -0.070  0.00  0.00    +0.152 HD
BRANCH  18  20
ATOM     20  C   UNL     1       6.054   2.159  -0.047  0.00  0.00    +0.076 C 
ATOM     21  C   UNL     1       4.891   1.471  -0.039  0.00  0.00    +0.066 C 
BRANCH  21  22
ATOM     22  C   UNL     1       3.660   2.165  -0.022  0.00  0.00    +0.187 C 
ATOM     23  O   UNL     1       3.648   3.384  -0.015  0.00  0.00    -0.287 OA
BRANCH  22  24
ATOM     24  C   UNL     1       2.388   1.413  -0.013  0.00  0.00    +0.025 A 
ATOM     25  C   UNL     1       2.400   0.017  -0.022  0.00  0.00    +0.015 A 
ATOM     26  C   UNL     1       1.213  -0.683  -0.014  0.00  0.00    +0.050 A 
ATOM     27  C   UNL     1       0.002  -0.004   0.002  0.00  0.00    +0.166 A 
ATOM     28  C   UNL     1      -0.017   1.391   0.010  0.00  0.00    +0.167 A 
ATOM     29  C   UNL     1       1.170   2.098   0.002  0.00  0.00    +0.061 A 
ATOM     30  O   UNL     1      -1.317   1.809   0.019  0.00  0.00    -0.453 OA
ATOM     31  C   UNL     1      -2.091   0.667  -0.387  0.00  0.00    +0.466 C 
ATOM     32  O   UNL     1      -1.284  -0.456   0.013  0.00  0.00    -0.453 OA
ENDBRANCH  22  24
ENDBRANCH  21  22
ENDBRANCH  18  20
ENDBRANCH   6  18
TORSDOF 6
