REMARK  Name = ZINC14023430
REMARK  14 active torsions:
REMARK  status: ('A' for Active; 'I' for Inactive)
REMARK    1  A    between atoms: C_1  and  C_2
REMARK    2  A    between atoms: C_2  and  C_3
REMARK    3  A    between atoms: C_3  and  C_5
REMARK    4  A    between atoms: C_3  and  O_24
REMARK    5  A    between atoms: N_7  and  N_8
REMARK    6  A    between atoms: C_9  and  C_11
REMARK    7  A    between atoms: C_11  and  O_12
REMARK    8  A    between atoms: O_12  and  C_13
REMARK    9  A    between atoms: C_16  and  C_20
REMARK   10  A    between atoms: C_20  and  C_21
REMARK   11  A    between atoms: C_20  and  C_22
REMARK   12  A    between atoms: C_20  and  C_23
REMARK   13  A    between atoms: O_24  and  C_25
REMARK   14  A    between atoms: C_29  and  C_31
REMARK                            x       y       z     vdW  Elec       q    Type
REMARK                         _______ _______ _______ _____ _____    ______ ____
ROOT
ATOM      1  N   UNL     1       1.120   3.593  -0.231  0.00  0.00    -0.231 N 
ATOM      2  C   UNL     1       2.278   4.282  -0.266  0.00  0.00    +0.267 C 
ATOM      3  O   UNL     1       3.337   3.691  -0.219  0.00  0.00    -0.271 OA
ATOM      4  H   UNL     1       0.274   4.066  -0.268  0.00  0.00    +0.173 HD
ENDROOT
BRANCH   1   7
ATOM      5  C   UNL     1      -0.020   1.507  -0.106  0.00  0.00    +0.270 C 
ATOM      6  O   UNL     1      -1.078   2.097  -0.158  0.00  0.00    -0.270 OA
ATOM      7  N   UNL     1       1.139   2.195  -0.141  0.00  0.00    -0.231 N 
ATOM      8  H   UNL     1       1.985   1.723  -0.103  0.00  0.00    +0.173 HD
BRANCH   5   9
ATOM      9  C   UNL     1       0.000   0.003  -0.009  0.00  0.00    +0.260 C 
BRANCH   9  11
ATOM     10  C   UNL     1       0.741  -1.937   1.380  0.00  0.00    +0.008 C 
ATOM     11  C   UNL     1       0.606  -0.414   1.333  0.00  0.00    +0.051 C 
ENDBRANCH   9  11
BRANCH   9  12
ATOM     12  O   UNL     1      -1.335  -0.498  -0.105  0.00  0.00    -0.480 OA
BRANCH  12  13
ATOM     13  C   UNL     1      -1.515  -1.637  -0.824  0.00  0.00    +0.122 A 
ATOM     14  C   UNL     1      -0.419  -2.324  -1.325  0.00  0.00    +0.046 A 
ATOM     15  C   UNL     1      -0.606  -3.482  -2.055  0.00  0.00    +0.004 A 
ATOM     16  C   UNL     1      -1.884  -3.957  -2.285  0.00  0.00    +0.003 A 
ATOM     17  C   UNL     1      -2.978  -3.275  -1.786  0.00  0.00    -0.047 A 
ATOM     18  C   UNL     1      -2.796  -2.119  -1.051  0.00  0.00    +0.049 A 
ATOM     19  C   UNL     1      -4.369  -3.796  -2.038  0.00  0.00    +0.044 C 
ENDBRANCH  12  13
ENDBRANCH   9  12
ENDBRANCH   5   9
ENDBRANCH   1   7
BRANCH   2  20
ATOM     20  C   UNL     1       2.259   5.785  -0.362  0.00  0.00    +0.326 C 
BRANCH  20  21
ATOM     21  O   UNL     1       3.599   6.279  -0.383  0.00  0.00    -0.482 OA
BRANCH  21  22
ATOM     22  C   UNL     1       3.760   7.626  -0.468  0.00  0.00    +0.135 A 
ATOM     23  C   UNL     1       2.650   8.455  -0.531  0.00  0.00    +0.047 A 
ATOM     24  C   UNL     1       2.815   9.824  -0.617  0.00  0.00    +0.008 A 
ATOM     25  C   UNL     1       4.086  10.368  -0.641  0.00  0.00    -0.041 A 
ATOM     26  C   UNL     1       5.195   9.545  -0.578  0.00  0.00    +0.023 A 
ATOM     27  C   UNL     1       5.035   8.175  -0.487  0.00  0.00    +0.060 A 
ATOM     28 BR   UNL     1       6.551   7.048  -0.395  0.00  0.00    -0.047 Br
BRANCH  25  29
ATOM     29  C   UNL     1       4.263  11.862  -0.734  0.00  0.00    -0.013 C 
ATOM     30  C   UNL     1       3.596  12.531   0.469  0.00  0.00    +0.015 C 
ATOM     31  C   UNL     1       5.756  12.199  -0.743  0.00  0.00    +0.015 C 
ATOM     32  C   UNL     1       3.618  12.372  -2.024  0.00  0.00    +0.015 C 
ENDBRANCH  25  29
ENDBRANCH  21  22
ENDBRANCH  20  21
ENDBRANCH   2  20
TORSDOF 9
