REMARK  Name = ZINC38705746
REMARK  15 active torsions:
REMARK  status: ('A' for Active; 'I' for Inactive)
REMARK    1  A    between atoms: C_1  and  C_2
REMARK    2  A    between atoms: C_2  and  C_3
REMARK    3  A    between atoms: C_3  and  C_4
REMARK    4  A    between atoms: C_4  and  N_5
REMARK    5  A    between atoms: C_6  and  C_25
REMARK    6  A    between atoms: C_9  and  C_16
REMARK    7  A    between atoms: C_17  and  C_24
REMARK    8  A    between atoms: C_19  and  C_23
REMARK    9  A    between atoms: C_21  and  O_22
REMARK   10  A    between atoms: C_29  and  O_31
REMARK   11  A    between atoms: O_31  and  C_32
REMARK   12  A    between atoms: C_32  and  C_33
REMARK   13  A    between atoms: C_33  and  C_34
REMARK   14  A    between atoms: C_34  and  C_35
REMARK   15  A    between atoms: C_34  and  C_36
REMARK                            x       y       z     vdW  Elec       q    Type
REMARK                         _______ _______ _______ _____ _____    ______ ____
ROOT
ATOM      1  N   UNL     1      -2.854  -2.124   0.278  0.00  0.00    -0.285 N 
ATOM      2  C   UNL     1      -3.887  -2.480   1.259  0.00  0.00    +0.141 C 
ATOM      3  C   UNL     1      -5.018  -3.083   0.473  0.00  0.00    +0.035 A 
ATOM      4  C   UNL     1      -6.293  -3.659   0.493  0.00  0.00    +0.102 A 
ATOM      5  N   UNL     1      -6.615  -3.948  -0.752  0.00  0.00    -0.173 NA
ATOM      6  N   UNL     1      -5.670  -3.612  -1.556  0.00  0.00    -0.272 N 
ATOM      7  H   UNL     1      -5.690  -3.731  -2.519  0.00  0.00    +0.189 HD
ATOM      8  C   UNL     1      -4.636  -3.062  -0.855  0.00  0.00    +0.126 A 
ATOM      9  C   UNL     1      -3.300  -2.462  -0.946  0.00  0.00    +0.265 C 
ATOM     10  O   UNL     1      -2.683  -2.295  -1.981  0.00  0.00    -0.268 OA
ENDROOT
BRANCH   4  11
ATOM     11  C   UNL     1      -7.129  -3.901   1.696  0.00  0.00    +0.047 A 
ATOM     12  C   UNL     1      -8.450  -3.462   1.728  0.00  0.00    -0.037 A 
ATOM     13  C   UNL     1      -9.224  -3.690   2.849  0.00  0.00    +0.007 A 
ATOM     14  C   UNL     1      -8.691  -4.352   3.941  0.00  0.00    -0.047 A 
ATOM     15  C   UNL     1      -7.381  -4.791   3.918  0.00  0.00    +0.049 A 
ATOM     16  C   UNL     1      -6.595  -4.574   2.798  0.00  0.00    +0.127 A 
ATOM     17  C   UNL     1      -9.543  -4.595   5.160  0.00  0.00    +0.044 C 
ATOM     18  C   UNL     1      -9.035  -2.740   0.542  0.00  0.00    +0.044 C 
BRANCH  16  19
ATOM     19  O   UNL     1      -5.308  -5.010   2.773  0.00  0.00    -0.506 OA
ATOM     20  H   UNL     1      -4.679  -4.401   3.182  0.00  0.00    +0.292 HD
ENDBRANCH  16  19
ENDBRANCH   4  11
BRANCH   2  21
ATOM     21  C   UNL     1      -4.358  -1.247   1.986  0.00  0.00    -0.019 A 
ATOM     22  C   UNL     1      -4.724  -0.121   1.271  0.00  0.00    +0.006 A 
ATOM     23  C   UNL     1      -5.156   1.012   1.935  0.00  0.00    +0.004 A 
ATOM     24  C   UNL     1      -5.223   1.022   3.315  0.00  0.00    +0.045 A 
ATOM     25  C   UNL     1      -4.857  -0.106   4.034  0.00  0.00    +0.121 A 
ATOM     26  C   UNL     1      -4.429  -1.244   3.365  0.00  0.00    +0.051 A 
BRANCH  25  27
ATOM     27  O   UNL     1      -4.922  -0.099   5.392  0.00  0.00    -0.492 OA
BRANCH  27  28
ATOM     28  C   UNL     1      -5.377   1.105   6.013  0.00  0.00    +0.229 C 
BRANCH  28  29
ATOM     29  C   UNL     1      -5.383   0.924   7.532  0.00  0.00    +0.044 C 
BRANCH  29  30
ATOM     30  C   UNL     1      -5.871   2.213   8.197  0.00  0.00    -0.014 C 
ATOM     31  C   UNL     1      -5.996   1.993   9.706  0.00  0.00    +0.007 C 
ATOM     32  C   UNL     1      -4.868   3.337   7.927  0.00  0.00    +0.007 C 
ENDBRANCH  29  30
ENDBRANCH  28  29
ENDBRANCH  27  28
ENDBRANCH  25  27
ENDBRANCH   2  21
BRANCH   1  33
ATOM     33  C   UNL     1      -1.561  -1.504   0.578  0.00  0.00    +0.109 C 
BRANCH  33  34
ATOM     34  C   UNL     1      -1.706   0.019   0.539  0.00  0.00    +0.019 C 
BRANCH  34  36
ATOM     35  C   UNL     1      -0.501   2.191   0.814  0.00  0.00    +0.004 C 
ATOM     36  C   UNL     1      -0.356   0.668   0.853  0.00  0.00    -0.002 C 
ENDBRANCH  34  36
ENDBRANCH  33  34
ENDBRANCH   1  33
TORSDOF 10
