REMARK  Name = ZINC33026744
REMARK  8 active torsions:
REMARK  status: ('A' for Active; 'I' for Inactive)
REMARK    1  A    between atoms: C_1  and  C_2
REMARK    2  A    between atoms: C_7  and  N_12
REMARK    3  A    between atoms: C_9  and  C_11
REMARK    4  A    between atoms: N_12  and  S_13
REMARK    5  A    between atoms: S_13  and  C_16
REMARK    6  A    between atoms: C_19  and  C_22
REMARK    7  A    between atoms: C_22  and  C_23
REMARK    8  A    between atoms: C_26  and  C_31
REMARK                            x       y       z     vdW  Elec       q    Type
REMARK                         _______ _______ _______ _____ _____    ______ ____
ROOT
ATOM      1  C   UNL     1      -0.826   0.615   5.659  0.00  0.00    +0.105 A 
ATOM      2  C   UNL     1      -1.619   1.660   5.224  0.00  0.00    +0.029 A 
ATOM      3  C   UNL     1      -2.908   1.797   5.705  0.00  0.00    +0.006 A 
ATOM      4  C   UNL     1      -3.404   0.888   6.621  0.00  0.00    -0.043 A 
ATOM      5  C   UNL     1      -2.611  -0.158   7.055  0.00  0.00    +0.006 A 
ATOM      6  C   UNL     1      -1.324  -0.297   6.571  0.00  0.00    +0.029 A 
ENDROOT
BRANCH   1   7
ATOM      7  S   UNL     1       0.817   0.440   5.046  0.00  0.00    +0.059 S 
ATOM      8  O   UNL     1       1.535  -0.308   6.017  0.00  0.00    -0.153 OA
ATOM      9  O   UNL     1       1.230   1.731   4.620  0.00  0.00    -0.153 OA
BRANCH   7  10
ATOM     10  N   UNL     1       0.735  -0.503   3.687  0.00  0.00    -0.187 NA
ATOM     11  H   UNL     1       1.155  -1.377   3.677  0.00  0.00    +0.148 HD
BRANCH  10  17
ATOM     12  C   UNL     1      -0.019   1.526   0.010  0.00  0.00    +0.008 C 
ATOM     13  C   UNL     1       0.002  -0.004   0.002  0.00  0.00    -0.010 C 
ATOM     14  C   UNL     1      -1.433  -0.534   0.013  0.00  0.00    +0.003 C 
ATOM     15  C   UNL     1      -2.149  -0.040   1.272  0.00  0.00    +0.002 C 
ATOM     16  C   UNL     1      -1.409  -0.547   2.511  0.00  0.00    +0.020 C 
ATOM     17  C   UNL     1       0.026  -0.018   2.500  0.00  0.00    +0.080 C 
ATOM     18  C   UNL     1       0.742  -0.511   1.242  0.00  0.00    +0.007 C 
ATOM     19  C   UNL     1       2.178   0.019   1.231  0.00  0.00    +0.009 C 
ENDBRANCH  10  17
ENDBRANCH   7  10
ENDBRANCH   1   7
BRANCH   4  20
ATOM     20  C   UNL     1      -4.808   1.038   7.146  0.00  0.00    +0.075 C 
BRANCH  20  21
ATOM     21  C   UNL     1      -5.760   0.280   6.257  0.00  0.00    +0.024 A 
ATOM     22  H   UNL     1      -7.492   0.557   3.510  0.00  0.00    +0.192 HD
ATOM     23  C   UNL     1      -6.144  -0.995   6.560  0.00  0.00    +0.034 A 
ATOM     24  C   UNL     1      -7.034  -1.648   5.691  0.00  0.00    +0.059 A 
ATOM     25  N   UNL     1      -7.478  -1.044   4.623  0.00  0.00    -0.176 NA
ATOM     26  N   UNL     1      -7.133   0.154   4.316  0.00  0.00    -0.243 N 
ATOM     27  C   UNL     1      -6.289   0.867   5.087  0.00  0.00    +0.268 A 
ATOM     28  O   UNL     1      -5.982   2.006   4.775  0.00  0.00    -0.266 OA
ATOM     29  C   UNL     1      -7.479  -3.055   5.994  0.00  0.00    +0.067 C 
ENDBRANCH  20  21
ENDBRANCH   4  20
TORSDOF 5
