REMARK  Name = ZINC19578972
REMARK  6 active torsions:
REMARK  status: ('A' for Active; 'I' for Inactive)
REMARK    1  A    between atoms: C_1  and  C_2
REMARK    2  A    between atoms: C_3  and  C_9
REMARK    3  A    between atoms: C_4  and  C_8
REMARK    4  A    between atoms: C_9  and  C_10
REMARK    5  A    between atoms: C_10  and  C_11
REMARK    6  A    between atoms: C_18  and  C_20
REMARK                            x       y       z     vdW  Elec       q    Type
REMARK                         _______ _______ _______ _____ _____    ______ ____
ROOT
ATOM      1  C   UNL     1       1.418   0.322  -4.451  0.00  0.00    +0.023 A 
ATOM      2  C   UNL     1       1.506   1.642  -4.731  0.00  0.00    +0.093 A 
ATOM      3  C   UNL     1       1.493   2.078  -6.072  0.00  0.00    +0.275 A 
ATOM      4  N   UNL     1       1.393   1.177  -7.069  0.00  0.00    -0.180 N 
ATOM      5  C   UNL     1       1.305  -0.156  -6.779  0.00  0.00    +0.139 A 
ATOM      6  N   UNL     1       1.323  -0.584  -5.464  0.00  0.00    -0.343 N 
ATOM      7  C   UNL     1       1.216  -0.828  -7.958  0.00  0.00    +0.076 A 
ATOM      8  C   UNL     1       1.250   0.118  -8.997  0.00  0.00    +0.095 A 
ATOM      9  N   UNL     1       1.356   1.317  -8.462  0.00  0.00    -0.162 NA
ATOM     10  O   UNL     1       1.571   3.266  -6.328  0.00  0.00    -0.266 OA
ATOM     11  H   UNL     1       1.264  -1.531  -5.263  0.00  0.00    +0.167 HD
ENDROOT
BRANCH   8  12
ATOM     12  C   UNL     1       1.180  -0.182 -10.449  0.00  0.00    +0.002 A 
ATOM     13  C   UNL     1       1.063  -1.500 -10.884  0.00  0.00    +0.013 A 
ATOM     14  C   UNL     1       0.998  -1.775 -12.235  0.00  0.00    +0.039 A 
ATOM     15  C   UNL     1       1.049  -0.743 -13.157  0.00  0.00    +0.123 A 
ATOM     16  C   UNL     1       1.165   0.570 -12.728  0.00  0.00    +0.039 A 
ATOM     17  C   UNL     1       1.224   0.854 -11.379  0.00  0.00    +0.013 A 
ATOM     18  F   UNL     1       0.985  -1.016 -14.479  0.00  0.00    -0.205 F 
ENDBRANCH   8  12
BRANCH   1  19
ATOM     19  C   UNL     1       1.432  -0.147  -3.019  0.00  0.00    +0.058 C 
BRANCH  19  20
ATOM     20  C   UNL     1      -0.006  -0.327  -2.527  0.00  0.00    +0.045 C 
BRANCH  20  23
ATOM     21  C   UNL     1      -0.018   1.503   0.010  0.00  0.00    +0.065 C 
ATOM     22  C   UNL     1       0.002  -0.004   0.002  0.00  0.00    +0.036 A 
ATOM     23  C   UNL     1       0.008  -0.796  -1.095  0.00  0.00    -0.004 A 
ATOM     24  C   UNL     1       0.028  -2.127  -0.666  0.00  0.00    +0.063 A 
ATOM     25  N   UNL     1       0.035  -2.134   0.643  0.00  0.00    -0.179 NA
ATOM     26  N   UNL     1       0.024  -0.805   1.088  0.00  0.00    -0.281 N 
ATOM     27  H   UNL     1       0.029  -0.513   2.013  0.00  0.00    +0.189 HD
ATOM     28  C   UNL     1       0.040  -3.343  -1.556  0.00  0.00    +0.068 C 
ENDBRANCH  20  23
ENDBRANCH  19  20
ENDBRANCH   1  19
TORSDOF 4
