REMARK  Name = ZINC63783123
REMARK  8 active torsions:
REMARK  status: ('A' for Active; 'I' for Inactive)
REMARK    1  A    between atoms: C_1  and  C_2
REMARK    2  A    between atoms: C_5  and  S_8
REMARK    3  A    between atoms: S_8  and  N_11
REMARK    4  A    between atoms: C_17  and  C_19
REMARK    5  A    between atoms: C_19  and  C_20
REMARK    6  A    between atoms: N_22  and  C_23
REMARK    7  A    between atoms: C_23  and  C_24
REMARK    8  A    between atoms: C_24  and  C_25
REMARK                            x       y       z     vdW  Elec       q    Type
REMARK                         _______ _______ _______ _____ _____    ______ ____
ROOT
ATOM      1  N   UNL     1       1.750  -4.842  -0.072  0.00  0.00    -0.163 NA
ATOM      2  C   UNL     1       2.464  -4.870  -1.359  0.00  0.00    +0.129 C 
ATOM      3  C   UNL     1       3.314  -3.602  -1.461  0.00  0.00    +0.121 C 
ATOM      4  N   UNL     1       4.052  -3.374  -0.227  0.00  0.00    -0.313 N 
ATOM      5  C   UNL     1       3.714  -3.877   0.962  0.00  0.00    +0.232 C 
ATOM      6  O   UNL     1       4.362  -3.551   1.933  0.00  0.00    -0.274 OA
ATOM      7  C   UNL     1       2.565  -4.823   1.152  0.00  0.00    +0.174 C 
ATOM      8  H   UNL     1       4.845  -2.818  -0.272  0.00  0.00    +0.149 HD
ENDROOT
BRANCH   1   9
ATOM      9  S   UNL     1       0.095  -4.826  -0.005  0.00  0.00    +0.062 S 
ATOM     10  O   UNL     1      -0.273  -5.581   1.141  0.00  0.00    -0.153 OA
ATOM     11  O   UNL     1      -0.367  -5.148  -1.309  0.00  0.00    -0.153 OA
BRANCH   9  16
ATOM     12  C   UNL     1      -1.594   0.866   1.066  0.00  0.00    +0.044 C 
ATOM     13  C   UNL     1      -1.172  -0.555   0.799  0.00  0.00    -0.050 A 
ATOM     14  C   UNL     1      -1.023  -0.999  -0.502  0.00  0.00    +0.005 A 
ATOM     15  C   UNL     1      -0.636  -2.303  -0.747  0.00  0.00    +0.029 A 
ATOM     16  C   UNL     1      -0.398  -3.163   0.308  0.00  0.00    +0.106 A 
ATOM     17  C   UNL     1      -0.545  -2.720   1.609  0.00  0.00    +0.029 A 
ATOM     18  C   UNL     1      -0.929  -1.414   1.854  0.00  0.00    +0.005 A 
ENDBRANCH   9  16
ENDBRANCH   1   9
BRANCH   7  19
ATOM     19  C   UNL     1       1.708  -4.358   2.331  0.00  0.00    +0.125 C 
BRANCH  19  20
ATOM     20  C   UNL     1       2.501  -4.481   3.607  0.00  0.00    +0.215 C 
ATOM     21  O   UNL     1       3.579  -5.036   3.600  0.00  0.00    -0.276 OA
ATOM     22  N   UNL     1       2.012  -3.973   4.756  0.00  0.00    -0.315 N 
ATOM     23  H   UNL     1       1.150  -3.529   4.761  0.00  0.00    +0.149 HD
BRANCH  22  24
ATOM     24  C   UNL     1       2.782  -4.093   5.996  0.00  0.00    +0.108 C 
BRANCH  24  25
ATOM     25  C   UNL     1       2.008  -3.439   7.143  0.00  0.00    +0.052 C 
BRANCH  25  26
ATOM     26  C   UNL     1       2.801  -3.562   8.418  0.00  0.00    -0.040 C 
ATOM     27  C   UNL     1       3.639  -2.642   8.947  0.00  0.00    -0.001 A 
ATOM     28  C   UNL     1       4.048  -1.302   8.508  0.00  0.00    +0.010 A 
ATOM     29  C   UNL     1       4.924  -0.603   9.266  0.00  0.00    +0.001 A 
ATOM     30  C   UNL     1       5.450  -1.125  10.456  0.00  0.00    +0.002 A 
ATOM     31  C   UNL     1       5.121  -2.348  10.923  0.00  0.00    +0.026 A 
ATOM     32  C   UNL     1       4.208  -3.170  10.207  0.00  0.00    +0.043 A 
ATOM     33  N   UNL     1       3.740  -4.370  10.449  0.00  0.00    -0.380 N 
ATOM     34  C   UNL     1       2.815  -4.737   9.370  0.00  0.00    +0.144 C 
ATOM     35  H   UNL     1       3.964  -4.922  11.214  0.00  0.00    +0.160 HD
ENDBRANCH  25  26
ENDBRANCH  24  25
ENDBRANCH  22  24
ENDBRANCH  19  20
ENDBRANCH   7  19
TORSDOF 7
