REMARK  Name = ZINC38601481
REMARK  9 active torsions:
REMARK  status: ('A' for Active; 'I' for Inactive)
REMARK    1  A    between atoms: C_1  and  C_2
REMARK    2  A    between atoms: C_2  and  C_4
REMARK    3  A    between atoms: C_2  and  N_24
REMARK    4  A    between atoms: C_4  and  C_6
REMARK    5  A    between atoms: C_4  and  N_11
REMARK    6  A    between atoms: N_14  and  C_17
REMARK    7  A    between atoms: C_17  and  C_18
REMARK    8  A    between atoms: C_25  and  C_27
REMARK    9  A    between atoms: N_32  and  C_34
REMARK                            x       y       z     vdW  Elec       q    Type
REMARK                         _______ _______ _______ _____ _____    ______ ____
ROOT
ATOM      1  C   UNL     1       0.753  -0.488   0.988  0.00  0.00    +0.113 C 
ENDROOT
BRANCH   1   2
ATOM      2  N   UNL     1       2.017   0.248   0.852  0.00  0.00    -0.297 NA
ATOM      3  C   UNL     1       2.902  -0.010   1.997  0.00  0.00    +0.066 C 
ATOM      4  C   UNL     1       4.180   0.819   1.847  0.00  0.00    -0.063 C 
ATOM      5  N   UNL     1       4.854   0.456   0.594  0.00  0.00    +0.384 N 
ATOM      6  C   UNL     1       3.968   0.742  -0.542  0.00  0.00    -0.063 C 
ATOM      7  C   UNL     1       2.689  -0.087  -0.412  0.00  0.00    +0.066 C 
ATOM      8  H   UNL     1       5.080  -0.527   0.606  0.00  0.00    -0.081 HD
BRANCH   5   9
ATOM      9  C   UNL     1       6.090   1.239   0.459  0.00  0.00    -0.043 C 
BRANCH   9  10
ATOM     10  C   UNL     1       6.845   0.781  -0.762  0.00  0.00    -0.064 A 
ATOM     11  C   UNL     1       7.770  -0.240  -0.660  0.00  0.00    +0.002 A 
ATOM     12  C   UNL     1       8.462  -0.661  -1.781  0.00  0.00    +0.000 A 
ATOM     13  C   UNL     1       8.228  -0.060  -3.004  0.00  0.00    +0.000 A 
ATOM     14  C   UNL     1       7.301   0.961  -3.106  0.00  0.00    +0.000 A 
ATOM     15  C   UNL     1       6.606   1.379  -1.986  0.00  0.00    +0.002 A 
ENDBRANCH   9  10
ENDBRANCH   5   9
ENDBRANCH   1   2
BRANCH   1  16
ATOM     16  C   UNL     1       0.149  -0.203   2.338  0.00  0.00    +0.009 A 
ATOM     17  C   UNL     1      -0.398  -1.067   3.228  0.00  0.00    +0.013 A 
ATOM     18  C   UNL     1      -0.896  -0.576   4.420  0.00  0.00    +0.008 A 
ATOM     19  C   UNL     1      -0.824   0.756   4.663  0.00  0.00    +0.045 A 
ATOM     20  S   UNL     1      -0.027   1.359   3.185  0.00  0.00    -0.100 S 
ENDBRANCH   1  16
BRANCH   1  22
ATOM     21  C   UNL     1      -0.397   1.475  -0.044  0.00  0.00    +0.030 C 
ATOM     22  C   UNL     1      -0.216  -0.043  -0.109  0.00  0.00    +0.092 C 
BRANCH  22  23
ATOM     23  N   UNL     1      -1.512  -0.698   0.088  0.00  0.00    -0.311 N 
ATOM     24  C   UNL     1      -2.341  -0.882  -0.958  0.00  0.00    +0.218 C 
ATOM     25  O   UNL     1      -2.014  -0.505  -2.064  0.00  0.00    -0.275 OA
ATOM     26  H   UNL     1      -1.773  -0.999   0.973  0.00  0.00    +0.149 HD
BRANCH  24  27
ATOM     27  C   UNL     1      -3.673  -1.556  -0.755  0.00  0.00    +0.101 C 
ATOM     28  C   UNL     1      -3.488  -3.024  -0.306  0.00  0.00    +0.110 C 
ATOM     29  C   UNL     1      -4.604  -3.769  -1.005  0.00  0.00    +0.221 C 
ATOM     30  O   UNL     1      -4.987  -4.881  -0.711  0.00  0.00    -0.275 OA
ATOM     31  N   UNL     1      -5.108  -3.018  -2.000  0.00  0.00    -0.271 N 
ATOM     32  C   UNL     1      -4.417  -1.727  -2.098  0.00  0.00    +0.127 C 
BRANCH  31  33
ATOM     33  C   UNL     1      -6.159  -3.416  -2.834  0.00  0.00    +0.036 A 
ATOM     34  C   UNL     1      -6.837  -4.602  -2.582  0.00  0.00    +0.023 A 
ATOM     35  C   UNL     1      -7.873  -4.992  -3.408  0.00  0.00    +0.002 A 
ATOM     36  C   UNL     1      -8.236  -4.203  -4.484  0.00  0.00    +0.000 A 
ATOM     37  C   UNL     1      -7.562  -3.022  -4.738  0.00  0.00    +0.002 A 
ATOM     38  C   UNL     1      -6.529  -2.624  -3.913  0.00  0.00    +0.023 A 
ENDBRANCH  31  33
ENDBRANCH  24  27
ENDBRANCH  22  23
ENDBRANCH   1  22
TORSDOF 8
