REMARK  Name = ZINC14033436
REMARK  13 active torsions:
REMARK  status: ('A' for Active; 'I' for Inactive)
REMARK    1  A    between atoms: C_1  and  C_2
REMARK    2  A    between atoms: C_2  and  C_4
REMARK    3  A    between atoms: C_2  and  O_27
REMARK    4  A    between atoms: N_6  and  C_7
REMARK    5  A    between atoms: C_10  and  S_13
REMARK    6  A    between atoms: S_13  and  N_16
REMARK    7  A    between atoms: N_16  and  C_17
REMARK    8  A    between atoms: C_19  and  O_25
REMARK    9  A    between atoms: C_21  and  O_23
REMARK   10  A    between atoms: O_23  and  C_24
REMARK   11  A    between atoms: O_25  and  C_26
REMARK   12  A    between atoms: O_27  and  C_28
REMARK   13  A    between atoms: C_33  and  N_34
REMARK                            x       y       z     vdW  Elec       q    Type
REMARK                         _______ _______ _______ _____ _____    ______ ____
ROOT
ATOM      1  C   UNL     1      -3.164  -1.462   3.759  0.00  0.00    +0.034 A 
ATOM      2  C   UNL     1      -3.664  -0.181   3.567  0.00  0.00    +0.025 A 
ATOM      3  C   UNL     1      -3.734   0.348   2.293  0.00  0.00    +0.031 A 
ATOM      4  C   UNL     1      -3.307  -0.398   1.209  0.00  0.00    +0.111 A 
ATOM      5  C   UNL     1      -2.814  -1.676   1.397  0.00  0.00    +0.031 A 
ATOM      6  C   UNL     1      -2.736  -2.208   2.669  0.00  0.00    +0.025 A 
ENDROOT
BRANCH   1   9
ATOM      7  C   UNL     1      -4.023  -1.677   5.967  0.00  0.00    +0.258 C 
ATOM      8  O   UNL     1      -4.974  -0.993   5.652  0.00  0.00    -0.271 OA
ATOM      9  N   UNL     1      -3.092  -2.001   5.049  0.00  0.00    -0.282 N 
ATOM     10  H   UNL     1      -2.275  -2.688   5.313  0.00  0.00    +0.155 HD
BRANCH   7  12
ATOM     11  C   UNL     1      -3.867  -3.694   7.401  0.00  0.00    +0.062 C 
ATOM     12  C   UNL     1      -3.884  -2.164   7.386  0.00  0.00    +0.256 C 
BRANCH  12  13
ATOM     13  O   UNL     1      -4.987  -1.693   8.163  0.00  0.00    -0.478 OA
BRANCH  13  14
ATOM     14  C   UNL     1      -4.792  -1.571   9.502  0.00  0.00    +0.152 A 
ATOM     15  C   UNL     1      -3.606  -2.008  10.074  0.00  0.00    +0.048 A 
ATOM     16  C   UNL     1      -3.410  -1.883  11.435  0.00  0.00    +0.004 A 
ATOM     17  C   UNL     1      -4.394  -1.322  12.228  0.00  0.00    +0.002 A 
ATOM     18  C   UNL     1      -5.577  -0.886  11.661  0.00  0.00    +0.036 A 
ATOM     19  C   UNL     1      -5.776  -1.005  10.299  0.00  0.00    +0.168 A 
BRANCH  19  20
ATOM     20  N   UNL     1      -7.040  -0.532   9.691  0.00  0.00    +0.060 N 
ATOM     21  O   UNL     1      -7.904  -0.035  10.391  0.00  0.00    -0.126 OA
ATOM     22  O   UNL     1      -7.217  -0.641   8.491  0.00  0.00    -0.126 OA
ENDBRANCH  19  20
ENDBRANCH  13  14
ENDBRANCH  12  13
ENDBRANCH   7  12
ENDBRANCH   1   9
BRANCH   4  23
ATOM     23  S   UNL     1      -3.399   0.280  -0.415  0.00  0.00    +0.093 S 
ATOM     24  O   UNL     1      -4.408   1.279  -0.381  0.00  0.00    -0.148 OA
ATOM     25  O   UNL     1      -3.446  -0.821  -1.312  0.00  0.00    -0.148 OA
BRANCH  23  26
ATOM     26  N   UNL     1      -1.967   1.062  -0.701  0.00  0.00    -0.078 NA
BRANCH  26  27
ATOM     27  C   UNL     1      -0.785   0.342  -0.764  0.00  0.00    +0.173 A 
ATOM     28  C   UNL     1       0.424   0.989  -1.010  0.00  0.00    +0.114 A 
ATOM     29  C   UNL     1       1.582   0.225  -1.070  0.00  0.00    +0.222 A 
ATOM     30  N   UNL     1       1.500  -1.091  -0.893  0.00  0.00    -0.160 NA
ATOM     31  C   UNL     1       0.335  -1.673  -0.662  0.00  0.00    +0.323 A 
ATOM     32  N   UNL     1      -0.789  -0.979  -0.597  0.00  0.00    -0.176 NA
BRANCH  31  33
ATOM     33  O   UNL     1       0.292  -3.015  -0.487  0.00  0.00    -0.466 OA
ATOM     34  C   UNL     1       1.532  -3.720  -0.567  0.00  0.00    +0.280 C 
ENDBRANCH  31  33
BRANCH  29  35
ATOM     35  O   UNL     1       2.781   0.812  -1.306  0.00  0.00    -0.479 OA
ATOM     36  C   UNL     1       3.924  -0.043  -1.353  0.00  0.00    +0.279 C 
ENDBRANCH  29  35
ENDBRANCH  26  27
ENDBRANCH  23  26
ENDBRANCH   4  23
TORSDOF 10
