REMARK  Name = ZINC30995152
REMARK  5 active torsions:
REMARK  status: ('A' for Active; 'I' for Inactive)
REMARK    1  A    between atoms: C_9  and  C_12
REMARK    2  A    between atoms: C_12  and  N_13
REMARK    3  A    between atoms: N_16  and  C_17
REMARK    4  A    between atoms: C_17  and  C_18
REMARK    5  A    between atoms: N_20  and  C_21
REMARK                            x       y       z     vdW  Elec       q    Type
REMARK                         _______ _______ _______ _____ _____    ______ ____
ROOT
ATOM      1  N   UNL     1      -7.076   0.468   0.582  0.00  0.00    -0.296 N 
ATOM      2  C   UNL     1      -6.040  -0.389   0.478  0.00  0.00    +0.300 C 
ATOM      3  O   UNL     1      -6.240  -1.588   0.493  0.00  0.00    -0.253 OA
ATOM      4  N   UNL     1      -4.784   0.084   0.359  0.00  0.00    -0.291 N 
ATOM      5  H   UNL     1      -6.895   1.553   0.569  0.00  0.00    +0.150 HD
ATOM      6  H   UNL     1      -4.604   1.169   0.345  0.00  0.00    +0.151 HD
ENDROOT
BRANCH   1   7
ATOM      7  C   UNL     1      -8.441  -0.046   0.712  0.00  0.00    +0.153 C 
BRANCH   7  16
ATOM      8  C   UNL     1     -12.499   4.552  -1.010  0.00  0.00    +0.004 A 
ATOM      9  C   UNL     1     -11.350   4.627  -1.776  0.00  0.00    +0.004 A 
ATOM     10  C   UNL     1     -10.322   3.725  -1.575  0.00  0.00    +0.049 A 
ATOM     11  C   UNL     1     -10.441   2.742  -0.604  0.00  0.00    +0.163 A 
ATOM     12  C   UNL     1     -11.595   2.668   0.168  0.00  0.00    +0.162 A 
ATOM     13  C   UNL     1     -12.623   3.576  -0.040  0.00  0.00    +0.049 A 
ATOM     14  O   UNL     1     -11.729   1.716   1.131  0.00  0.00    -0.485 OA
ATOM     15  C   UNL     1     -10.839   0.596   1.058  0.00  0.00    +0.275 C 
ATOM     16  C   UNL     1      -9.420   1.126   0.811  0.00  0.00    +0.228 C 
ATOM     17  O   UNL     1      -9.422   1.859  -0.419  0.00  0.00    -0.480 OA
ENDBRANCH   7  16
ENDBRANCH   1   7
BRANCH   4  18
ATOM     18  C   UNL     1      -3.659  -0.847   0.246  0.00  0.00    +0.202 C 
BRANCH  18  19
ATOM     19  C   UNL     1      -2.373  -0.070   0.125  0.00  0.00    +0.234 C 
ATOM     20  O   UNL     1      -2.395   1.143   0.132  0.00  0.00    -0.274 OA
ATOM     21  N   UNL     1      -1.200  -0.722   0.009  0.00  0.00    -0.283 N 
ATOM     22  H   UNL     1      -1.187  -1.817  -0.088  0.00  0.00    +0.155 HD
BRANCH  21  23
ATOM     23  C   UNL     1       0.003  -0.005   0.013  0.00  0.00    +0.053 A 
ATOM     24  C   UNL     1       0.069   1.238   0.627  0.00  0.00    +0.044 A 
ATOM     25  C   UNL     1       1.258   1.944   0.629  0.00  0.00    +0.043 A 
ATOM     26  C   UNL     1       2.381   1.412   0.019  0.00  0.00    +0.021 A 
ATOM     27  C   UNL     1       2.318   0.174  -0.593  0.00  0.00    +0.023 A 
ATOM     28  C   UNL     1       1.132  -0.536  -0.598  0.00  0.00    +0.062 A 
ATOM     29 CL   UNL     1       1.053  -2.090  -1.368  0.00  0.00    -0.082 Cl
ATOM     30 CL   UNL     1       1.342   3.499   1.396  0.00  0.00    -0.083 Cl
ENDBRANCH  21  23
ENDBRANCH  18  19
ENDBRANCH   4  18
TORSDOF 5
