REMARK  Name = ZINC40835820
REMARK  2 active torsions:
REMARK  status: ('A' for Active; 'I' for Inactive)
REMARK    1  A    between atoms: C_4  and  N_7
REMARK    2  A    between atoms: C_16  and  C_17
REMARK                            x       y       z     vdW  Elec       q    Type
REMARK                         _______ _______ _______ _____ _____    ______ ____
ROOT
ATOM      1  N   UNL     1       3.587  -0.653  -0.062  0.00  0.00    -0.354 N 
ATOM      2  C   UNL     1       3.822  -1.612   0.821  0.00  0.00    +0.065 A 
ATOM      3  C   UNL     1       2.758  -2.076   1.749  0.00  0.00    +0.030 A 
ATOM      4  C   UNL     1       1.385  -1.617   1.860  0.00  0.00    +0.019 A 
ATOM      5  C   UNL     1       0.580  -2.178   2.776  0.00  0.00    +0.048 A 
ATOM      6  S   UNL     1       1.634  -3.381   3.562  0.00  0.00    -0.079 S 
ATOM      7  C   UNL     1       3.121  -3.091   2.635  0.00  0.00    +0.087 A 
ATOM      8  N   UNL     1       4.366  -3.639   2.666  0.00  0.00    -0.354 N 
ATOM      9  C   UNL     1       5.354  -3.247   1.844  0.00  0.00    +0.100 A 
ATOM     10  C   UNL     1       5.144  -2.254   0.910  0.00  0.00    +0.103 A 
ATOM     11  H   UNL     1       4.548  -4.342   3.310  0.00  0.00    +0.166 HD
ATOM     12  H   UNL     1       4.247  -0.448  -0.742  0.00  0.00    +0.166 HD
ENDROOT
BRANCH   1  16
ATOM     13  C   UNL     1       0.039   1.466   0.081  0.00  0.00    +0.000 A 
ATOM     14  C   UNL     1       0.971   1.615   1.093  0.00  0.00    +0.002 A 
ATOM     15  C   UNL     1       2.156   0.911   1.052  0.00  0.00    +0.025 A 
ATOM     16  C   UNL     1       2.416   0.046  -0.015  0.00  0.00    +0.040 A 
ATOM     17  C   UNL     1       1.469  -0.100  -1.033  0.00  0.00    +0.025 A 
ATOM     18  C   UNL     1       0.288   0.611  -0.979  0.00  0.00    +0.002 A 
ENDBRANCH   1  16
BRANCH  10  19
ATOM     19  C   UNL     1       6.228  -1.840   0.016  0.00  0.00    +0.390 C 
ATOM     20  O   UNL     1       7.292  -2.446   0.022  0.00  0.00    -0.240 OA
ATOM     21  O   UNL     1       6.070  -0.887  -0.737  0.00  0.00    -0.240 OA
ENDBRANCH  10  19
TORSDOF 2
