REMARK  Name = ZINC37555965
REMARK  6 active torsions:
REMARK  status: ('A' for Active; 'I' for Inactive)
REMARK    1  A    between atoms: C_8  and  N_19
REMARK    2  A    between atoms: C_9  and  S_10
REMARK    3  A    between atoms: S_10  and  N_13
REMARK    4  A    between atoms: N_13  and  C_14
REMARK    5  A    between atoms: C_14  and  C_15
REMARK    6  A    between atoms: N_19  and  N_20
REMARK                            x       y       z     vdW  Elec       q    Type
REMARK                         _______ _______ _______ _____ _____    ______ ____
ROOT
ATOM      1  C   UNL     1      -0.016   1.357   0.009  0.00  0.00    +0.005 A 
ATOM      2  C   UNL     1       1.194   2.068   0.002  0.00  0.00    +0.018 A 
ATOM      3  C   UNL     1       2.372   1.408  -0.013  0.00  0.00    +0.094 A 
ATOM      4  N   UNL     1       2.404   0.045  -0.022  0.00  0.00    -0.282 N 
ATOM      5  C   UNL     1       1.239  -0.677  -0.014  0.00  0.00    +0.141 A 
ATOM      6  C   UNL     1       0.002  -0.004   0.002  0.00  0.00    +0.047 A 
ATOM      7  N   UNL     1       1.552  -1.967  -0.025  0.00  0.00    -0.210 NA
ATOM      8  C   UNL     1       2.883  -2.097  -0.040  0.00  0.00    +0.179 A 
ATOM      9  C   UNL     1       3.436  -0.857  -0.038  0.00  0.00    +0.221 A 
ENDROOT
BRANCH   9  10
ATOM     10  S   UNL     1       5.157  -0.479  -0.054  0.00  0.00    +0.078 S 
ATOM     11  O   UNL     1       5.815  -1.605  -0.619  0.00  0.00    -0.151 OA
ATOM     12  O   UNL     1       5.280   0.828  -0.599  0.00  0.00    -0.151 OA
BRANCH  10  13
ATOM     13  N   UNL     1       5.652  -0.383   1.523  0.00  0.00    -0.180 NA
ATOM     14  H   UNL     1       5.964   0.462   1.883  0.00  0.00    +0.148 HD
BRANCH  13  15
ATOM     15  C   UNL     1       5.620  -1.575   2.375  0.00  0.00    +0.219 C 
BRANCH  15  16
ATOM     16  C   UNL     1       6.456  -1.326   3.632  0.00  0.00    +0.404 C 
ATOM     17  F   UNL     1       5.929  -0.236   4.334  0.00  0.00    -0.169 F 
ATOM     18  F   UNL     1       6.424  -2.464   4.445  0.00  0.00    -0.169 F 
ATOM     19  F   UNL     1       7.777  -1.050   3.266  0.00  0.00    -0.169 F 
ENDBRANCH  15  16
ENDBRANCH  13  15
ENDBRANCH  10  13
ENDBRANCH   9  10
BRANCH   8  20
ATOM     20  N   UNL     1       3.587  -3.308  -0.054  0.00  0.00    -0.265 N 
ATOM     21  H   UNL     1       4.557  -3.305  -0.064  0.00  0.00    +0.168 HD
BRANCH  20  22
ATOM     22  N   UNL     1       2.908  -4.493  -0.054  0.00  0.00    -0.255 NA
ATOM     23  H   UNL     1       3.545  -5.275  -0.065  0.00  0.00    +0.140 HD
ATOM     24  H   UNL     1       2.280  -4.550   0.734  0.00  0.00    +0.140 HD
ENDBRANCH  20  22
ENDBRANCH   8  20
TORSDOF 6
