REMARK  Name = ZINC12785532
REMARK  7 active torsions:
REMARK  status: ('A' for Active; 'I' for Inactive)
REMARK    1  A    between atoms: C_4  and  N_28
REMARK    2  A    between atoms: C_5  and  N_7
REMARK    3  A    between atoms: C_8  and  C_10
REMARK    4  A    between atoms: C_10  and  C_11
REMARK    5  A    between atoms: C_11  and  S_12
REMARK    6  A    between atoms: S_12  and  C_13
REMARK    7  A    between atoms: C_13  and  C_14
REMARK                            x       y       z     vdW  Elec       q    Type
REMARK                         _______ _______ _______ _____ _____    ______ ____
ROOT
ATOM      1  C   UNL     1       1.425   2.336  -0.043  0.00  0.00    +0.107 C 
ENDROOT
BRANCH   1   3
ATOM      2  N   UNL     1       2.557   4.535  -0.010  0.00  0.00    -0.284 N 
ATOM      3  C   UNL     1       1.400   3.842  -0.014  0.00  0.00    +0.218 C 
ATOM      4  O   UNL     1       0.340   4.431   0.007  0.00  0.00    -0.275 OA
ATOM      5  H   UNL     1       3.403   4.066   0.056  0.00  0.00    +0.155 HD
BRANCH   2  10
ATOM      6  C   UNL     1       1.437   7.955  -0.778  0.00  0.00    +0.002 A 
ATOM      7  C   UNL     1       2.494   8.698  -0.284  0.00  0.00    +0.002 A 
ATOM      8  C   UNL     1       3.574   8.067   0.301  0.00  0.00    +0.025 A 
ATOM      9  C   UNL     1       3.601   6.683   0.396  0.00  0.00    +0.051 A 
ATOM     10  C   UNL     1       2.536   5.934  -0.102  0.00  0.00    +0.055 A 
ATOM     11  C   UNL     1       1.458   6.575  -0.693  0.00  0.00    +0.025 A 
BRANCH   9  12
ATOM     12  N   UNL     1       4.694   6.041   0.988  0.00  0.00    -0.328 N 
ATOM     13  C   UNL     1       4.680   6.217   2.457  0.00  0.00    +0.105 C 
ATOM     14  C   UNL     1       5.965   5.784   3.109  0.00  0.00    +0.019 C 
ATOM     15  C   UNL     1       6.882   7.017   3.250  0.00  0.00    +0.002 C 
ATOM     16  C   UNL     1       7.541   7.360   1.994  0.00  0.00    +0.002 C 
ATOM     17  C   UNL     1       6.530   7.714   0.884  0.00  0.00    +0.019 C 
ATOM     18  C   UNL     1       5.961   6.436   0.331  0.00  0.00    +0.105 C 
ENDBRANCH   9  12
ENDBRANCH   2  10
ENDBRANCH   1   3
BRANCH   1  19
ATOM     19  C   UNL     1      -0.009   1.802  -0.041  0.00  0.00    +0.079 C 
BRANCH  19  20
ATOM     20  S   UNL     1       0.020  -0.011  -0.076  0.00  0.00    -0.153 S 
BRANCH  20  21
ATOM     21  C   UNL     1      -1.732  -0.479  -0.070  0.00  0.00    +0.143 C 
BRANCH  21  22
ATOM     22  C   UNL     1      -1.852  -1.981  -0.098  0.00  0.00    +0.121 A 
ATOM     23  N   UNL     1      -3.084  -2.551  -0.098  0.00  0.00    -0.310 N 
ATOM     24  H   UNL     1      -3.870  -1.984  -0.080  0.00  0.00    +0.170 HD
ATOM     25  C   UNL     1      -3.236  -3.889  -0.122  0.00  0.00    +0.260 A 
ATOM     26  O   UNL     1      -4.348  -4.387  -0.122  0.00  0.00    -0.267 OA
ATOM     27  C   UNL     1      -2.066  -4.715  -0.149  0.00  0.00    +0.075 A 
ATOM     28  C   UNL     1      -1.994  -6.184  -0.177  0.00  0.00    -0.023 A 
ATOM     29  C   UNL     1      -0.766  -6.731  -0.200  0.00  0.00    -0.004 A 
ATOM     30  S   UNL     1       0.353  -5.350  -0.183  0.00  0.00    -0.073 S 
ATOM     31  C   UNL     1      -0.839  -4.038  -0.147  0.00  0.00    +0.116 A 
ATOM     32  N   UNL     1      -0.768  -2.709  -0.126  0.00  0.00    -0.226 NA
ATOM     33  C   UNL     1      -0.816  -8.235  -0.233  0.00  0.00    +0.043 C 
ATOM     34  C   UNL     1      -2.262  -8.566  -0.662  0.00  0.00    +0.010 C 
ATOM     35  C   UNL     1      -3.025  -7.315  -0.183  0.00  0.00    +0.037 C 
ENDBRANCH  21  22
ENDBRANCH  20  21
ENDBRANCH  19  20
ENDBRANCH   1  19
TORSDOF 7
