REMARK  Name = ZINC38743334
REMARK  14 active torsions:
REMARK  status: ('A' for Active; 'I' for Inactive)
REMARK    1  A    between atoms: C_1  and  C_2
REMARK    2  A    between atoms: C_2  and  O_3
REMARK    3  A    between atoms: O_3  and  C_4
REMARK    4  A    between atoms: C_6  and  C_16
REMARK    5  A    between atoms: C_8  and  O_13
REMARK    6  A    between atoms: C_9  and  O_10
REMARK    7  A    between atoms: O_10  and  C_11
REMARK    8  A    between atoms: C_11  and  C_12
REMARK    9  A    between atoms: O_13  and  C_14
REMARK   10  A    between atoms: C_14  and  C_15
REMARK   11  A    between atoms: C_19  and  C_26
REMARK   12  A    between atoms: C_29  and  C_32
REMARK   13  A    between atoms: C_35  and  O_38
REMARK   14  A    between atoms: O_38  and  C_39
REMARK                            x       y       z     vdW  Elec       q    Type
REMARK                         _______ _______ _______ _____ _____    ______ ____
ROOT
ATOM      1  C   UNL     1      -0.205  -4.957  -0.513  0.00  0.00    +0.125 C 
ATOM      2  N   UNL     1      -0.841  -4.637  -1.603  0.00  0.00    -0.173 NA
ATOM      3  N   UNL     1      -1.411  -5.572  -2.440  0.00  0.00    -0.206 N 
ATOM      4  C   UNL     1      -2.438  -5.784  -3.486  0.00  0.00    +0.206 C 
ATOM      5  N   UNL     1      -3.021  -7.117  -3.203  0.00  0.00    -0.231 NA
ATOM      6  N   UNL     1      -2.251  -7.683  -2.082  0.00  0.00    -0.224 NA
ATOM      7  C   UNL     1      -0.959  -6.976  -2.178  0.00  0.00    +0.240 C 
ATOM      8  S   UNL     1      -0.186  -6.744  -0.535  0.00  0.00    -0.063 S 
ATOM      9  H   UNL     1      -2.970  -7.714  -4.015  0.00  0.00    +0.143 HD
ATOM     10  H   UNL     1      -2.703  -7.492  -1.200  0.00  0.00    +0.144 HD
ENDROOT
BRANCH   1  13
ATOM     11  C   UNL     1       0.802  -1.825   1.306  0.00  0.00    +0.166 A 
ATOM     12  C   UNL     1       0.261  -2.670   0.353  0.00  0.00    +0.060 A 
ATOM     13  C   UNL     1       0.373  -4.053   0.503  0.00  0.00    +0.016 A 
ATOM     14  C   UNL     1       1.032  -4.580   1.615  0.00  0.00    +0.060 A 
ATOM     15  C   UNL     1       1.571  -3.732   2.565  0.00  0.00    +0.166 A 
ATOM     16  C   UNL     1       1.463  -2.353   2.410  0.00  0.00    +0.204 A 
BRANCH  11  17
ATOM     17  O   UNL     1       0.693  -0.477   1.160  0.00  0.00    -0.488 OA
BRANCH  17  19
ATOM     18  C   UNL     1      -0.019   1.526   0.010  0.00  0.00    +0.048 C 
ATOM     19  C   UNL     1       0.002  -0.004   0.002  0.00  0.00    +0.226 C 
ENDBRANCH  17  19
ENDBRANCH  11  17
BRANCH  16  20
ATOM     20  O   UNL     1       1.999  -1.521   3.343  0.00  0.00    -0.485 OA
BRANCH  20  21
ATOM     21  C   UNL     1       1.158  -1.143   4.435  0.00  0.00    +0.226 C 
ATOM     22  C   UNL     1       1.928  -0.212   5.373  0.00  0.00    +0.048 C 
ENDBRANCH  20  21
ENDBRANCH  16  20
BRANCH  15  23
ATOM     23  O   UNL     1       2.213  -4.245   3.648  0.00  0.00    -0.488 OA
BRANCH  23  24
ATOM     24  C   UNL     1       2.292  -5.669   3.741  0.00  0.00    +0.226 C 
ATOM     25  C   UNL     1       3.043  -6.056   5.017  0.00  0.00    +0.048 C 
ENDBRANCH  23  24
ENDBRANCH  15  23
ENDBRANCH   1  13
BRANCH   4  26
ATOM     26  C   UNL     1      -3.517  -4.702  -3.395  0.00  0.00    +0.190 C 
ATOM     27  C   UNL     1      -4.609  -4.948  -4.420  0.00  0.00    +0.034 C 
ATOM     28  C   UNL     1      -4.567  -3.854  -5.206  0.00  0.00    +0.091 C 
ATOM     29  N   UNL     1      -3.598  -3.002  -4.780  0.00  0.00    -0.154 NA
ATOM     30  N   UNL     1      -2.973  -3.392  -3.786  0.00  0.00    -0.176 NA
BRANCH  28  31
ATOM     31  C   UNL     1      -5.452  -3.614  -6.372  0.00  0.00    +0.002 A 
ATOM     32  C   UNL     1      -6.420  -4.555  -6.719  0.00  0.00    +0.013 A 
ATOM     33  C   UNL     1      -7.242  -4.329  -7.803  0.00  0.00    +0.046 A 
ATOM     34  C   UNL     1      -7.107  -3.165  -8.548  0.00  0.00    +0.120 A 
ATOM     35  C   UNL     1      -6.143  -2.226  -8.204  0.00  0.00    +0.046 A 
ATOM     36  C   UNL     1      -5.322  -2.444  -7.118  0.00  0.00    +0.013 A 
BRANCH  34  37
ATOM     37  O   UNL     1      -7.918  -2.945  -9.616  0.00  0.00    -0.495 OA
ATOM     38  C   UNL     1      -7.723  -1.728 -10.338  0.00  0.00    +0.277 C 
ENDBRANCH  34  37
ENDBRANCH  28  31
ENDBRANCH   4  26
TORSDOF 10
