REMARK  Name = ZINC20191343
REMARK  14 active torsions:
REMARK  status: ('A' for Active; 'I' for Inactive)
REMARK    1  A    between atoms: C_1  and  C_2
REMARK    2  A    between atoms: C_2  and  C_3
REMARK    3  A    between atoms: C_4  and  C_31
REMARK    4  A    between atoms: C_6  and  N_11
REMARK    5  A    between atoms: C_7  and  C_8
REMARK    6  A    between atoms: C_12  and  C_14
REMARK    7  A    between atoms: C_14  and  C_15
REMARK    8  A    between atoms: C_15  and  C_16
REMARK    9  A    between atoms: C_16  and  C_17
REMARK   10  A    between atoms: N_19  and  C_20
REMARK   11  A    between atoms: C_21  and  C_28
REMARK   12  A    between atoms: C_22  and  C_26
REMARK   13  A    between atoms: C_23  and  C_25
REMARK   14  A    between atoms: C_26  and  C_27
REMARK                            x       y       z     vdW  Elec       q    Type
REMARK                         _______ _______ _______ _____ _____    ______ ____
ROOT
ATOM      1  C   UNL     1      -0.729   1.579   1.267  0.00  0.00    +0.018 C 
ENDROOT
BRANCH   1   2
ATOM      2  C   UNL     1      -0.013   1.086   0.008  0.00  0.00    +0.096 C 
BRANCH   2   4
ATOM      3  N   UNL     1      -0.288   1.272  -2.443  0.00  0.00    -0.279 N 
ATOM      4  C   UNL     1      -0.742   1.585  -1.213  0.00  0.00    +0.218 C 
ATOM      5  O   UNL     1      -1.736   2.268  -1.088  0.00  0.00    -0.275 OA
ATOM      6  H   UNL     1       0.614   0.653  -2.556  0.00  0.00    +0.155 HD
BRANCH   3  10
ATOM      7  C   UNL     1      -1.529   2.119  -5.878  0.00  0.00    -0.024 A 
ATOM      8  C   UNL     1      -2.568   2.833  -5.410  0.00  0.00    -0.008 A 
ATOM      9  S   UNL     1      -2.389   2.705  -3.642  0.00  0.00    -0.078 S 
ATOM     10  C   UNL     1      -0.959   1.732  -3.566  0.00  0.00    +0.084 A 
ATOM     11  C   UNL     1      -0.650   1.518  -4.904  0.00  0.00    +0.068 A 
ATOM     12  C   UNL     1      -3.630   3.562  -6.191  0.00  0.00    +0.052 C 
BRANCH  11  13
ATOM     13  C   UNL     1       0.513   0.720  -5.307  0.00  0.00    +0.244 C 
ATOM     14  O   UNL     1       0.399  -0.481  -5.473  0.00  0.00    -0.270 OA
ATOM     15  N   UNL     1       1.707   1.315  -5.493  0.00  0.00    -0.325 N 
ATOM     16  H   UNL     1       2.579   0.717  -5.795  0.00  0.00    +0.145 HD
ATOM     17  H   UNL     1       1.810   2.400  -5.343  0.00  0.00    +0.145 HD
ENDBRANCH  11  13
BRANCH   7  19
ATOM     18  C   UNL     1      -2.028   0.711  -7.857  0.00  0.00    +0.009 C 
ATOM     19  C   UNL     1      -1.292   1.956  -7.358  0.00  0.00    +0.033 C 
ENDBRANCH   7  19
ENDBRANCH   3  10
ENDBRANCH   2   4
ENDBRANCH   1   2
BRANCH   1  20
ATOM     20  C   UNL     1       0.011   1.072   2.506  0.00  0.00    +0.096 C 
BRANCH  20  21
ATOM     21  C   UNL     1      -0.694   1.558   3.746  0.00  0.00    +0.218 C 
ATOM     22  O   UNL     1      -1.691   2.243   3.648  0.00  0.00    -0.275 OA
ATOM     23  N   UNL     1      -0.218   1.232   4.964  0.00  0.00    -0.279 N 
ATOM     24  H   UNL     1       0.686   0.612   5.053  0.00  0.00    +0.155 HD
BRANCH  23  25
ATOM     25  C   UNL     1      -0.867   1.680   6.105  0.00  0.00    +0.084 A 
ATOM     26  C   UNL     1      -0.532   1.451   7.434  0.00  0.00    +0.068 A 
ATOM     27  C   UNL     1      -1.391   2.043   8.431  0.00  0.00    -0.024 A 
ATOM     28  C   UNL     1      -2.439   2.763   7.990  0.00  0.00    -0.008 A 
ATOM     29  S   UNL     1      -2.287   2.664   6.219  0.00  0.00    -0.078 S 
ATOM     30  C   UNL     1      -3.486   3.483   8.800  0.00  0.00    +0.052 C 
BRANCH  26  31
ATOM     31  C   UNL     1       0.637   0.648   7.806  0.00  0.00    +0.244 C 
ATOM     32  O   UNL     1       1.719   1.183   7.959  0.00  0.00    -0.270 OA
ATOM     33  N   UNL     1       0.513  -0.683   7.978  0.00  0.00    -0.325 N 
ATOM     34  H   UNL     1       1.389  -1.286   8.256  0.00  0.00    +0.145 HD
ATOM     35  H   UNL     1      -0.466  -1.167   7.839  0.00  0.00    +0.145 HD
ENDBRANCH  26  31
BRANCH  27  36
ATOM     36  C   UNL     1      -1.127   1.863   9.904  0.00  0.00    +0.033 C 
ATOM     37  C   UNL     1      -0.220   2.990  10.401  0.00  0.00    +0.009 C 
ENDBRANCH  27  36
ENDBRANCH  23  25
ENDBRANCH  20  21
ENDBRANCH   1  20
TORSDOF 10
