REMARK  Name = ZINC10037675
REMARK  6 active torsions:
REMARK  status: ('A' for Active; 'I' for Inactive)
REMARK    1  A    between atoms: C_3  and  C_6
REMARK    2  A    between atoms: C_9  and  C_29
REMARK    3  A    between atoms: C_12  and  C_14
REMARK    4  A    between atoms: C_14  and  N_15
REMARK    5  A    between atoms: N_15  and  C_16
REMARK    6  A    between atoms: C_21  and  N_22
REMARK                            x       y       z     vdW  Elec       q    Type
REMARK                         _______ _______ _______ _____ _____    ______ ____
ROOT
ATOM      1  C   UNL     1       0.002  -0.004   0.002  0.00  0.00    +0.173 C 
ATOM      2  C   UNL     1      -0.228  -0.557   1.422  0.00  0.00    +0.090 C 
ATOM      3  C   UNL     1      -1.504  -1.358   1.300  0.00  0.00    +0.075 C 
ATOM      4  N   UNL     1      -1.936  -1.297   0.085  0.00  0.00    -0.180 NA
ATOM      5  N   UNL     1      -1.137  -0.533  -0.764  0.00  0.00    -0.181 N 
ATOM      6  C   UNL     1      -1.371  -0.314  -2.073  0.00  0.00    +0.252 C 
ATOM      7  O   UNL     1      -0.605   0.370  -2.720  0.00  0.00    -0.272 OA
ENDROOT
BRANCH   1  10
ATOM      8  C   UNL     1       0.585   3.635   0.016  0.00  0.00    +0.041 A 
ATOM      9  C   UNL     1       1.062   2.304   0.004  0.00  0.00    +0.046 A 
ATOM     10  C   UNL     1      -0.018   1.503   0.010  0.00  0.00    +0.128 A 
ATOM     11  O   UNL     1      -1.118   2.273   0.019  0.00  0.00    -0.466 OA
ATOM     12  C   UNL     1      -0.759   3.567   0.029  0.00  0.00    +0.195 A 
ENDBRANCH   1  10
BRANCH   3  13
ATOM     13  C   UNL     1      -2.151  -2.093   2.392  0.00  0.00    +0.035 A 
ATOM     14  C   UNL     1      -3.314  -2.842   2.371  0.00  0.00    +0.017 A 
ATOM     15  C   UNL     1      -3.723  -3.447   3.537  0.00  0.00    +0.008 A 
ATOM     16  C   UNL     1      -2.985  -3.284   4.665  0.00  0.00    +0.046 A 
ATOM     17  S   UNL     1      -1.647  -2.247   4.098  0.00  0.00    -0.095 S 
ENDBRANCH   3  13
BRANCH   6  18
ATOM     18  C   UNL     1      -2.582  -0.920  -2.734  0.00  0.00    +0.199 C 
BRANCH  18  19
ATOM     19  N   UNL     1      -2.609  -0.537  -4.148  0.00  0.00    -0.334 N 
ATOM     20  H   UNL     1      -1.908   0.025  -4.512  0.00  0.00    +0.147 HD
BRANCH  19  21
ATOM     21  C   UNL     1      -3.648  -0.983  -4.974  0.00  0.00    +0.050 A 
ATOM     22  C   UNL     1      -4.652  -1.787  -4.456  0.00  0.00    +0.044 A 
ATOM     23  C   UNL     1      -5.678  -2.226  -5.274  0.00  0.00    +0.043 A 
ATOM     24  C   UNL     1      -5.705  -1.865  -6.609  0.00  0.00    +0.022 A 
ATOM     25  C   UNL     1      -4.708  -1.064  -7.133  0.00  0.00    +0.026 A 
ATOM     26  C   UNL     1      -3.679  -0.615  -6.319  0.00  0.00    +0.051 A 
ATOM     27 CL   UNL     1      -6.934  -3.233  -4.623  0.00  0.00    -0.083 Cl
BRANCH  26  28
ATOM     28  N   UNL     1      -2.671   0.202  -6.847  0.00  0.00    -0.324 N 
ATOM     29  C   UNL     1      -3.220   1.488  -7.303  0.00  0.00    +0.133 C 
ATOM     30  C   UNL     1      -2.079   2.370  -7.816  0.00  0.00    +0.178 C 
ATOM     31  O   UNL     1      -1.380   1.680  -8.855  0.00  0.00    -0.377 OA
ATOM     32  C   UNL     1      -0.832   0.425  -8.446  0.00  0.00    +0.178 C 
ATOM     33  C   UNL     1      -1.960  -0.478  -7.939  0.00  0.00    +0.133 C 
ENDBRANCH  26  28
ENDBRANCH  19  21
ENDBRANCH  18  19
ENDBRANCH   6  18
TORSDOF 6
