REMARK  Name = ZINC49239476
REMARK  8 active torsions:
REMARK  status: ('A' for Active; 'I' for Inactive)
REMARK    1  A    between atoms: C_1  and  C_2
REMARK    2  A    between atoms: C_2  and  C_4
REMARK    3  A    between atoms: C_2  and  O_22
REMARK    4  A    between atoms: C_7  and  S_10
REMARK    5  A    between atoms: S_10  and  N_13
REMARK    6  A    between atoms: C_16  and  C_19
REMARK    7  A    between atoms: C_19  and  C_20
REMARK    8  A    between atoms: C_19  and  C_21
REMARK                            x       y       z     vdW  Elec       q    Type
REMARK                         _______ _______ _______ _____ _____    ______ ____
ROOT
ATOM      1  S   UNL     1       2.920  -2.002   4.890  0.00  0.00    +0.101 S 
ATOM      2  O   UNL     1       4.295  -1.698   4.695  0.00  0.00    -0.146 OA
ATOM      3  O   UNL     1       2.190  -1.538   6.017  0.00  0.00    -0.146 OA
ENDROOT
BRANCH   1   4
ATOM      4  N   UNL     1       2.798  -3.654   4.894  0.00  0.00    -0.103 NA
ATOM      5  C   UNL     1       3.350  -4.349   5.857  0.00  0.00    +0.192 A 
ATOM      6  N   UNL     1       3.372  -5.714   6.047  0.00  0.00    -0.336 N 
ATOM      7  C   UNL     1       4.020  -6.209   7.141  0.00  0.00    +0.027 A 
ATOM      8  C   UNL     1       4.614  -5.380   8.000  0.00  0.00    +0.070 A 
ATOM      9  S   UNL     1       4.282  -3.784   7.272  0.00  0.00    -0.057 S 
ATOM     10  H   UNL     1       2.937  -6.310   5.417  0.00  0.00    +0.168 HD
BRANCH   7  11
ATOM     11  C   UNL     1       4.064  -7.696   7.379  0.00  0.00    +0.030 C 
ATOM     12  C   UNL     1       2.638  -8.233   7.519  0.00  0.00    +0.013 C 
ATOM     13  C   UNL     1       4.754  -8.382   6.198  0.00  0.00    +0.013 C 
ENDBRANCH   7  11
ENDBRANCH   1   4
BRANCH   1  17
ATOM     14  C   UNL     1       0.731  -0.503   1.223  0.00  0.00    -0.019 A 
ATOM     15  C   UNL     1       0.053  -0.656   2.418  0.00  0.00    +0.008 A 
ATOM     16  C   UNL     1       0.722  -1.114   3.538  0.00  0.00    +0.029 A 
ATOM     17  C   UNL     1       2.068  -1.420   3.463  0.00  0.00    +0.113 A 
ATOM     18  C   UNL     1       2.745  -1.267   2.267  0.00  0.00    +0.029 A 
ATOM     19  C   UNL     1       2.076  -0.813   1.146  0.00  0.00    +0.008 A 
BRANCH  14  21
ATOM     20  C   UNL     1      -0.019   1.526   0.010  0.00  0.00    +0.043 C 
ATOM     21  C   UNL     1       0.002  -0.004   0.002  0.00  0.00    +0.141 C 
BRANCH  21  22
ATOM     22  O   UNL     1      -1.339  -0.499   0.012  0.00  0.00    -0.387 OA
ATOM     23  H   UNL     1      -1.868  -0.216  -0.746  0.00  0.00    +0.210 HD
ENDBRANCH  21  22
ENDBRANCH  14  21
ENDBRANCH   1  17
TORSDOF 5
