REMARK  Name = ZINC39940506
REMARK  6 active torsions:
REMARK  status: ('A' for Active; 'I' for Inactive)
REMARK    1  A    between atoms: C_1  and  C_2
REMARK    2  A    between atoms: C_2  and  C_3
REMARK    3  A    between atoms: C_3  and  C_4
REMARK    4  A    between atoms: N_18  and  C_19
REMARK    5  A    between atoms: C_19  and  C_21
REMARK    6  A    between atoms: C_33  and  C_35
REMARK                            x       y       z     vdW  Elec       q    Type
REMARK                         _______ _______ _______ _____ _____    ______ ____
ROOT
ATOM      1  C   UNL     1       0.767  -1.989  -1.265  0.00  0.00    +0.117 C 
ATOM      2  N   UNL     1       0.219  -2.678  -0.296  0.00  0.00    -0.235 NA
ATOM      3  C   UNL     1       0.186  -4.049  -0.327  0.00  0.00    +0.072 A 
ATOM      4  C   UNL     1      -0.706  -4.738   0.499  0.00  0.00    +0.028 A 
ATOM      5  C   UNL     1      -0.740  -6.116   0.477  0.00  0.00    +0.002 A 
ATOM      6  C   UNL     1       0.105  -6.824  -0.358  0.00  0.00    +0.001 A 
ATOM      7  C   UNL     1       0.991  -6.151  -1.182  0.00  0.00    +0.009 A 
ATOM      8  C   UNL     1       1.031  -4.777  -1.171  0.00  0.00    +0.018 A 
ATOM      9  C   UNL     1       1.975  -4.019  -2.072  0.00  0.00    +0.214 C 
ATOM     10  N   UNL     1       1.340  -2.694  -2.284  0.00  0.00    -0.213 N 
ATOM     11  N   UNL     1       1.413  -2.441  -3.647  0.00  0.00    -0.235 N 
ATOM     12  C   UNL     1       1.688  -3.604  -4.303  0.00  0.00    +0.191 C 
ATOM     13  N   UNL     1       2.018  -4.609  -3.415  0.00  0.00    -0.294 N 
ATOM     14  N   UNL     1       1.657  -3.748  -5.620  0.00  0.00    -0.145 NA
ATOM     15  H   UNL     1       1.289  -1.575  -4.066  0.00  0.00    +0.173 HD
ATOM     16  H   UNL     1       2.226  -5.531  -3.631  0.00  0.00    +0.151 HD
ENDROOT
BRANCH  14  17
ATOM     17  C   UNL     1       2.052  -4.901  -6.176  0.00  0.00    +0.288 C 
ATOM     18  O   UNL     1       2.347  -5.849  -5.471  0.00  0.00    -0.266 OA
BRANCH  17  19
ATOM     19  C   UNL     1       2.129  -5.022  -7.650  0.00  0.00    +0.128 C 
ATOM     20  C   UNL     1       2.535  -6.227  -8.217  0.00  0.00    +0.039 C 
ATOM     21  C   UNL     1       2.782  -6.199  -9.586  0.00  0.00    -0.008 C 
ATOM     22  C   UNL     1       2.867  -7.152 -10.563  0.00  0.00    +0.004 A 
ATOM     23  C   UNL     1       2.990  -8.560 -10.505  0.00  0.00    +0.010 A 
ATOM     24  C   UNL     1       2.997  -9.227 -11.694  0.00  0.00    +0.001 A 
ATOM     25  C   UNL     1       2.891  -8.592 -12.933  0.00  0.00    +0.002 A 
ATOM     26  C   UNL     1       2.793  -7.242 -13.078  0.00  0.00    +0.026 A 
ATOM     27  C   UNL     1       2.799  -6.465 -11.885  0.00  0.00    +0.044 A 
ATOM     28  N   UNL     1       2.778  -5.165 -11.730  0.00  0.00    -0.372 N 
ATOM     29  C   UNL     1       2.960  -4.882 -10.324  0.00  0.00    +0.155 C 
ATOM     30  C   UNL     1       2.112  -3.844  -9.681  0.00  0.00    +0.043 C 
ATOM     31  N   UNL     1       1.798  -3.961  -8.425  0.00  0.00    -0.249 NA
ATOM     32  C   UNL     1       1.614  -2.667 -10.480  0.00  0.00    +0.063 C 
ATOM     33  H   UNL     1       2.661  -4.508 -12.434  0.00  0.00    +0.161 HD
ENDBRANCH  17  19
ENDBRANCH  14  17
BRANCH   1  34
ATOM     34  C   UNL     1       0.761  -0.482  -1.260  0.00  0.00    +0.073 C 
BRANCH  34  36
ATOM     35  C   UNL     1       0.047   1.550   0.006  0.00  0.00    +0.004 C 
ATOM     36  C   UNL     1       0.053   0.020   0.001  0.00  0.00    +0.004 C 
ENDBRANCH  34  36
ENDBRANCH   1  34
TORSDOF 4
