REMARK  Name = ZINC12513300
REMARK  9 active torsions:
REMARK  status: ('A' for Active; 'I' for Inactive)
REMARK    1  A    between atoms: C_1  and  C_2
REMARK    2  A    between atoms: C_5  and  N_9
REMARK    3  A    between atoms: C_7  and  C_8
REMARK    4  A    between atoms: C_10  and  C_30
REMARK    5  A    between atoms: C_13  and  S_14
REMARK    6  A    between atoms: S_14  and  C_15
REMARK    7  A    between atoms: C_15  and  C_16
REMARK    8  A    between atoms: N_18  and  C_19
REMARK    9  A    between atoms: C_24  and  N_25
REMARK                            x       y       z     vdW  Elec       q    Type
REMARK                         _______ _______ _______ _____ _____    ______ ____
ROOT
ATOM      1  N   UNL     1       2.316   4.345  -0.206  0.00  0.00    -0.270 N 
ATOM      2  C   UNL     1       1.233   3.548   0.096  0.00  0.00    +0.169 A 
ATOM      3  N   UNL     1       0.233   4.350   0.382  0.00  0.00    -0.128 NA
ATOM      4  N   UNL     1       0.608   5.575   0.276  0.00  0.00    -0.122 NA
ATOM      5  C   UNL     1       1.871   5.632  -0.084  0.00  0.00    +0.197 A 
ENDROOT
BRANCH   1  10
ATOM      6  C   UNL     1       7.530   2.642  -1.663  0.00  0.00    +0.044 C 
ATOM      7  C   UNL     1       6.146   3.093  -1.276  0.00  0.00    -0.047 A 
ATOM      8  C   UNL     1       5.073   2.817  -2.104  0.00  0.00    +0.005 A 
ATOM      9  C   UNL     1       3.803   3.231  -1.752  0.00  0.00    +0.026 A 
ATOM     10  C   UNL     1       3.604   3.924  -0.566  0.00  0.00    +0.051 A 
ATOM     11  C   UNL     1       4.684   4.204   0.261  0.00  0.00    +0.030 A 
ATOM     12  C   UNL     1       5.951   3.784  -0.094  0.00  0.00    -0.046 A 
ATOM     13  C   UNL     1       7.122   4.083   0.805  0.00  0.00    +0.044 C 
ENDBRANCH   1  10
BRANCH   2  14
ATOM     14  C   UNL     1       1.204   2.071   0.104  0.00  0.00    +0.022 A 
ATOM     15  C   UNL     1      -0.011   1.375   0.127  0.00  0.00    +0.031 A 
ATOM     16  C   UNL     1       0.009  -0.004   0.133  0.00  0.00    +0.111 A 
ATOM     17  N   UNL     1       1.151  -0.665   0.119  0.00  0.00    -0.263 NA
ATOM     18  C   UNL     1       2.318  -0.049   0.097  0.00  0.00    +0.111 A 
ATOM     19  C   UNL     1       2.391   1.328   0.090  0.00  0.00    +0.031 A 
ENDBRANCH   2  14
BRANCH   5  20
ATOM     20  S   UNL     1       2.817   7.095  -0.353  0.00  0.00    -0.076 S 
BRANCH  20  21
ATOM     21  C   UNL     1       1.562   8.350   0.004  0.00  0.00    +0.173 C 
BRANCH  21  22
ATOM     22  C   UNL     1       2.162   9.722  -0.166  0.00  0.00    +0.228 C 
ATOM     23  O   UNL     1       3.323   9.839  -0.496  0.00  0.00    -0.275 OA
ATOM     24  N   UNL     1       1.408  10.818   0.049  0.00  0.00    -0.283 N 
ATOM     25  H   UNL     1       0.460  10.726   0.234  0.00  0.00    +0.155 HD
BRANCH  24  26
ATOM     26  C   UNL     1       1.993  12.091   0.005  0.00  0.00    +0.055 A 
ATOM     27  C   UNL     1       3.348  12.242   0.258  0.00  0.00    +0.025 A 
ATOM     28  C   UNL     1       3.924  13.498   0.209  0.00  0.00    +0.002 A 
ATOM     29  C   UNL     1       3.151  14.607  -0.082  0.00  0.00    +0.002 A 
ATOM     30  C   UNL     1       1.799  14.466  -0.329  0.00  0.00    +0.025 A 
ATOM     31  C   UNL     1       1.213  13.209  -0.287  0.00  0.00    +0.051 A 
BRANCH  31  32
ATOM     32  N   UNL     1      -0.156  13.064  -0.537  0.00  0.00    -0.328 N 
ATOM     33  C   UNL     1      -0.751  14.345  -0.996  0.00  0.00    +0.105 C 
ATOM     34  C   UNL     1      -2.054  13.897  -1.704  0.00  0.00    +0.020 C 
ATOM     35  C   UNL     1      -1.633  12.583  -2.403  0.00  0.00    +0.020 C 
ATOM     36  C   UNL     1      -0.395  12.095  -1.628  0.00  0.00    +0.105 C 
ENDBRANCH  31  32
ENDBRANCH  24  26
ENDBRANCH  21  22
ENDBRANCH  20  21
ENDBRANCH   5  20
TORSDOF 7
