REMARK  Name = ZINC24841533
REMARK  4 active torsions:
REMARK  status: ('A' for Active; 'I' for Inactive)
REMARK    1  A    between atoms: C_6  and  C_7
REMARK    2  A    between atoms: C_10  and  C_12
REMARK    3  A    between atoms: C_12  and  N_13
REMARK    4  A    between atoms: C_14  and  C_16
REMARK                            x       y       z     vdW  Elec       q    Type
REMARK                         _______ _______ _______ _____ _____    ______ ____
ROOT
ATOM      1  N   UNL     1      -5.613   4.233   1.804  0.00  0.00    -0.308 N 
ATOM      2  C   UNL     1      -4.648   4.458   0.891  0.00  0.00    +0.217 C 
ATOM      3  O   UNL     1      -4.869   5.178  -0.060  0.00  0.00    -0.276 OA
ATOM      4  H   UNL     1      -5.413   3.581   2.667  0.00  0.00    +0.149 HD
ENDROOT
BRANCH   2   5
ATOM      5  C   UNL     1      -3.294   3.817   1.053  0.00  0.00    +0.078 C 
ATOM      6  C   UNL     1      -2.389   4.232  -0.111  0.00  0.00    +0.031 C 
ATOM      7  C   UNL     1      -1.036   3.530   0.026  0.00  0.00    +0.107 C 
ATOM      8  N   UNL     1      -1.236   2.075   0.019  0.00  0.00    -0.314 N 
ATOM      9  C   UNL     1      -2.063   1.647   1.155  0.00  0.00    +0.107 C 
ATOM     10  C   UNL     1      -3.446   2.293   1.052  0.00  0.00    +0.031 C 
ATOM     11  C   UNL     1      -0.017   1.405   0.010  0.00  0.00    +0.142 A 
ATOM     12  C   UNL     1       0.002  -0.004   0.002  0.00  0.00    +0.049 A 
ATOM     13  C   UNL     1       1.187  -0.669  -0.013  0.00  0.00    +0.053 A 
ATOM     14  C   UNL     1       2.387   0.067  -0.021  0.00  0.00    +0.178 A 
ATOM     15  N   UNL     1       3.667  -0.268  -0.034  0.00  0.00    -0.128 NA
ATOM     16  N   UNL     1       4.386   0.800  -0.035  0.00  0.00    -0.136 NA
ATOM     17  C   UNL     1       3.617   1.861  -0.022  0.00  0.00    +0.249 A 
ATOM     18  N   UNL     1       2.335   1.439  -0.012  0.00  0.00    -0.198 N 
ATOM     19  N   UNL     1       1.101   2.092   0.003  0.00  0.00    -0.149 NA
ENDBRANCH   2   5
BRANCH   1  20
ATOM     20  C   UNL     1      -6.930   4.857   1.647  0.00  0.00    +0.178 C 
BRANCH  20  24
ATOM     21  C   UNL     1      -9.268   3.318   3.995  0.00  0.00    +0.135 A 
ATOM     22  C   UNL     1      -8.871   4.381   4.743  0.00  0.00    +0.050 A 
ATOM     23  C   UNL     1      -7.937   5.097   3.967  0.00  0.00    +0.047 A 
ATOM     24  C   UNL     1      -7.819   4.447   2.793  0.00  0.00    +0.123 A 
ATOM     25  O   UNL     1      -8.622   3.371   2.814  0.00  0.00    -0.458 OA
BRANCH  21  31
ATOM     26  C   UNL     1     -10.835   2.342   5.667  0.00  0.00    +0.012 A 
ATOM     27  C   UNL     1     -11.745   1.376   6.044  0.00  0.00    +0.016 A 
ATOM     28  C   UNL     1     -12.059   0.343   5.178  0.00  0.00    +0.018 A 
ATOM     29  C   UNL     1     -11.468   0.275   3.927  0.00  0.00    +0.016 A 
ATOM     30  C   UNL     1     -10.561   1.238   3.538  0.00  0.00    +0.012 A 
ATOM     31  C   UNL     1     -10.240   2.283   4.406  0.00  0.00    +0.017 A 
ATOM     32 BR   UNL     1     -13.301  -0.983   5.705  0.00  0.00    -0.050 Br
ENDBRANCH  21  31
ENDBRANCH  20  24
ENDBRANCH   1  20
TORSDOF 4
