REMARK  Name = ZINC39597402
REMARK  6 active torsions:
REMARK  status: ('A' for Active; 'I' for Inactive)
REMARK    1  A    between atoms: C_1  and  O_2
REMARK    2  A    between atoms: O_2  and  C_3
REMARK    3  A    between atoms: C_8  and  C_9
REMARK    4  A    between atoms: C_9  and  N_10
REMARK    5  A    between atoms: C_11  and  C_13
REMARK    6  A    between atoms: C_24  and  C_26
REMARK                            x       y       z     vdW  Elec       q    Type
REMARK                         _______ _______ _______ _____ _____    ______ ____
ROOT
ATOM      1  C   UNL     1      -3.648  -3.701   0.426  0.00  0.00    +0.100 C 
ATOM      2  C   UNL     1      -4.304  -2.322   0.657  0.00  0.00    +0.121 C 
ATOM      3  N   UNL     1      -5.590  -2.626   1.327  0.00  0.00    -0.297 N 
ATOM      4  C   UNL     1      -5.266  -3.728   2.264  0.00  0.00    +0.115 C 
ATOM      5  C   UNL     1      -4.282  -4.622   1.483  0.00  0.00    -0.004 C 
ATOM      6  C   UNL     1      -5.030  -5.766   0.806  0.00  0.00    -0.010 C 
ATOM      7  C   UNL     1      -5.603  -6.699   1.877  0.00  0.00    -0.082 C 
ATOM      8  N   UNL     1      -4.511  -7.224   2.706  0.00  0.00    +0.379 N 
ATOM      9  C   UNL     1      -3.855  -6.125   3.425  0.00  0.00    -0.082 C 
ATOM     10  C   UNL     1      -3.209  -5.168   2.420  0.00  0.00    -0.010 C 
ATOM     11  C   UNL     1      -6.785  -2.034   1.130  0.00  0.00    +0.260 C 
ATOM     12  O   UNL     1      -7.754  -2.398   1.762  0.00  0.00    -0.271 OA
ATOM     13  H   UNL     1      -4.884  -7.884   3.372  0.00  0.00    -0.086 HD
ATOM     14  H   UNL     1      -3.837  -7.688   2.117  0.00  0.00    -0.086 HD
ENDROOT
BRANCH  11  15
ATOM     15  C   UNL     1      -6.917  -0.920   0.124  0.00  0.00    +0.296 C 
ATOM     16  C   UNL     1      -6.099   0.294   0.587  0.00  0.00    +0.283 C 
ATOM     17  O   UNL     1      -6.258   1.337  -0.382  0.00  0.00    -0.484 OA
ATOM     18  C   UNL     1      -7.526   1.586  -0.811  0.00  0.00    +0.162 A 
ATOM     19  C   UNL     1      -7.805   2.784  -1.451  0.00  0.00    +0.049 A 
ATOM     20  C   UNL     1      -9.086   3.050  -1.895  0.00  0.00    +0.004 A 
ATOM     21  C   UNL     1     -10.093   2.123  -1.702  0.00  0.00    +0.004 A 
ATOM     22  C   UNL     1      -9.822   0.927  -1.064  0.00  0.00    +0.049 A 
ATOM     23  C   UNL     1      -8.538   0.654  -0.615  0.00  0.00    +0.163 A 
ATOM     24  O   UNL     1      -8.289  -0.524   0.019  0.00  0.00    -0.473 OA
ENDBRANCH  11  15
BRANCH   1  26
ATOM     25  N   UNL     1      -1.336  -4.453  -0.032  0.00  0.00    -0.311 N 
ATOM     26  C   UNL     1      -2.158  -3.615   0.631  0.00  0.00    +0.218 C 
ATOM     27  O   UNL     1      -1.697  -2.791   1.393  0.00  0.00    -0.275 OA
ATOM     28  H   UNL     1      -1.704  -5.112  -0.641  0.00  0.00    +0.149 HD
BRANCH  25  29
ATOM     29  C   UNL     1       0.113  -4.369   0.168  0.00  0.00    +0.143 C 
BRANCH  29  35
ATOM     30  C   UNL     1       1.006  -5.171  -2.034  0.00  0.00    +0.125 A 
ATOM     31  C   UNL     1       1.642  -6.127  -2.813  0.00  0.00    +0.046 A 
ATOM     32  C   UNL     1       2.062  -7.313  -2.243  0.00  0.00    +0.004 A 
ATOM     33  C   UNL     1       1.849  -7.548  -0.897  0.00  0.00    +0.001 A 
ATOM     34  C   UNL     1       1.215  -6.598  -0.118  0.00  0.00    +0.009 A 
ATOM     35  C   UNL     1       0.798  -5.407  -0.683  0.00  0.00    +0.011 A 
BRANCH  30  37
ATOM     36  C   UNL     1       0.839  -3.829  -3.989  0.00  0.00    +0.277 C 
ATOM     37  O   UNL     1       0.592  -4.003  -2.592  0.00  0.00    -0.495 OA
ENDBRANCH  30  37
ENDBRANCH  29  35
ENDBRANCH  25  29
ENDBRANCH   1  26
TORSDOF 5
