REMARK  Name = ZINC04754971
REMARK  3 active torsions:
REMARK  status: ('A' for Active; 'I' for Inactive)
REMARK    1  A    between atoms: C_3  and  C_6
REMARK    2  A    between atoms: N_7  and  N_8
REMARK    3  A    between atoms: C_11  and  C_14
REMARK                            x       y       z     vdW  Elec       q    Type
REMARK                         _______ _______ _______ _____ _____    ______ ____
ROOT
ATOM      1  N   UNL     1       5.587  -0.559  -0.055  0.00  0.00    -0.215 N 
ATOM      2  C   UNL     1       6.250  -1.774  -0.068  0.00  0.00    +0.178 A 
ATOM      3  N   UNL     1       7.549  -2.018  -0.076  0.00  0.00    -0.224 NA
ATOM      4  C   UNL     1       8.014  -3.258  -0.088  0.00  0.00    +0.080 A 
ATOM      5  C   UNL     1       7.136  -4.305  -0.092  0.00  0.00    +0.077 A 
ATOM      6  S   UNL     1       5.577  -3.430  -0.069  0.00  0.00    -0.059 S 
ATOM      7  H   UNL     1       6.093   0.269  -0.056  0.00  0.00    +0.176 HD
ENDROOT
BRANCH   4   8
ATOM      8  C   UNL     1       9.476  -3.508  -0.099  0.00  0.00    +0.001 A 
ATOM      9  C   UNL     1       9.962  -4.815  -0.117  0.00  0.00    +0.011 A 
ATOM     10  C   UNL     1      11.323  -5.042  -0.127  0.00  0.00    +0.016 A 
ATOM     11  C   UNL     1      12.206  -3.975  -0.118  0.00  0.00    +0.018 A 
ATOM     12  C   UNL     1      11.728  -2.676  -0.099  0.00  0.00    +0.016 A 
ATOM     13  C   UNL     1      10.369  -2.438  -0.095  0.00  0.00    +0.011 A 
ATOM     14 BR   UNL     1      14.069  -4.294  -0.130  0.00  0.00    -0.050 Br
ENDBRANCH   4   8
BRANCH   1  16
ATOM     15  C   UNL     1       3.564   0.617  -0.029  0.00  0.00    +0.176 C 
ATOM     16  N   UNL     1       4.187  -0.525  -0.041  0.00  0.00    -0.185 NA
BRANCH  15  19
ATOM     17  C   UNL     1      -0.016   1.344   0.009  0.00  0.00    +0.042 A 
ATOM     18  C   UNL     1       1.323   1.776  -0.001  0.00  0.00    +0.051 A 
ATOM     19  C   UNL     1       2.098   0.653  -0.015  0.00  0.00    +0.147 A 
ATOM     20  O   UNL     1       1.280  -0.419  -0.012  0.00  0.00    -0.462 OA
ATOM     21  C   UNL     1       0.002  -0.004   0.002  0.00  0.00    +0.196 A 
ENDBRANCH  15  19
ENDBRANCH   1  16
TORSDOF 3
