REMARK  Name = ZINC22401614
REMARK  8 active torsions:
REMARK  status: ('A' for Active; 'I' for Inactive)
REMARK    1  A    between atoms: C_1  and  C_2
REMARK    2  A    between atoms: C_2  and  C_38
REMARK    3  A    between atoms: C_4  and  N_13
REMARK    4  A    between atoms: C_14  and  C_16
REMARK    5  A    between atoms: C_16  and  N_17
REMARK    6  A    between atoms: N_17  and  C_18
REMARK    7  A    between atoms: N_17  and  S_25
REMARK    8  A    between atoms: S_25  and  C_28
REMARK                            x       y       z     vdW  Elec       q    Type
REMARK                         _______ _______ _______ _____ _____    ______ ____
ROOT
ATOM      1  N   UNL     1       4.269  -1.193  -1.636  0.00  0.00    -0.194 N 
ENDROOT
BRANCH   1   2
ATOM      2  C   UNL     1       5.090  -0.342  -2.379  0.00  0.00    +0.055 A 
ATOM      3  C   UNL     1       5.712  -0.806  -3.532  0.00  0.00    +0.025 A 
ATOM      4  C   UNL     1       6.523   0.037  -4.266  0.00  0.00    +0.005 A 
ATOM      5  C   UNL     1       6.717   1.343  -3.856  0.00  0.00    +0.038 A 
ATOM      6  C   UNL     1       6.099   1.810  -2.708  0.00  0.00    +0.125 A 
ATOM      7  C   UNL     1       5.282   0.972  -1.971  0.00  0.00    +0.063 A 
ATOM      8  F   UNL     1       6.290   3.087  -2.310  0.00  0.00    -0.205 F 
ENDBRANCH   1   2
BRANCH   1   9
ATOM      9  S   UNL     1       4.647  -1.540  -0.061  0.00  0.00    +0.075 S 
ATOM     10  O   UNL     1       6.053  -1.377   0.065  0.00  0.00    -0.150 OA
ATOM     11  O   UNL     1       3.990  -2.760   0.254  0.00  0.00    -0.150 OA
BRANCH   9  12
ATOM     12  C   UNL     1       3.904  -0.295   0.940  0.00  0.00    +0.112 A 
ATOM     13  C   UNL     1       2.585  -0.423   1.334  0.00  0.00    +0.032 A 
ATOM     14  C   UNL     1       1.998   0.553   2.118  0.00  0.00    +0.051 A 
ATOM     15  C   UNL     1       2.731   1.663   2.510  0.00  0.00    +0.162 A 
ATOM     16  C   UNL     1       4.058   1.790   2.116  0.00  0.00    +0.164 A 
ATOM     17  C   UNL     1       4.640   0.807   1.329  0.00  0.00    +0.078 A 
ATOM     18  O   UNL     1       4.798   2.866   2.498  0.00  0.00    -0.485 OA
ATOM     19  C   UNL     1       4.076   4.009   2.971  0.00  0.00    +0.270 C 
ATOM     20  C   UNL     1       3.008   3.526   3.962  0.00  0.00    +0.270 C 
ATOM     21  O   UNL     1       2.137   2.620   3.275  0.00  0.00    -0.485 OA
ENDBRANCH   9  12
ENDBRANCH   1   9
BRANCH   1  22
ATOM     22  C   UNL     1       3.074  -1.778  -2.249  0.00  0.00    +0.227 C 
BRANCH  22  24
ATOM     23  N   UNL     1       0.717  -1.135  -2.635  0.00  0.00    -0.307 N 
ATOM     24  C   UNL     1       1.926  -0.808  -2.136  0.00  0.00    +0.233 C 
ATOM     25  O   UNL     1       2.090   0.266  -1.597  0.00  0.00    -0.274 OA
ATOM     26  H   UNL     1       0.568  -2.109  -3.124  0.00  0.00    +0.149 HD
BRANCH  23  30
ATOM     27  C   UNL     1      -4.208  -0.674  -2.679  0.00  0.00    +0.055 C 
ATOM     28  C   UNL     1      -2.861   0.050  -2.746  0.00  0.00    +0.107 C 
ATOM     29  C   UNL     1      -1.722  -0.962  -2.566  0.00  0.00    +0.074 C 
ATOM     30  C   UNL     1      -0.399  -0.192  -2.525  0.00  0.00    +0.110 C 
ATOM     31  C   UNL     1      -0.345   0.785  -3.672  0.00  0.00    +0.015 A 
ATOM     32  C   UNL     1       0.882   1.307  -4.046  0.00  0.00    +0.009 A 
ATOM     33  C   UNL     1       0.968   2.207  -5.090  0.00  0.00    +0.001 A 
ATOM     34  C   UNL     1      -0.174   2.591  -5.768  0.00  0.00    +0.004 A 
ATOM     35  C   UNL     1      -1.399   2.073  -5.401  0.00  0.00    +0.046 A 
ATOM     36  C   UNL     1      -1.490   1.165  -4.351  0.00  0.00    +0.126 A 
ATOM     37  O   UNL     1      -2.713   0.673  -4.022  0.00  0.00    -0.486 OA
ATOM     38  C   UNL     1      -2.790   1.108  -1.644  0.00  0.00    +0.055 C 
ENDBRANCH  23  30
ENDBRANCH  22  24
ENDBRANCH   1  22
TORSDOF 6
