REMARK  Name = ZINC40820211
REMARK  4 active torsions:
REMARK  status: ('A' for Active; 'I' for Inactive)
REMARK    1  A    between atoms: C_1  and  O_2
REMARK    2  A    between atoms: O_2  and  C_3
REMARK    3  A    between atoms: C_9  and  C_13
REMARK    4  A    between atoms: C_19  and  C_21
REMARK                            x       y       z     vdW  Elec       q    Type
REMARK                         _______ _______ _______ _____ _____    ______ ____
ROOT
ATOM      1  C   UNL     1       0.606  -0.608  -1.056  0.00  0.00    +0.121 A 
ATOM      2  C   UNL     1       1.174   0.167  -2.065  0.00  0.00    +0.047 A 
ATOM      3  C   UNL     1       1.790  -0.428  -3.143  0.00  0.00    +0.030 A 
ATOM      4  C   UNL     1       1.849  -1.814  -3.232  0.00  0.00    +0.047 A 
ATOM      5  C   UNL     1       1.276  -2.599  -2.216  0.00  0.00    +0.008 A 
ATOM      6  C   UNL     1       0.659  -1.985  -1.124  0.00  0.00    +0.056 A 
ATOM      7  C   UNL     1       1.504  -3.994  -2.603  0.00  0.00    -0.002 A 
ATOM      8  C   UNL     1       2.167  -3.974  -3.770  0.00  0.00    +0.089 A 
ATOM      9  N   UNL     1       2.383  -2.681  -4.163  0.00  0.00    -0.360 N 
ATOM     10  H   UNL     1       2.841  -2.414  -4.975  0.00  0.00    +0.165 HD
ENDROOT
BRANCH   7  11
ATOM     11  C   UNL     1       1.077  -5.218  -1.836  0.00  0.00    +0.109 C 
ATOM     12  C   UNL     1       2.074  -5.495  -0.691  0.00  0.00    +0.029 C 
ATOM     13  C   UNL     1       2.175  -7.043  -0.684  0.00  0.00    +0.021 C 
ATOM     14  C   UNL     1       2.063  -7.368  -2.195  0.00  0.00    +0.109 C 
ATOM     15  N   UNL     1       1.087  -6.392  -2.721  0.00  0.00    -0.288 N 
ATOM     16  C   UNL     1       0.333  -6.549  -3.827  0.00  0.00    +0.282 C 
ATOM     17  O   UNL     1      -0.440  -5.672  -4.165  0.00  0.00    -0.267 OA
BRANCH  16  18
ATOM     18  C   UNL     1       0.444  -7.776  -4.622  0.00  0.00    +0.189 A 
ATOM     19  C   UNL     1      -0.254  -8.059  -5.761  0.00  0.00    +0.054 A 
ATOM     20  C   UNL     1       0.164  -9.330  -6.185  0.00  0.00    +0.042 A 
ATOM     21  C   UNL     1       1.088  -9.761  -5.298  0.00  0.00    +0.196 A 
ATOM     22  O   UNL     1       1.257  -8.820  -4.360  0.00  0.00    -0.458 OA
ENDBRANCH  16  18
ENDBRANCH   7  11
BRANCH   1  24
ATOM     23  C   UNL     1      -0.017   1.425   0.010  0.00  0.00    +0.277 C 
ATOM     24  O   UNL     1       0.002  -0.004   0.002  0.00  0.00    -0.495 OA
ENDBRANCH   1  24
TORSDOF 3
