REMARK  Name = ZINC39669557
REMARK  6 active torsions:
REMARK  status: ('A' for Active; 'I' for Inactive)
REMARK    1  A    between atoms: C_1  and  C_2
REMARK    2  A    between atoms: C_7  and  C_8
REMARK    3  A    between atoms: C_8  and  C_9
REMARK    4  A    between atoms: C_13  and  C_22
REMARK    5  A    between atoms: N_24  and  C_25
REMARK    6  A    between atoms: C_25  and  C_26
REMARK                            x       y       z     vdW  Elec       q    Type
REMARK                         _______ _______ _______ _____ _____    ______ ____
ROOT
ATOM      1  C   UNL     1      -1.105   0.283   2.989  0.00  0.00    +0.220 C 
ATOM      2  O   UNL     1      -1.960  -0.121   2.230  0.00  0.00    -0.275 OA
ATOM      3  N   UNL     1      -1.454   0.983   4.086  0.00  0.00    -0.300 N 
ATOM      4  C   UNL     1      -0.559   1.559   5.118  0.00  0.00    +0.121 C 
ATOM      5  C   UNL     1      -1.189   2.928   5.460  0.00  0.00    +0.100 C 
ATOM      6  C   UNL     1      -2.672   2.784   5.076  0.00  0.00    -0.004 C 
ATOM      7  C   UNL     1      -2.818   1.357   4.530  0.00  0.00    +0.115 C 
ATOM      8  C   UNL     1      -3.556   2.975   6.305  0.00  0.00    -0.010 C 
ATOM      9  C   UNL     1      -5.027   2.885   5.888  0.00  0.00    -0.082 C 
ATOM     10  N   UNL     1      -5.317   3.918   4.886  0.00  0.00    +0.379 N 
ATOM     11  C   UNL     1      -4.530   3.674   3.672  0.00  0.00    -0.082 C 
ATOM     12  C   UNL     1      -3.038   3.797   3.995  0.00  0.00    -0.010 C 
ATOM     13  H   UNL     1      -6.300   3.897   4.658  0.00  0.00    -0.086 HD
ATOM     14  H   UNL     1      -5.082   4.825   5.262  0.00  0.00    -0.086 HD
ENDROOT
BRANCH   5  15
ATOM     15  C   UNL     1      -0.539   4.022   4.652  0.00  0.00    +0.218 C 
ATOM     16  O   UNL     1      -0.094   3.779   3.551  0.00  0.00    -0.275 OA
ATOM     17  N   UNL     1      -0.453   5.269   5.154  0.00  0.00    -0.315 N 
ATOM     18  H   UNL     1      -0.809   5.464   6.035  0.00  0.00    +0.149 HD
BRANCH  17  19
ATOM     19  C   UNL     1       0.179   6.333   4.369  0.00  0.00    +0.109 C 
BRANCH  19  20
ATOM     20  C   UNL     1       0.146   7.641   5.162  0.00  0.00    +0.024 C 
ATOM     21  C   UNL     1       0.914   8.721   4.397  0.00  0.00    +0.008 C 
ATOM     22  C   UNL     1       0.910  10.021   5.205  0.00  0.00    +0.019 C 
ATOM     23  C   UNL     1      -0.534  10.496   5.394  0.00  0.00    +0.108 C 
ATOM     24  N   UNL     1      -1.315   9.407   5.998  0.00  0.00    -0.299 N 
ATOM     25  C   UNL     1      -1.306   8.088   5.351  0.00  0.00    +0.113 C 
ATOM     26  C   UNL     1      -2.043   9.620   7.155  0.00  0.00    +0.218 A 
ATOM     27  N   UNL     1      -2.733   8.617   7.679  0.00  0.00    -0.223 NA
ATOM     28  C   UNL     1      -3.439   8.787   8.785  0.00  0.00    +0.116 A 
ATOM     29  C   UNL     1      -3.453  10.032   9.394  0.00  0.00    +0.039 A 
ATOM     30  C   UNL     1      -2.720  11.059   8.819  0.00  0.00    +0.116 A 
ATOM     31  N   UNL     1      -2.031  10.821   7.716  0.00  0.00    -0.223 NA
ENDBRANCH  19  20
ENDBRANCH  17  19
ENDBRANCH   5  15
BRANCH   1  32
ATOM     32  C   UNL     1       0.348   0.001   2.705  0.00  0.00    +0.131 C 
BRANCH  32  39
ATOM     33  C   UNL     1       0.400   1.362   0.157  0.00  0.00    +0.044 C 
ATOM     34  C   UNL     1       0.491  -0.141   0.210  0.00  0.00    -0.047 A 
ATOM     35  C   UNL     1       0.605  -0.868  -0.960  0.00  0.00    +0.003 A 
ATOM     36  C   UNL     1       0.688  -2.247  -0.912  0.00  0.00    +0.000 A 
ATOM     37  C   UNL     1       0.658  -2.899   0.307  0.00  0.00    +0.000 A 
ATOM     38  C   UNL     1       0.545  -2.172   1.477  0.00  0.00    +0.004 A 
ATOM     39  C   UNL     1       0.466  -0.792   1.429  0.00  0.00    -0.036 A 
ENDBRANCH  32  39
ENDBRANCH   1  32
TORSDOF 5
