REMARK  Name = ZINC38592126
REMARK  5 active torsions:
REMARK  status: ('A' for Active; 'I' for Inactive)
REMARK    1  A    between atoms: C_4  and  C_7
REMARK    2  A    between atoms: C_7  and  C_8
REMARK    3  A    between atoms: C_11  and  C_35
REMARK    4  A    between atoms: C_14  and  C_16
REMARK    5  A    between atoms: C_18  and  C_29
REMARK                            x       y       z     vdW  Elec       q    Type
REMARK                         _______ _______ _______ _____ _____    ______ ____
ROOT
ATOM      1  C   UNL     1       4.190  -1.101   1.532  0.00  0.00    +0.240 C 
ATOM      2  O   UNL     1       3.526  -0.764   2.490  0.00  0.00    -0.273 OA
ATOM      3  N   UNL     1       5.361  -1.743   1.716  0.00  0.00    -0.185 N 
ATOM      4  C   UNL     1       5.948  -2.101   3.018  0.00  0.00    +0.137 C 
ATOM      5  C   UNL     1       7.264  -2.804   2.631  0.00  0.00    +0.083 C 
ATOM      6  C   UNL     1       7.266  -2.760   1.120  0.00  0.00    +0.055 C 
ATOM      7  N   UNL     1       6.214  -2.182   0.706  0.00  0.00    -0.185 NA
ENDROOT
BRANCH   6   8
ATOM      8  C   UNL     1       8.351  -3.321   0.237  0.00  0.00    +0.152 C 
ATOM      9  C   UNL     1       7.861  -3.264  -1.197  0.00  0.00    -0.014 C 
ATOM     10  C   UNL     1       8.639  -2.540  -2.105  0.00  0.00    +0.002 A 
ATOM     11  C   UNL     1       8.256  -2.435  -3.458  0.00  0.00    +0.030 A 
ATOM     12  C   UNL     1       9.032  -1.725  -4.322  0.00  0.00    +0.042 A 
ATOM     13  C   UNL     1      10.201  -1.097  -3.896  0.00  0.00    +0.022 A 
ATOM     14  C   UNL     1      10.622  -1.162  -2.602  0.00  0.00    +0.025 A 
ATOM     15  C   UNL     1       9.869  -1.879  -1.655  0.00  0.00    +0.041 A 
ATOM     16  N   UNL     1      10.284  -1.943  -0.385  0.00  0.00    -0.284 N 
ATOM     17  C   UNL     1       9.636  -2.593   0.561  0.00  0.00    +0.230 C 
ATOM     18  O   UNL     1      10.073  -2.606   1.696  0.00  0.00    -0.274 OA
ATOM     19 CL   UNL     1       8.557  -1.598  -5.987  0.00  0.00    -0.084 Cl
ATOM     20  H   UNL     1      11.105  -1.485  -0.147  0.00  0.00    +0.155 HD
BRANCH   9  21
ATOM     21  C   UNL     1       6.667  -3.915  -1.598  0.00  0.00    -0.020 A 
ATOM     22  C   UNL     1       5.589  -3.168  -2.100  0.00  0.00    +0.008 A 
ATOM     23  C   UNL     1       4.434  -3.810  -2.488  0.00  0.00    +0.001 A 
ATOM     24  C   UNL     1       4.333  -5.187  -2.383  0.00  0.00    +0.000 A 
ATOM     25  C   UNL     1       5.391  -5.934  -1.889  0.00  0.00    +0.001 A 
ATOM     26  C   UNL     1       6.557  -5.311  -1.502  0.00  0.00    +0.008 A 
ENDBRANCH   9  21
ENDBRANCH   6   8
BRANCH   4  27
ATOM     27  C   UNL     1       6.221  -0.865   3.836  0.00  0.00    -0.025 A 
ATOM     28  C   UNL     1       6.690   0.281   3.221  0.00  0.00    +0.005 A 
ATOM     29  C   UNL     1       6.941   1.415   3.971  0.00  0.00    +0.000 A 
ATOM     30  C   UNL     1       6.723   1.403   5.336  0.00  0.00    +0.000 A 
ATOM     31  C   UNL     1       6.253   0.257   5.951  0.00  0.00    +0.000 A 
ATOM     32  C   UNL     1       5.998  -0.875   5.200  0.00  0.00    +0.005 A 
ENDBRANCH   4  27
BRANCH   1  33
ATOM     33  C   UNL     1       3.705  -0.804   0.137  0.00  0.00    +0.132 C 
BRANCH  33  37
ATOM     34  C   UNL     1      -0.045   1.231   0.334  0.00  0.00    +0.000 A 
ATOM     35  C   UNL     1       1.133   1.953   0.329  0.00  0.00    +0.000 A 
ATOM     36  C   UNL     1       2.347   1.295   0.265  0.00  0.00    +0.004 A 
ATOM     37  C   UNL     1       2.382  -0.086   0.207  0.00  0.00    -0.039 A 
ATOM     38  C   UNL     1       1.203  -0.808   0.213  0.00  0.00    +0.004 A 
ATOM     39  C   UNL     1      -0.011  -0.149   0.275  0.00  0.00    +0.000 A 
ENDBRANCH  33  37
ENDBRANCH   1  33
TORSDOF 5
