REMARK  Name = ZINC20257624
REMARK  7 active torsions:
REMARK  status: ('A' for Active; 'I' for Inactive)
REMARK    1  A    between atoms: C_1  and  C_2
REMARK    2  A    between atoms: C_5  and  N_21
REMARK    3  A    between atoms: C_6  and  C_20
REMARK    4  A    between atoms: C_7  and  N_8
REMARK    5  A    between atoms: N_8  and  S_9
REMARK    6  A    between atoms: S_9  and  N_12
REMARK    7  A    between atoms: C_17  and  C_19
REMARK                            x       y       z     vdW  Elec       q    Type
REMARK                         _______ _______ _______ _____ _____    ______ ____
ROOT
ATOM      1  N   UNL     1      -2.484   1.642   0.580  0.00  0.00    -0.206 N 
ATOM      2  H   UNL     1      -1.820   1.140  -0.139  0.00  0.00    +0.175 HD
ENDROOT
BRANCH   1   9
ATOM      3  C   UNL     1      -3.514   0.132   2.758  0.00  0.00    +0.046 C 
ATOM      4  C   UNL     1      -2.501   1.229   2.958  0.00  0.00    -0.028 A 
ATOM      5  C   UNL     1      -2.050   1.529   4.230  0.00  0.00    +0.007 A 
ATOM      6  C   UNL     1      -1.122   2.535   4.418  0.00  0.00    +0.023 A 
ATOM      7  C   UNL     1      -0.638   3.248   3.328  0.00  0.00    +0.029 A 
ATOM      8  C   UNL     1      -1.088   2.950   2.049  0.00  0.00    -0.007 A 
ATOM      9  C   UNL     1      -2.024   1.942   1.865  0.00  0.00    +0.057 A 
ATOM     10  C   UNL     1      -0.565   3.721   0.865  0.00  0.00    +0.047 C 
BRANCH   7  11
ATOM     11  N   UNL     1       0.301   4.265   3.518  0.00  0.00    -0.358 N 
ATOM     12  H   UNL     1       0.683   4.830   2.655  0.00  0.00    +0.142 HD
ATOM     13  H   UNL     1       0.657   4.501   4.532  0.00  0.00    +0.142 HD
ENDBRANCH   7  11
ENDBRANCH   1   9
BRANCH   1  14
ATOM     14  S   UNL     1      -4.030   2.042   0.140  0.00  0.00    +0.112 S 
ATOM     15  O   UNL     1      -4.203   1.585  -1.194  0.00  0.00    -0.138 OA
ATOM     16  O   UNL     1      -4.875   1.626   1.203  0.00  0.00    -0.138 OA
BRANCH  14  17
ATOM     17  N   UNL     1      -4.112   3.695   0.089  0.00  0.00    -0.161 NA
ATOM     18  C   UNL     1      -4.797   4.444   1.152  0.00  0.00    +0.111 C 
ATOM     19  C   UNL     1      -5.839   5.366   0.512  0.00  0.00    +0.017 C 
ATOM     20  C   UNL     1      -5.160   6.246  -0.539  0.00  0.00    +0.003 C 
ATOM     21  C   UNL     1      -4.558   5.363  -1.635  0.00  0.00    +0.020 C 
ATOM     22  C   UNL     1      -3.496   4.441  -1.017  0.00  0.00    +0.078 C 
ATOM     23  C   UNL     1      -2.986   3.462  -2.075  0.00  0.00    +0.026 C 
ENDBRANCH  14  17
ENDBRANCH   1  14
TORSDOF 4
