REMARK  Name = ZINC40385713
REMARK  10 active torsions:
REMARK  status: ('A' for Active; 'I' for Inactive)
REMARK    1  A    between atoms: C_1  and  C_2
REMARK    2  A    between atoms: C_2  and  C_3
REMARK    3  A    between atoms: C_3  and  C_4
REMARK    4  A    between atoms: C_4  and  C_5
REMARK    5  A    between atoms: C_8  and  C_11
REMARK    6  A    between atoms: C_20  and  C_36
REMARK    7  A    between atoms: C_21  and  C_35
REMARK    8  A    between atoms: C_23  and  C_25
REMARK    9  A    between atoms: C_28  and  C_31
REMARK   10  A    between atoms: C_36  and  C_37
REMARK                            x       y       z     vdW  Elec       q    Type
REMARK                         _______ _______ _______ _____ _____    ______ ____
ROOT
ATOM      1  C   UNL     1       3.517  -3.763  -4.920  0.00  0.00    +0.247 C 
ATOM      2  O   UNL     1       2.777  -3.781  -5.884  0.00  0.00    -0.270 OA
ATOM      3  N   UNL     1       4.848  -3.897  -5.090  0.00  0.00    -0.295 N 
ATOM      4  C   UNL     1       5.742  -4.007  -3.929  0.00  0.00    +0.127 C 
ATOM      5  C   UNL     1       6.571  -5.290  -4.069  0.00  0.00    +0.125 C 
ATOM      6  N   UNL     1       7.152  -5.330  -5.418  0.00  0.00    -0.312 N 
ATOM      7  C   UNL     1       6.258  -5.220  -6.578  0.00  0.00    +0.125 C 
ATOM      8  C   UNL     1       5.429  -3.942  -6.439  0.00  0.00    +0.127 C 
ATOM      9  C   UNL     1       8.520  -5.467  -5.592  0.00  0.00    +0.128 A 
ATOM     10  C   UNL     1       9.113  -6.733  -5.578  0.00  0.00    +0.011 A 
ATOM     11  C   UNL     1      10.480  -6.822  -5.756  0.00  0.00    +0.021 A 
ATOM     12  N   UNL     1      11.184  -5.715  -5.934  0.00  0.00    -0.343 N 
ATOM     13  C   UNL     1      10.596  -4.527  -5.943  0.00  0.00    +0.140 A 
ATOM     14  N   UNL     1       9.286  -4.399  -5.781  0.00  0.00    -0.214 NA
ATOM     15  C   UNL     1      11.163  -8.166  -5.747  0.00  0.00    +0.064 C 
ATOM     16  H   UNL     1      12.144  -5.774  -6.059  0.00  0.00    +0.167 HD
ENDROOT
BRANCH   1  20
ATOM     17  C   UNL     1       1.913  -3.282  -1.017  0.00  0.00    -0.047 A 
ATOM     18  C   UNL     1       1.194  -3.973  -1.976  0.00  0.00    +0.004 A 
ATOM     19  C   UNL     1       1.710  -4.133  -3.246  0.00  0.00    +0.013 A 
ATOM     20  C   UNL     1       2.959  -3.596  -3.562  0.00  0.00    +0.037 A 
ATOM     21  C   UNL     1       3.678  -2.899  -2.589  0.00  0.00    +0.013 A 
ATOM     22  C   UNL     1       3.149  -2.742  -1.325  0.00  0.00    +0.004 A 
BRANCH  17  23
ATOM     23  C   UNL     1       1.343  -3.111   0.368  0.00  0.00    +0.035 C 
BRANCH  23  24
ATOM     24  C   UNL     1       0.512  -1.828   0.423  0.00  0.00    +0.004 C 
BRANCH  24  26
ATOM     25  C   UNL     1      -0.897  -0.372   1.884  0.00  0.00    +0.004 C 
ATOM     26  C   UNL     1      -0.066  -1.655   1.829  0.00  0.00    -0.003 C 
ENDBRANCH  24  26
ENDBRANCH  23  24
ENDBRANCH  17  23
ENDBRANCH   1  20
BRANCH  13  27
ATOM     27  C   UNL     1      11.422  -3.312  -6.144  0.00  0.00    +0.017 A 
ATOM     28  C   UNL     1      12.799  -3.426  -6.327  0.00  0.00    +0.012 A 
ATOM     29  C   UNL     1      13.563  -2.292  -6.515  0.00  0.00    +0.013 A 
ATOM     30  C   UNL     1      12.965  -1.045  -6.521  0.00  0.00    +0.055 A 
ATOM     31  C   UNL     1      11.599  -0.926  -6.340  0.00  0.00    +0.013 A 
ATOM     32  C   UNL     1      10.824  -2.054  -6.157  0.00  0.00    +0.012 A 
BRANCH  30  33
ATOM     33  C   UNL     1      13.805   0.190  -6.725  0.00  0.00    +0.417 C 
ATOM     34  F   UNL     1      13.884   0.479  -8.092  0.00  0.00    -0.166 F 
ATOM     35  F   UNL     1      13.219   1.269  -6.054  0.00  0.00    -0.166 F 
ATOM     36  F   UNL     1      15.090  -0.032  -6.220  0.00  0.00    -0.166 F 
ENDBRANCH  30  33
ENDBRANCH  13  27
BRANCH  10  37
ATOM     37  C   UNL     1       8.280  -7.972  -5.372  0.00  0.00    +0.037 C 
ATOM     38  C   UNL     1       7.864  -8.538  -6.731  0.00  0.00    +0.009 C 
ENDBRANCH  10  37
TORSDOF 7
