REMARK  Name = ZINC13283451
REMARK  6 active torsions:
REMARK  status: ('A' for Active; 'I' for Inactive)
REMARK    1  A    between atoms: C_6  and  C_7
REMARK    2  A    between atoms: C_8  and  C_15
REMARK    3  A    between atoms: C_12  and  N_13
REMARK    4  A    between atoms: C_15  and  O_16
REMARK    5  A    between atoms: O_16  and  C_17
REMARK    6  A    between atoms: C_20  and  N_24
REMARK                            x       y       z     vdW  Elec       q    Type
REMARK                         _______ _______ _______ _____ _____    ______ ____
ROOT
ATOM      1  C   UNL     1      -2.434   0.933   0.019  0.00  0.00    +0.046 A 
ATOM      2  C   UNL     1      -3.622   1.662   0.029  0.00  0.00    +0.093 A 
ATOM      3  N   UNL     1      -3.566   2.984   0.036  0.00  0.00    -0.215 NA
ATOM      4  C   UNL     1      -2.403   3.619   0.034  0.00  0.00    +0.215 A 
ATOM      5  N   UNL     1      -1.249   2.969   0.030  0.00  0.00    -0.199 NA
ATOM      6  C   UNL     1      -1.218   1.641   0.017  0.00  0.00    +0.129 A 
ATOM      7  N   UNL     1      -2.394   5.003   0.043  0.00  0.00    -0.327 N 
ATOM      8  H   UNL     1      -3.231   5.493   0.050  0.00  0.00    +0.145 HD
ATOM      9  H   UNL     1      -1.551   5.482   0.041  0.00  0.00    +0.145 HD
ENDROOT
BRANCH   1  15
ATOM     10  C   UNL     1      -2.979  -1.237  -1.081  0.00  0.00    +0.010 A 
ATOM     11  C   UNL     1      -2.989  -2.617  -1.086  0.00  0.00    +0.022 A 
ATOM     12  C   UNL     1      -2.485  -3.319  -0.005  0.00  0.00    +0.059 A 
ATOM     13  C   UNL     1      -1.963  -2.641   1.085  0.00  0.00    +0.060 A 
ATOM     14  C   UNL     1      -1.945  -1.261   1.097  0.00  0.00    +0.030 A 
ATOM     15  C   UNL     1      -2.451  -0.550   0.011  0.00  0.00    -0.011 A 
ATOM     16 CL   UNL     1      -1.333  -3.529   2.437  0.00  0.00    -0.082 Cl
ATOM     17 CL   UNL     1      -2.506  -5.055  -0.015  0.00  0.00    -0.082 Cl
ENDBRANCH   1  15
BRANCH   6  18
ATOM     18  N   UNL     1      -0.011   0.966   0.007  0.00  0.00    -0.343 N 
ATOM     19  H   UNL     1       0.002  -0.004   0.002  0.00  0.00    +0.144 HD
ATOM     20  H   UNL     1       0.822   1.462   0.002  0.00  0.00    +0.144 HD
ENDBRANCH   6  18
BRANCH   2  21
ATOM     21  C   UNL     1      -4.952   0.953   0.032  0.00  0.00    +0.285 C 
BRANCH  21  22
ATOM     22  O   UNL     1      -5.366   0.722   1.380  0.00  0.00    -0.486 OA
BRANCH  22  23
ATOM     23  C   UNL     1      -6.554   0.088   1.561  0.00  0.00    +0.123 A 
ATOM     24  C   UNL     1      -7.309  -0.299   0.463  0.00  0.00    +0.048 A 
ATOM     25  C   UNL     1      -8.515  -0.947   0.648  0.00  0.00    +0.038 A 
ATOM     26  C   UNL     1      -8.974  -1.203   1.927  0.00  0.00    +0.145 A 
ATOM     27  C   UNL     1      -8.226  -0.814   3.024  0.00  0.00    +0.075 A 
ATOM     28  C   UNL     1      -7.016  -0.169   2.843  0.00  0.00    +0.068 A 
ATOM     29 CL   UNL     1      -8.806  -1.135   4.628  0.00  0.00    -0.081 Cl
BRANCH  26  30
ATOM     30  N   UNL     1     -10.269  -1.893   2.123  0.00  0.00    +0.058 N 
ATOM     31  O   UNL     1     -10.928  -2.236   1.158  0.00  0.00    -0.126 OA
ATOM     32  O   UNL     1     -10.675  -2.118   3.249  0.00  0.00    -0.126 OA
ENDBRANCH  26  30
ENDBRANCH  22  23
ENDBRANCH  21  22
ENDBRANCH   2  21
TORSDOF 6
