REMARK  Name = ZINC24166012
REMARK  9 active torsions:
REMARK  status: ('A' for Active; 'I' for Inactive)
REMARK    1  A    between atoms: C_1  and  C_2
REMARK    2  A    between atoms: N_7  and  C_8
REMARK    3  A    between atoms: C_8  and  C_10
REMARK    4  A    between atoms: C_10  and  S_11
REMARK    5  A    between atoms: S_11  and  C_12
REMARK    6  A    between atoms: C_15  and  C_27
REMARK    7  A    between atoms: N_16  and  C_17
REMARK    8  A    between atoms: C_22  and  C_23
REMARK    9  A    between atoms: C_27  and  N_28
REMARK                            x       y       z     vdW  Elec       q    Type
REMARK                         _______ _______ _______ _____ _____    ______ ____
ROOT
ATOM      1  C   UNL     1       0.191  -8.070   4.143  0.00  0.00    +0.197 A 
ATOM      2  N   UNL     1       0.410  -7.815   5.412  0.00  0.00    -0.122 NA
ATOM      3  N   UNL     1       0.360  -8.904   6.093  0.00  0.00    -0.135 NA
ATOM      4  C   UNL     1       0.108  -9.912   5.308  0.00  0.00    +0.122 A 
ATOM      5  N   UNL     1      -0.015  -9.418   4.036  0.00  0.00    -0.275 N 
ENDROOT
BRANCH   5   6
ATOM      6  C   UNL     1      -0.292 -10.143   2.868  0.00  0.00    +0.062 A 
ATOM      7  C   UNL     1      -1.607 -10.335   2.464  0.00  0.00    +0.027 A 
ATOM      8  C   UNL     1      -1.876 -11.049   1.313  0.00  0.00    +0.002 A 
ATOM      9  C   UNL     1      -0.839 -11.573   0.564  0.00  0.00    +0.001 A 
ATOM     10  C   UNL     1       0.471 -11.384   0.964  0.00  0.00    +0.014 A 
ATOM     11  C   UNL     1       0.747 -10.665   2.111  0.00  0.00    +0.079 A 
BRANCH  11  12
ATOM     12  C   UNL     1       2.175 -10.454   2.543  0.00  0.00    +0.419 C 
ATOM     13  F   UNL     1       3.035 -11.072   1.629  0.00  0.00    -0.166 F 
ATOM     14  F   UNL     1       2.451  -9.083   2.588  0.00  0.00    -0.166 F 
ATOM     15  F   UNL     1       2.365 -11.010   3.812  0.00  0.00    -0.166 F 
ENDBRANCH  11  12
ENDBRANCH   5   6
BRANCH   1  16
ATOM     16  S   UNL     1       0.160  -6.897   2.829  0.00  0.00    -0.076 S 
BRANCH  16  17
ATOM     17  C   UNL     1       0.505  -5.314   3.644  0.00  0.00    +0.175 C 
BRANCH  17  18
ATOM     18  C   UNL     1       0.508  -4.210   2.618  0.00  0.00    +0.249 C 
ATOM     19  O   UNL     1       0.297  -4.467   1.448  0.00  0.00    -0.273 OA
BRANCH  18  26
ATOM     20  C   UNL     1       1.146   1.662   1.342  0.00  0.00    +0.064 C 
ATOM     21  C   UNL     1       0.915   0.180   1.197  0.00  0.00    +0.021 A 
ATOM     22  C   UNL     1       0.659  -0.371   0.005  0.00  0.00    +0.069 A 
ATOM     23  S   UNL     1       0.479  -2.094   0.426  0.00  0.00    -0.060 S 
ATOM     24  C   UNL     1       0.743  -1.981   2.082  0.00  0.00    +0.163 A 
ATOM     25  N   UNL     1       0.964  -0.652   2.271  0.00  0.00    -0.340 N 
ATOM     26  N   UNL     1       0.741  -2.959   2.991  0.00  0.00    -0.156 NA
ATOM     27  H   UNL     1       1.150  -0.304   3.157  0.00  0.00    +0.167 HD
ENDBRANCH  18  26
ENDBRANCH  17  18
ENDBRANCH  16  17
ENDBRANCH   1  16
BRANCH   4  28
ATOM     28  C   UNL     1      -0.029 -11.355   5.722  0.00  0.00    -0.001 C 
BRANCH  28  29
ATOM     29  N   UNL     1      -1.448 -11.671   5.932  0.00  0.00    +0.384 N 
ATOM     30  C   UNL     1      -1.956 -10.901   7.074  0.00  0.00    -0.078 C 
ATOM     31  C   UNL     1      -3.453 -11.165   7.247  0.00  0.00    -0.019 C 
ATOM     32  C   UNL     1      -3.676 -12.659   7.497  0.00  0.00    -0.004 C 
ATOM     33  C   UNL     1      -3.077 -13.457   6.336  0.00  0.00    -0.019 C 
ATOM     34  C   UNL     1      -1.593 -13.108   6.197  0.00  0.00    -0.078 C 
ATOM     35  H   UNL     1      -1.972 -11.428   5.105  0.00  0.00    -0.081 HD
ENDBRANCH  28  29
ENDBRANCH   4  28
TORSDOF 8
