REMARK  Name = ZINC14663860
REMARK  15 active torsions:
REMARK  status: ('A' for Active; 'I' for Inactive)
REMARK    1  A    between atoms: C_1  and  C_2
REMARK    2  A    between atoms: C_2  and  C_3
REMARK    3  A    between atoms: C_2  and  C_4
REMARK    4  A    between atoms: C_4  and  O_5
REMARK    5  A    between atoms: O_5  and  C_6
REMARK    6  A    between atoms: C_6  and  C_8
REMARK    7  A    between atoms: C_8  and  C_9
REMARK    8  A    between atoms: N_16  and  C_17
REMARK    9  A    between atoms: C_17  and  N_19
REMARK   10  A    between atoms: C_20  and  C_22
REMARK   11  A    between atoms: C_27  and  O_28
REMARK   12  A    between atoms: O_28  and  C_29
REMARK   13  A    between atoms: C_29  and  C_30
REMARK   14  A    between atoms: C_30  and  O_31
REMARK   15  A    between atoms: O_31  and  C_32
REMARK                            x       y       z     vdW  Elec       q    Type
REMARK                         _______ _______ _______ _____ _____    ______ ____
ROOT
ATOM      1  N   UNL     1      -2.262   1.601  -0.106  0.00  0.00    -0.264 N 
ATOM      2  C   UNL     1      -3.399   2.318  -0.009  0.00  0.00    +0.253 C 
ATOM      3  O   UNL     1      -3.351   3.499   0.274  0.00  0.00    -0.270 OA
ATOM      4  H   UNL     1      -2.300   0.659  -0.332  0.00  0.00    +0.157 HD
ENDROOT
BRANCH   2   5
ATOM      5  C   UNL     1      -4.702   1.669  -0.247  0.00  0.00    +0.079 A 
ATOM      6  C   UNL     1      -4.762   0.312  -0.573  0.00  0.00    +0.017 A 
ATOM      7  C   UNL     1      -5.982  -0.288  -0.794  0.00  0.00    +0.001 A 
ATOM      8  C   UNL     1      -7.152   0.448  -0.694  0.00  0.00    +0.004 A 
ATOM      9  C   UNL     1      -7.107   1.790  -0.372  0.00  0.00    +0.046 A 
ATOM     10  C   UNL     1      -5.888   2.409  -0.141  0.00  0.00    +0.133 A 
BRANCH  10  11
ATOM     11  O   UNL     1      -5.842   3.727   0.180  0.00  0.00    -0.488 OA
BRANCH  11  12
ATOM     12  C   UNL     1      -7.091   4.416   0.269  0.00  0.00    +0.270 C 
BRANCH  12  13
ATOM     13  C   UNL     1      -6.840   5.879   0.638  0.00  0.00    +0.270 C 
BRANCH  13  14
ATOM     14  O   UNL     1      -6.128   6.523  -0.420  0.00  0.00    -0.489 OA
BRANCH  14  15
ATOM     15  C   UNL     1      -5.824   7.836  -0.250  0.00  0.00    +0.121 A 
ATOM     16  C   UNL     1      -6.208   8.494   0.910  0.00  0.00    +0.045 A 
ATOM     17  C   UNL     1      -5.892   9.828   1.083  0.00  0.00    +0.004 A 
ATOM     18  C   UNL     1      -5.204  10.510   0.097  0.00  0.00    +0.000 A 
ATOM     19  C   UNL     1      -4.825   9.858  -1.062  0.00  0.00    +0.004 A 
ATOM     20  C   UNL     1      -5.133   8.523  -1.238  0.00  0.00    +0.045 A 
ENDBRANCH  14  15
ENDBRANCH  13  14
ENDBRANCH  12  13
ENDBRANCH  11  12
ENDBRANCH  10  11
ENDBRANCH   2   5
BRANCH   1  21
ATOM     21  C   UNL     1      -1.071   2.194   0.111  0.00  0.00    +0.140 C 
ATOM     22  S   UNL     1      -0.993   3.881   0.392  0.00  0.00    -0.018 S 
BRANCH  21  29
ATOM     23  C   UNL     1       0.022   0.001  -0.086  0.00  0.00    +0.171 C 
ATOM     24  C   UNL     1       0.969  -0.643   0.890  0.00  0.00    +0.234 C 
ATOM     25  O   UNL     1       0.908  -1.844   1.048  0.00  0.00    -0.274 OA
ATOM     26  N   UNL     1       1.871   0.046   1.590  0.00  0.00    -0.312 N 
ATOM     27  C   UNL     1       1.999   1.497   1.573  0.00  0.00    +0.123 C 
ATOM     28  C   UNL     1       1.379   2.081   0.303  0.00  0.00    +0.126 C 
ATOM     29  N   UNL     1       0.059   1.459   0.108  0.00  0.00    -0.299 N 
ATOM     30  H   UNL     1       2.486  -0.455   2.150  0.00  0.00    +0.149 HD
BRANCH  23  31
ATOM     31  C   UNL     1       0.451  -0.337  -1.515  0.00  0.00    +0.152 C 
BRANCH  31  32
ATOM     32  C   UNL     1      -0.566   0.205  -2.486  0.00  0.00    +0.309 C 
ATOM     33  O   UNL     1      -1.472   0.898  -2.087  0.00  0.00    -0.251 OA
BRANCH  32  34
ATOM     34  O   UNL     1      -0.466  -0.082  -3.793  0.00  0.00    -0.464 OA
BRANCH  34  35
ATOM     35  C   UNL     1      -1.481   0.474  -4.670  0.00  0.00    +0.235 C 
BRANCH  35  37
ATOM     36  C   UNL     1      -2.338   0.522  -7.016  0.00  0.00    +0.010 C 
ATOM     37  C   UNL     1      -1.202   0.041  -6.111  0.00  0.00    +0.020 C 
ATOM     38  C   UNL     1       0.119   0.653  -6.581  0.00  0.00    +0.010 C 
ENDBRANCH  35  37
ENDBRANCH  34  35
ENDBRANCH  32  34
ENDBRANCH  31  32
ENDBRANCH  23  31
ENDBRANCH  21  29
ENDBRANCH   1  21
TORSDOF 13
