REMARK  Name = ZINC13341315
REMARK  6 active torsions:
REMARK  status: ('A' for Active; 'I' for Inactive)
REMARK    1  A    between atoms: C_1  and  C_2
REMARK    2  A    between atoms: C_7  and  N_12
REMARK    3  A    between atoms: C_9  and  C_11
REMARK    4  A    between atoms: N_12  and  S_13
REMARK    5  A    between atoms: S_13  and  C_16
REMARK    6  A    between atoms: C_18  and  C_24
REMARK                            x       y       z     vdW  Elec       q    Type
REMARK                         _______ _______ _______ _____ _____    ______ ____
ROOT
ATOM      1  S   UNL     1       2.575   0.710   0.698  0.00  0.00    +0.060 S 
ATOM      2  O   UNL     1       2.620  -0.595   0.138  0.00  0.00    -0.153 OA
ATOM      3  O   UNL     1       3.683   1.599   0.650  0.00  0.00    -0.153 OA
ENDROOT
BRANCH   1   4
ATOM      4  C   UNL     1       2.161   0.514   2.400  0.00  0.00    +0.124 A 
ATOM      5  C   UNL     1       1.995  -0.749   2.926  0.00  0.00    +0.046 A 
ATOM      6  C   UNL     1       1.667  -0.903   4.275  0.00  0.00    +0.083 A 
ATOM      7  C   UNL     1       1.510   0.227   5.083  0.00  0.00    +0.057 A 
ATOM      8  C   UNL     1       1.679   1.486   4.544  0.00  0.00    +0.042 A 
ATOM      9  C   UNL     1       2.009   1.630   3.207  0.00  0.00    +0.069 A 
ATOM     10 CL   UNL     1       2.227   3.217   2.537  0.00  0.00    -0.081 Cl
ATOM     11 CL   UNL     1       1.103   0.046   6.761  0.00  0.00    -0.083 Cl
BRANCH   6  12
ATOM     12  C   UNL     1       1.487  -2.253   4.844  0.00  0.00    +0.388 C 
ATOM     13  O   UNL     1       1.202  -2.384   6.018  0.00  0.00    -0.241 OA
ATOM     14  O   UNL     1       1.639  -3.340   4.062  0.00  0.00    -0.241 OA
ENDBRANCH   6  12
ENDBRANCH   1   4
BRANCH   1  15
ATOM     15  N   UNL     1       1.309   1.493  -0.027  0.00  0.00    -0.187 NA
ATOM     16  H   UNL     1       1.433   2.384  -0.389  0.00  0.00    +0.148 HD
BRANCH  15  22
ATOM     17  C   UNL     1      -2.694   0.912  -2.870  0.00  0.00    +0.008 C 
ATOM     18  C   UNL     1      -2.030   0.535  -1.544  0.00  0.00    -0.010 C 
ATOM     19  C   UNL     1      -2.913   0.993  -0.382  0.00  0.00    +0.003 C 
ATOM     20  C   UNL     1      -2.249   0.616   0.943  0.00  0.00    +0.002 C 
ATOM     21  C   UNL     1      -0.883   1.298   1.041  0.00  0.00    +0.020 C 
ATOM     22  C   UNL     1       0.001   0.840  -0.121  0.00  0.00    +0.080 C 
ATOM     23  C   UNL     1      -0.664   1.217  -1.446  0.00  0.00    +0.007 C 
ATOM     24  C   UNL     1      -0.846   2.735  -1.512  0.00  0.00    +0.009 C 
ENDBRANCH  15  22
ENDBRANCH   1  15
TORSDOF 4
