REMARK  Name = ZINC40322161
REMARK  10 active torsions:
REMARK  status: ('A' for Active; 'I' for Inactive)
REMARK    1  A    between atoms: C_1  and  C_2
REMARK    2  A    between atoms: C_2  and  O_3
REMARK    3  A    between atoms: O_3  and  C_4
REMARK    4  A    between atoms: C_7  and  C_10
REMARK    5  A    between atoms: C_10  and  C_12
REMARK    6  A    between atoms: C_10  and  N_31
REMARK    7  A    between atoms: C_12  and  N_13
REMARK    8  A    between atoms: C_14  and  C_16
REMARK    9  A    between atoms: C_19  and  S_21
REMARK   10  A    between atoms: S_21  and  C_24
REMARK                            x       y       z     vdW  Elec       q    Type
REMARK                         _______ _______ _______ _____ _____    ______ ____
ROOT
ATOM      1  N   UNL     1      -1.139  -6.243   2.264  0.00  0.00    -0.310 N 
ATOM      2  C   UNL     1      -1.183  -6.553   3.575  0.00  0.00    +0.279 C 
ATOM      3  O   UNL     1      -2.220  -6.950   4.073  0.00  0.00    -0.267 OA
ATOM      4  H   UNL     1      -0.313  -5.926   1.868  0.00  0.00    +0.149 HD
ENDROOT
BRANCH   2   5
ATOM      5  C   UNL     1       0.020  -6.411   4.403  0.00  0.00    +0.192 A 
ATOM      6  C   UNL     1       0.115  -6.694   5.735  0.00  0.00    +0.056 A 
ATOM      7  C   UNL     1       1.438  -6.415   6.113  0.00  0.00    +0.070 A 
ATOM      8  C   UNL     1       2.084  -5.981   5.009  0.00  0.00    +0.246 A 
ATOM      9  O   UNL     1       1.228  -5.984   3.979  0.00  0.00    -0.433 OA
BRANCH   8  10
ATOM     10  S   UNL     1       3.776  -5.494   4.935  0.00  0.00    +0.058 S 
ATOM     11  O   UNL     1       3.898  -4.618   3.823  0.00  0.00    -0.161 OA
ATOM     12  O   UNL     1       4.146  -5.111   6.252  0.00  0.00    -0.161 OA
BRANCH  10  13
ATOM     13  C   UNL     1       4.715  -6.934   4.546  0.00  0.00    +0.097 A 
ATOM     14  C   UNL     1       5.198  -7.739   5.561  0.00  0.00    +0.029 A 
ATOM     15  C   UNL     1       5.934  -8.868   5.257  0.00  0.00    +0.022 A 
ATOM     16  C   UNL     1       6.189  -9.193   3.937  0.00  0.00    +0.041 A 
ATOM     17  C   UNL     1       5.705  -8.387   2.921  0.00  0.00    +0.022 A 
ATOM     18  C   UNL     1       4.964  -7.261   3.226  0.00  0.00    +0.029 A 
ATOM     19 CL   UNL     1       7.114 -10.611   3.554  0.00  0.00    -0.084 Cl
ENDBRANCH  10  13
ENDBRANCH   8  10
ENDBRANCH   2   5
BRANCH   1  20
ATOM     20  C   UNL     1      -2.341  -6.384   1.438  0.00  0.00    +0.094 C 
BRANCH  20  21
ATOM     21  C   UNL     1      -2.059  -5.848   0.033  0.00  0.00    -0.020 C 
BRANCH  21  25
ATOM     22  C   UNL     1      -1.344  -1.639   0.231  0.00  0.00    +0.121 A 
ATOM     23  C   UNL     1      -0.277  -2.522   0.146  0.00  0.00    +0.046 A 
ATOM     24  C   UNL     1      -0.511  -3.882   0.082  0.00  0.00    +0.005 A 
ATOM     25  C   UNL     1      -1.807  -4.364   0.103  0.00  0.00    -0.059 A 
ATOM     26  C   UNL     1      -2.872  -3.486   0.188  0.00  0.00    +0.005 A 
ATOM     27  C   UNL     1      -2.643  -2.126   0.258  0.00  0.00    +0.046 A 
BRANCH  22  28
ATOM     28  O   UNL     1      -1.117  -0.301   0.295  0.00  0.00    -0.492 OA
BRANCH  28  30
ATOM     29  C   UNL     1       0.303   1.654   0.343  0.00  0.00    +0.048 C 
ATOM     30  C   UNL     1       0.246   0.128   0.263  0.00  0.00    +0.225 C 
ENDBRANCH  28  30
ENDBRANCH  22  28
ENDBRANCH  21  25
BRANCH  21  31
ATOM     31  N   UNL     1      -3.219  -6.107  -0.831  0.00  0.00    +0.385 N 
ATOM     32  C   UNL     1      -2.957  -5.604  -2.204  0.00  0.00    -0.078 C 
ATOM     33  C   UNL     1      -3.947  -6.418  -3.075  0.00  0.00    -0.020 C 
ATOM     34  C   UNL     1      -3.930  -7.812  -2.407  0.00  0.00    -0.020 C 
ATOM     35  C   UNL     1      -3.436  -7.564  -0.970  0.00  0.00    -0.078 C 
ATOM     36  H   UNL     1      -4.043  -5.668  -0.450  0.00  0.00    -0.081 HD
ENDBRANCH  21  31
ENDBRANCH  20  21
ENDBRANCH   1  20
TORSDOF 9
