REMARK  Name = ZINC13750540
REMARK  9 active torsions:
REMARK  status: ('A' for Active; 'I' for Inactive)
REMARK    1  A    between atoms: C_1  and  C_2
REMARK    2  A    between atoms: C_2  and  O_3
REMARK    3  A    between atoms: O_3  and  C_4
REMARK    4  A    between atoms: C_7  and  C_12
REMARK    5  A    between atoms: C_9  and  O_10
REMARK    6  A    between atoms: O_10  and  C_11
REMARK    7  A    between atoms: N_18  and  C_19
REMARK    8  A    between atoms: C_22  and  C_26
REMARK    9  A    between atoms: C_23  and  C_25
REMARK                            x       y       z     vdW  Elec       q    Type
REMARK                         _______ _______ _______ _____ _____    ______ ____
ROOT
ATOM      1  C   UNL     1      -1.992  -6.063  -0.013  0.00  0.00    +0.028 C 
ATOM      2  C   UNL     1      -0.907  -6.871  -0.125  0.00  0.00    +0.078 C 
ATOM      3  C   UNL     1      -0.844  -8.339  -0.260  0.00  0.00    +0.256 C 
ATOM      4  O   UNL     1      -1.852  -9.020  -0.285  0.00  0.00    -0.269 OA
ATOM      5  N   UNL     1       0.359  -8.881  -0.353  0.00  0.00    -0.260 N 
ATOM      6  C   UNL     1       1.489  -8.093  -0.323  0.00  0.00    +0.166 C 
ATOM      7  N   UNL     1       2.747  -8.465  -0.402  0.00  0.00    -0.226 NA
ATOM      8  S   UNL     1       0.827  -6.442  -0.158  0.00  0.00    -0.049 S 
ATOM      9  H   UNL     1       0.446  -9.842  -0.443  0.00  0.00    +0.157 HD
ENDROOT
BRANCH   7  10
ATOM     10  C   UNL     1       3.742  -7.527  -0.353  0.00  0.00    +0.067 A 
ATOM     11  C   UNL     1       3.633  -6.349  -1.097  0.00  0.00    +0.028 A 
ATOM     12  C   UNL     1       4.640  -5.408  -1.043  0.00  0.00    +0.006 A 
ATOM     13  C   UNL     1       5.755  -5.628  -0.254  0.00  0.00    -0.047 A 
ATOM     14  C   UNL     1       5.870  -6.792   0.485  0.00  0.00    -0.046 A 
ATOM     15  C   UNL     1       4.868  -7.739   0.445  0.00  0.00    +0.031 A 
ATOM     16  C   UNL     1       7.089  -7.022   1.341  0.00  0.00    +0.044 C 
ATOM     17  C   UNL     1       6.851  -4.594  -0.200  0.00  0.00    +0.044 C 
ENDBRANCH   7  10
BRANCH   1  21
ATOM     18  C   UNL     1      -1.477  -1.930   0.801  0.00  0.00    +0.162 A 
ATOM     19  C   UNL     1      -0.436  -2.818   1.036  0.00  0.00    +0.050 A 
ATOM     20  C   UNL     1      -0.598  -4.160   0.773  0.00  0.00    +0.012 A 
ATOM     21  C   UNL     1      -1.816  -4.632   0.269  0.00  0.00    -0.020 A 
ATOM     22  C   UNL     1      -2.865  -3.735   0.033  0.00  0.00    +0.057 A 
ATOM     23  C   UNL     1      -2.695  -2.392   0.304  0.00  0.00    +0.162 A 
BRANCH  23  24
ATOM     24  O   UNL     1      -3.713  -1.519   0.081  0.00  0.00    -0.491 OA
ATOM     25  C   UNL     1      -4.933  -2.062  -0.429  0.00  0.00    +0.277 C 
ENDBRANCH  23  24
BRANCH  18  26
ATOM     26  O   UNL     1      -1.310  -0.607   1.062  0.00  0.00    -0.489 OA
BRANCH  26  28
ATOM     27  C   UNL     1      -0.040   1.312   1.800  0.00  0.00    +0.048 C 
ATOM     28  C   UNL     1      -0.038  -0.201   1.570  0.00  0.00    +0.226 C 
ENDBRANCH  26  28
ENDBRANCH  18  26
ENDBRANCH   1  21
TORSDOF 5
