REMARK  Name = ZINC11898821
REMARK  9 active torsions:
REMARK  status: ('A' for Active; 'I' for Inactive)
REMARK    1  A    between atoms: C_1  and  C_2
REMARK    2  A    between atoms: C_6  and  N_9
REMARK    3  A    between atoms: C_7  and  C_8
REMARK    4  A    between atoms: C_10  and  C_12
REMARK    5  A    between atoms: N_14  and  C_15
REMARK    6  A    between atoms: C_15  and  C_16
REMARK    7  A    between atoms: C_16  and  C_18
REMARK    8  A    between atoms: C_16  and  N_61
REMARK    9  A    between atoms: N_22  and  C_23
REMARK                            x       y       z     vdW  Elec       q    Type
REMARK                         _______ _______ _______ _____ _____    ______ ____
ROOT
ATOM      1  C   UNL     1       2.267   3.953   0.392  0.00  0.00    +0.299 C 
ATOM      2  O   UNL     1       3.388   3.497   0.292  0.00  0.00    -0.265 OA
ATOM      3  N   UNL     1       1.196   3.149   0.242  0.00  0.00    -0.309 N 
ATOM      4  H   UNL     1       0.302   3.525   0.250  0.00  0.00    +0.149 HD
ENDROOT
BRANCH   1   6
ATOM      5  N   UNL     1       3.141   6.229   0.732  0.00  0.00    -0.278 N 
ATOM      6  C   UNL     1       2.076   5.406   0.683  0.00  0.00    +0.303 C 
ATOM      7  O   UNL     1       0.960   5.844   0.874  0.00  0.00    -0.265 OA
ATOM      8  H   UNL     1       4.025   5.893   0.514  0.00  0.00    +0.155 HD
BRANCH   5  14
ATOM      9  C   UNL     1       4.991  10.350   2.671  0.00  0.00    +0.044 C 
ATOM     10  C   UNL     1       3.853   9.590   2.039  0.00  0.00    -0.046 A 
ATOM     11  C   UNL     1       2.641  10.218   1.819  0.00  0.00    +0.004 A 
ATOM     12  C   UNL     1       1.594   9.525   1.239  0.00  0.00    +0.002 A 
ATOM     13  C   UNL     1       1.757   8.202   0.877  0.00  0.00    +0.023 A 
ATOM     14  C   UNL     1       2.974   7.568   1.096  0.00  0.00    +0.037 A 
ATOM     15  C   UNL     1       4.021   8.266   1.684  0.00  0.00    -0.026 A 
ATOM     16  C   UNL     1       5.341   7.581   1.928  0.00  0.00    +0.046 C 
ENDBRANCH   5  14
ENDBRANCH   1   6
BRANCH   3  17
ATOM     17  C   UNL     1       1.383   1.706   0.067  0.00  0.00    +0.095 C 
BRANCH  17  18
ATOM     18  C   UNL     1       0.018   1.015   0.043  0.00  0.00    -0.003 C 
BRANCH  18  25
ATOM     19  C   UNL     1       0.128   1.337   2.449  0.00  0.00    -0.078 C 
ATOM     20  C   UNL     1      -0.649   1.434   3.733  0.00  0.00    -0.019 C 
ATOM     21  C   UNL     1      -0.945   0.006   4.237  0.00  0.00    -0.002 C 
ATOM     22  C   UNL     1      -2.054  -0.613   3.519  0.00  0.00    -0.002 C 
ATOM     23  C   UNL     1      -1.765  -0.752   2.010  0.00  0.00    -0.019 C 
ATOM     24  C   UNL     1      -1.981   0.586   1.357  0.00  0.00    -0.078 C 
ATOM     25  N   UNL     1      -0.745   1.431   1.230  0.00  0.00    +0.386 N 
ATOM     26  H   UNL     1      -1.033   2.410   1.113  0.00  0.00    -0.081 HD
ENDBRANCH  18  25
BRANCH  18  27
ATOM     27  C   UNL     1      -0.747   1.455  -1.179  0.00  0.00    +0.006 A 
ATOM     28  C   UNL     1      -1.906   2.143  -1.182  0.00  0.00    +0.021 A 
ATOM     29  C   UNL     1      -2.273   2.347  -2.527  0.00  0.00    +0.019 A 
ATOM     30  C   UNL     1      -1.327   1.769  -3.295  0.00  0.00    +0.085 A 
ATOM     31  N   UNL     1      -0.388   1.220  -2.474  0.00  0.00    -0.355 N 
ATOM     32  C   UNL     1       0.810   0.497  -2.910  0.00  0.00    +0.148 C 
ENDBRANCH  18  27
ENDBRANCH  17  18
ENDBRANCH   3  17
TORSDOF 6
