REMARK  Name = ZINC17108125
REMARK  3 active torsions:
REMARK  status: ('A' for Active; 'I' for Inactive)
REMARK    1  A    between atoms: C_1  and  C_2
REMARK    2  A    between atoms: N_11  and  C_12
REMARK    3  A    between atoms: C_14  and  C_17
REMARK                            x       y       z     vdW  Elec       q    Type
REMARK                         _______ _______ _______ _____ _____    ______ ____
ROOT
ATOM      1  C   UNL     1      -5.130  12.370  -0.588  0.00  0.00    +0.066 C 
ATOM      2  C   UNL     1      -4.383  11.065  -0.478  0.00  0.00    +0.047 A 
ATOM      3  C   UNL     1      -3.030  11.045  -0.402  0.00  0.00    +0.071 A 
ATOM      4  S   UNL     1      -2.730   9.287  -0.293  0.00  0.00    -0.060 S 
ATOM      5  C   UNL     1      -4.386   8.770  -0.358  0.00  0.00    +0.164 A 
ATOM      6  N   UNL     1      -5.031   9.917  -0.460  0.00  0.00    -0.230 NA
ATOM      7  N   UNL     1      -4.900   7.483  -0.319  0.00  0.00    -0.278 N 
ATOM      8  C   UNL     1      -4.051   6.408  -0.215  0.00  0.00    +0.135 C 
ATOM      9  N   UNL     1      -2.739   6.476  -0.141  0.00  0.00    -0.212 NA
ATOM     10  C   UNL     1      -2.183   5.251  -0.051  0.00  0.00    +0.165 C 
ATOM     11  N   UNL     1      -0.893   4.992   0.036  0.00  0.00    -0.202 NA
ATOM     12  C   UNL     1      -3.271   4.249  -0.059  0.00  0.00    +0.030 A 
ATOM     13  C   UNL     1      -4.465   4.995  -0.164  0.00  0.00    +0.026 A 
ATOM     14  C   UNL     1      -5.686   4.336  -0.196  0.00  0.00    +0.012 A 
ATOM     15  C   UNL     1      -5.722   2.954  -0.125  0.00  0.00    +0.001 A 
ATOM     16  C   UNL     1      -4.551   2.225  -0.022  0.00  0.00    +0.001 A 
ATOM     17  C   UNL     1      -3.324   2.867   0.012  0.00  0.00    +0.012 A 
ATOM     18  H   UNL     1      -5.987   7.323  -0.372  0.00  0.00    +0.155 HD
ENDROOT
BRANCH  11  19
ATOM     19  C   UNL     1      -0.460   3.717   0.014  0.00  0.00    +0.195 A 
ATOM     20  N   UNL     1      -0.183   2.901   1.030  0.00  0.00    -0.226 NA
ATOM     21  C   UNL     1       0.233   1.678   0.823  0.00  0.00    +0.048 A 
ATOM     22  C   UNL     1       0.391   1.220  -0.453  0.00  0.00    +0.071 A 
ATOM     23  S   UNL     1      -0.093   2.667  -1.386  0.00  0.00    -0.056 S 
ATOM     24  C   UNL     1       0.539   0.777   1.991  0.00  0.00    +0.066 C 
ENDBRANCH  11  19
TORSDOF 1
