REMARK  Name = ZINC57418582
REMARK  7 active torsions:
REMARK  status: ('A' for Active; 'I' for Inactive)
REMARK    1  A    between atoms: C_3  and  N_19
REMARK    2  A    between atoms: C_6  and  C_7
REMARK    3  A    between atoms: C_7  and  N_8
REMARK    4  A    between atoms: N_11  and  C_12
REMARK    5  A    between atoms: C_12  and  C_13
REMARK    6  A    between atoms: C_22  and  C_25
REMARK    7  A    between atoms: C_25  and  O_26
REMARK                            x       y       z     vdW  Elec       q    Type
REMARK                         _______ _______ _______ _____ _____    ______ ____
ROOT
ATOM      1  C   UNL     1      -0.017   1.379   0.026  0.00  0.00    +0.007 A 
ATOM      2  C   UNL     1       1.169   2.087   0.018  0.00  0.00    +0.023 A 
ATOM      3  C   UNL     1       2.381   1.409  -0.013  0.00  0.00    +0.030 A 
ATOM      4  C   UNL     1       2.396   0.020  -0.037  0.00  0.00    +0.023 A 
ATOM      5  C   UNL     1       1.207  -0.682  -0.029  0.00  0.00    +0.007 A 
ATOM      6  C   UNL     1       0.002  -0.004   0.002  0.00  0.00    -0.030 A 
ENDROOT
BRANCH   3   7
ATOM      7  N   UNL     1       3.582   2.122  -0.021  0.00  0.00    -0.330 N 
ATOM      8  C   UNL     1       4.870   1.420   0.067  0.00  0.00    +0.105 C 
ATOM      9  C   UNL     1       5.753   1.862  -1.104  0.00  0.00    +0.024 C 
ATOM     10  C   UNL     1       5.867   3.388  -1.105  0.00  0.00    +0.017 C 
ATOM     11  C   UNL     1       4.479   4.005  -1.287  0.00  0.00    +0.024 C 
ATOM     12  C   UNL     1       3.582   3.588  -0.124  0.00  0.00    +0.105 C 
BRANCH  10  13
ATOM     13  C   UNL     1       6.777   3.831  -2.252  0.00  0.00    +0.159 C 
BRANCH  13  14
ATOM     14  O   UNL     1       6.978   5.244  -2.183  0.00  0.00    -0.395 OA
ATOM     15  H   UNL     1       7.546   5.595  -2.882  0.00  0.00    +0.209 HD
ENDBRANCH  13  14
ENDBRANCH  10  13
ENDBRANCH   3   7
BRANCH   6  16
ATOM     16  C   UNL     1      -1.294  -0.773   0.011  0.00  0.00    +0.141 C 
BRANCH  16  17
ATOM     17  N   UNL     1      -1.737  -0.999  -1.367  0.00  0.00    -0.295 N 
ATOM     18  C   UNL     1      -2.880  -1.672  -1.606  0.00  0.00    +0.300 C 
ATOM     19  O   UNL     1      -3.544  -2.091  -0.677  0.00  0.00    -0.253 OA
ATOM     20  N   UNL     1      -3.288  -1.879  -2.874  0.00  0.00    -0.297 N 
ATOM     21  H   UNL     1      -1.207  -0.665  -2.108  0.00  0.00    +0.151 HD
ATOM     22  H   UNL     1      -2.758  -1.545  -3.614  0.00  0.00    +0.150 HD
BRANCH  20  23
ATOM     23  C   UNL     1      -4.531  -2.610  -3.133  0.00  0.00    +0.137 C 
BRANCH  23  24
ATOM     24  C   UNL     1      -4.761  -2.706  -4.643  0.00  0.00    +0.135 C 
ATOM     25  C   UNL     1      -6.090  -3.446  -4.938  0.00  0.00    +0.035 C 
ATOM     26  C   UNL     1      -6.436  -2.880  -6.343  0.00  0.00    +0.031 C 
ATOM     27  C   UNL     1      -5.904  -1.433  -6.253  0.00  0.00    +0.160 C 
ATOM     28  O   UNL     1      -4.926  -1.395  -5.206  0.00  0.00    -0.375 OA
ENDBRANCH  23  24
ENDBRANCH  20  23
ENDBRANCH  16  17
ENDBRANCH   6  16
TORSDOF 7
