REMARK  Name = ZINC39675514
REMARK  11 active torsions:
REMARK  status: ('A' for Active; 'I' for Inactive)
REMARK    1  A    between atoms: C_1  and  C_2
REMARK    2  A    between atoms: C_4  and  C_8
REMARK    3  A    between atoms: N_6  and  C_7
REMARK    4  A    between atoms: C_12  and  C_21
REMARK    5  A    between atoms: N_23  and  C_24
REMARK    6  A    between atoms: C_24  and  C_26
REMARK    7  A    between atoms: C_24  and  C_27
REMARK    8  A    between atoms: C_27  and  C_28
REMARK    9  A    between atoms: C_28  and  C_29
REMARK   10  A    between atoms: C_32  and  O_35
REMARK   11  A    between atoms: O_35  and  C_36
REMARK                            x       y       z     vdW  Elec       q    Type
REMARK                         _______ _______ _______ _____ _____    ______ ____
ROOT
ATOM      1  C   UNL     1       0.073  -3.460  -1.494  0.00  0.00    +0.267 C 
ATOM      2  O   UNL     1       0.021  -3.425  -2.708  0.00  0.00    -0.268 OA
ATOM      3  N   UNL     1       0.064  -4.646  -0.854  0.00  0.00    -0.295 N 
ATOM      4  C   UNL     1       0.114  -4.889   0.607  0.00  0.00    +0.121 C 
ATOM      5  C   UNL     1      -0.861  -6.065   0.841  0.00  0.00    +0.100 C 
ATOM      6  C   UNL     1      -0.929  -6.792  -0.513  0.00  0.00    -0.004 C 
ATOM      7  C   UNL     1      -0.007  -6.001  -1.451  0.00  0.00    +0.115 C 
ATOM      8  C   UNL     1      -0.433  -8.227  -0.368  0.00  0.00    -0.010 C 
ATOM      9  C   UNL     1      -0.565  -8.947  -1.713  0.00  0.00    -0.082 C 
ATOM     10  N   UNL     1      -1.970  -8.935  -2.140  0.00  0.00    +0.379 N 
ATOM     11  C   UNL     1      -2.412  -7.554  -2.367  0.00  0.00    -0.082 C 
ATOM     12  C   UNL     1      -2.358  -6.775  -1.049  0.00  0.00    -0.010 C 
ATOM     13  H   UNL     1      -2.064  -9.461  -2.996  0.00  0.00    -0.086 HD
ATOM     14  H   UNL     1      -2.541  -9.357  -1.424  0.00  0.00    -0.086 HD
ENDROOT
BRANCH   1  18
ATOM     15  C   UNL     1       0.288   1.436  -0.201  0.00  0.00    +0.065 C 
ATOM     16  C   UNL     1       0.240  -0.070  -0.174  0.00  0.00    +0.037 A 
ATOM     17  C   UNL     1       0.167  -0.890  -1.249  0.00  0.00    +0.057 A 
ATOM     18  C   UNL     1       0.148  -2.203  -0.722  0.00  0.00    +0.147 A 
ATOM     19  N   UNL     1       0.209  -2.092   0.590  0.00  0.00    -0.167 NA
ATOM     20  N   UNL     1       0.268  -0.853   0.925  0.00  0.00    -0.271 N 
ATOM     21  C   UNL     1       0.351  -0.360   2.303  0.00  0.00    +0.172 C 
ENDBRANCH   1  18
BRANCH   5  22
ATOM     22  C   UNL     1      -0.325  -6.986   1.907  0.00  0.00    +0.218 C 
ATOM     23  O   UNL     1       0.872  -7.122   2.045  0.00  0.00    -0.275 OA
ATOM     24  N   UNL     1      -1.177  -7.658   2.706  0.00  0.00    -0.312 N 
ATOM     25  H   UNL     1      -2.135  -7.549   2.596  0.00  0.00    +0.149 HD
BRANCH  24  26
ATOM     26  C   UNL     1      -0.657  -8.553   3.743  0.00  0.00    +0.070 C 
ATOM     27  C   UNL     1      -0.342  -7.745   5.003  0.00  0.00    +0.028 C 
BRANCH  26  28
ATOM     28  C   UNL     1      -1.704  -9.620   4.069  0.00  0.00    +0.026 C 
BRANCH  28  29
ATOM     29  C   UNL     1      -1.928 -10.507   2.842  0.00  0.00    +0.037 C 
BRANCH  29  30
ATOM     30  C   UNL     1      -2.960 -11.557   3.164  0.00  0.00    -0.047 A 
ATOM     31  C   UNL     1      -2.567 -12.773   3.691  0.00  0.00    +0.007 A 
ATOM     32  C   UNL     1      -3.511 -13.737   3.986  0.00  0.00    +0.046 A 
ATOM     33  C   UNL     1      -4.855 -13.485   3.753  0.00  0.00    +0.120 A 
ATOM     34  C   UNL     1      -5.247 -12.264   3.224  0.00  0.00    +0.046 A 
ATOM     35  C   UNL     1      -4.300 -11.301   2.936  0.00  0.00    +0.007 A 
BRANCH  33  36
ATOM     36  O   UNL     1      -5.785 -14.432   4.042  0.00  0.00    -0.495 OA
ATOM     37  C   UNL     1      -7.150 -14.103   3.776  0.00  0.00    +0.277 C 
ENDBRANCH  33  36
ENDBRANCH  29  30
ENDBRANCH  28  29
ENDBRANCH  26  28
ENDBRANCH  24  26
ENDBRANCH   5  22
TORSDOF 7
