REMARK  Name = ZINC37369343
REMARK  5 active torsions:
REMARK  status: ('A' for Active; 'I' for Inactive)
REMARK    1  A    between atoms: C_1  and  C_2
REMARK    2  A    between atoms: C_7  and  N_8
REMARK    3  A    between atoms: N_8  and  S_9
REMARK    4  A    between atoms: S_9  and  C_12
REMARK    5  A    between atoms: C_17  and  N_18
REMARK                            x       y       z     vdW  Elec       q    Type
REMARK                         _______ _______ _______ _____ _____    ______ ____
ROOT
ATOM      1  S   UNL     1      -1.196  -1.491   5.297  0.00  0.00    +0.094 S 
ATOM      2  O   UNL     1      -2.607  -1.349   5.388  0.00  0.00    -0.148 OA
ATOM      3  O   UNL     1      -0.484  -2.497   6.005  0.00  0.00    -0.148 OA
ENDROOT
BRANCH   1   4
ATOM      4  C   UNL     1      -0.502   0.054   5.784  0.00  0.00    +0.140 A 
ATOM      5  C   UNL     1       0.543   0.088   6.687  0.00  0.00    +0.031 A 
ATOM      6  C   UNL     1       1.087   1.300   7.069  0.00  0.00    +0.002 A 
ATOM      7  C   UNL     1       0.586   2.478   6.547  0.00  0.00    +0.002 A 
ATOM      8  C   UNL     1      -0.459   2.444   5.643  0.00  0.00    +0.035 A 
ATOM      9  C   UNL     1      -1.000   1.231   5.258  0.00  0.00    +0.153 A 
BRANCH   9  10
ATOM     10  N   UNL     1      -2.116   1.194   4.286  0.00  0.00    +0.058 N 
ATOM     11  O   UNL     1      -2.984   2.034   4.329  0.00  0.00    -0.126 OA
ATOM     12  O   UNL     1      -2.159   0.323   3.448  0.00  0.00    -0.126 OA
ENDBRANCH   9  10
ENDBRANCH   1   4
BRANCH   1  13
ATOM     13  N   UNL     1      -0.843  -1.702   3.693  0.00  0.00    -0.097 NA
BRANCH  13  20
ATOM     14  C   UNL     1      -0.193  -1.984   0.938  0.00  0.00    +0.046 C 
ATOM     15  C   UNL     1      -0.978  -3.033   1.684  0.00  0.00    -0.026 A 
ATOM     16  C   UNL     1      -1.399  -4.175   1.032  0.00  0.00    +0.006 A 
ATOM     17  C   UNL     1      -2.118  -5.138   1.715  0.00  0.00    +0.015 A 
ATOM     18  C   UNL     1      -2.419  -4.961   3.054  0.00  0.00    +0.020 A 
ATOM     19  C   UNL     1      -2.001  -3.820   3.712  0.00  0.00    +0.042 A 
ATOM     20  C   UNL     1      -1.272  -2.854   3.029  0.00  0.00    +0.078 A 
ATOM     21 BR   UNL     1      -3.403  -6.281   3.984  0.00  0.00    -0.050 Br
ENDBRANCH  13  20
ENDBRANCH   1  13
TORSDOF 4
