REMARK  Name = ZINC19993542
REMARK  6 active torsions:
REMARK  status: ('A' for Active; 'I' for Inactive)
REMARK    1  A    between atoms: C_1  and  C_2
REMARK    2  A    between atoms: C_5  and  C_8
REMARK    3  A    between atoms: C_17  and  S_19
REMARK    4  A    between atoms: S_19  and  C_20
REMARK    5  A    between atoms: C_20  and  C_21
REMARK    6  A    between atoms: C_21  and  O_22
REMARK                            x       y       z     vdW  Elec       q    Type
REMARK                         _______ _______ _______ _____ _____    ______ ____
ROOT
ATOM      1  C   UNL     1      -1.309   2.117   0.020  0.00  0.00    +0.004 A 
ATOM      2  C   UNL     1      -2.279   1.810  -0.873  0.00  0.00    +0.056 A 
ATOM      3  S   UNL     1      -3.597   2.935  -0.454  0.00  0.00    -0.076 S 
ATOM      4  C   UNL     1      -2.819   3.789   0.893  0.00  0.00    +0.117 A 
ATOM      5  C   UNL     1      -1.556   3.179   0.989  0.00  0.00    +0.080 A 
ATOM      6  C   UNL     1      -0.699   3.682   2.015  0.00  0.00    +0.261 A 
ATOM      7  O   UNL     1       0.416   3.214   2.173  0.00  0.00    -0.267 OA
ATOM      8  N   UNL     1      -1.136   4.679   2.806  0.00  0.00    -0.301 N 
ATOM      9  H   UNL     1      -0.487   5.076   3.601  0.00  0.00    +0.171 HD
ATOM     10  C   UNL     1      -2.380   5.216   2.644  0.00  0.00    +0.170 A 
ATOM     11  N   UNL     1      -3.191   4.771   1.706  0.00  0.00    -0.216 NA
ENDROOT
BRANCH   1  16
ATOM     12  C   UNL     1       3.710  -0.706  -0.037  0.00  0.00    +0.044 C 
ATOM     13  C   UNL     1       2.396   0.033  -0.021  0.00  0.00    -0.050 A 
ATOM     14  C   UNL     1       1.208  -0.675  -0.013  0.00  0.00    +0.004 A 
ATOM     15  C   UNL     1       0.002  -0.004   0.002  0.00  0.00    +0.009 A 
ATOM     16  C   UNL     1      -0.017   1.390   0.010  0.00  0.00    -0.017 A 
ATOM     17  C   UNL     1       1.184   2.098   0.002  0.00  0.00    +0.009 A 
ATOM     18  C   UNL     1       2.384   1.416  -0.014  0.00  0.00    +0.004 A 
ENDBRANCH   1  16
BRANCH  10  19
ATOM     19  S   UNL     1      -2.909   6.521   3.704  0.00  0.00    -0.086 S 
BRANCH  19  20
ATOM     20  C   UNL     1      -4.569   6.810   3.041  0.00  0.00    +0.105 C 
BRANCH  20  21
ATOM     21  C   UNL     1      -5.243   7.936   3.828  0.00  0.00    +0.167 C 
BRANCH  21  22
ATOM     22  O   UNL     1      -6.553   8.165   3.305  0.00  0.00    -0.394 OA
ATOM     23  H   UNL     1      -7.194   8.942   3.747  0.00  0.00    +0.209 HD
ENDBRANCH  21  22
ENDBRANCH  20  21
ENDBRANCH  19  20
ENDBRANCH  10  19
TORSDOF 5
