REMARK  Name = ZINC46954300
REMARK  8 active torsions:
REMARK  status: ('A' for Active; 'I' for Inactive)
REMARK    1  A    between atoms: C_1  and  C_2
REMARK    2  A    between atoms: C_6  and  C_15
REMARK    3  A    between atoms: N_8  and  C_9
REMARK    4  A    between atoms: N_17  and  C_18
REMARK    5  A    between atoms: C_18  and  C_19
REMARK    6  A    between atoms: C_19  and  C_21
REMARK    7  A    between atoms: C_19  and  N_22
REMARK    8  A    between atoms: C_26  and  C_29
REMARK                            x       y       z     vdW  Elec       q    Type
REMARK                         _______ _______ _______ _____ _____    ______ ____
ROOT
ATOM      1  C   UNL     1       0.153  -5.030   0.332  0.00  0.00    +0.268 C 
ATOM      2  O   UNL     1       0.051  -5.675  -0.694  0.00  0.00    -0.268 OA
ATOM      3  N   UNL     1       0.224  -5.662   1.520  0.00  0.00    -0.311 N 
ATOM      4  H   UNL     1       0.305  -5.148   2.339  0.00  0.00    +0.149 HD
ENDROOT
BRANCH   1  10
ATOM      5  C   UNL     1       0.339   0.673   0.303  0.00  0.00    +0.066 C 
ATOM      6  C   UNL     1       0.283  -0.831   0.224  0.00  0.00    +0.044 A 
ATOM      7  C   UNL     1       0.170  -1.434  -0.983  0.00  0.00    +0.076 A 
ATOM      8  C   UNL     1       0.120  -2.852  -1.014  0.00  0.00    +0.213 A 
ATOM      9  O   UNL     1       0.019  -3.462  -2.067  0.00  0.00    -0.285 OA
ATOM     10  C   UNL     1       0.197  -3.555   0.276  0.00  0.00    +0.192 A 
ATOM     11  N   UNL     1       0.307  -2.845   1.379  0.00  0.00    -0.158 NA
ATOM     12  N   UNL     1       0.353  -1.564   1.363  0.00  0.00    -0.236 N 
BRANCH  12  13
ATOM     13  C   UNL     1       0.476  -0.889   2.582  0.00  0.00    +0.066 A 
ATOM     14  C   UNL     1      -0.415  -1.149   3.615  0.00  0.00    +0.028 A 
ATOM     15  C   UNL     1      -0.291  -0.480   4.816  0.00  0.00    +0.002 A 
ATOM     16  C   UNL     1       0.719   0.448   4.992  0.00  0.00    +0.000 A 
ATOM     17  C   UNL     1       1.608   0.710   3.966  0.00  0.00    +0.002 A 
ATOM     18  C   UNL     1       1.493   0.040   2.763  0.00  0.00    +0.028 A 
ENDBRANCH  12  13
ENDBRANCH   1  10
BRANCH   3  19
ATOM     19  C   UNL     1       0.180  -7.125   1.576  0.00  0.00    +0.089 C 
BRANCH  19  20
ATOM     20  C   UNL     1       0.144  -7.579   3.036  0.00  0.00    -0.054 C 
ATOM     21  C   UNL     1      -0.011  -9.100   3.094  0.00  0.00    -0.012 C 
BRANCH  20  22
ATOM     22  N   UNL     1      -0.991  -6.944   3.719  0.00  0.00    +0.383 N 
ATOM     23  C   UNL     1      -0.939  -7.263   5.151  0.00  0.00    -0.078 C 
ATOM     24  C   UNL     1      -2.073  -6.538   5.880  0.00  0.00    -0.018 C 
ATOM     25  C   UNL     1      -3.416  -6.994   5.303  0.00  0.00    -0.001 C 
ATOM     26  C   UNL     1      -3.430  -6.725   3.795  0.00  0.00    -0.031 C 
ATOM     27  C   UNL     1      -2.246  -7.442   3.144  0.00  0.00    -0.075 C 
ATOM     28  C   UNL     1      -4.738  -7.247   3.196  0.00  0.00    +0.005 C 
ATOM     29  H   UNL     1      -0.940  -5.944   3.597  0.00  0.00    -0.081 HD
ENDBRANCH  20  22
ENDBRANCH  19  20
ENDBRANCH   3  19
TORSDOF 5
