REMARK  Name = ZINC25317633
REMARK  7 active torsions:
REMARK  status: ('A' for Active; 'I' for Inactive)
REMARK    1  A    between atoms: C_1  and  C_2
REMARK    2  A    between atoms: C_4  and  C_8
REMARK    3  A    between atoms: C_5  and  C_7
REMARK    4  A    between atoms: N_10  and  N_11
REMARK    5  A    between atoms: C_12  and  C_14
REMARK    6  A    between atoms: C_16  and  C_26
REMARK    7  A    between atoms: N_17  and  C_19
REMARK                            x       y       z     vdW  Elec       q    Type
REMARK                         _______ _______ _______ _____ _____    ______ ____
ROOT
ATOM      1  C   UNL     1       1.104   1.978   0.089  0.00  0.00    +0.150 A 
ATOM      2  C   UNL     1       0.038   1.091  -0.172  0.00  0.00    +0.066 A 
ATOM      3  C   UNL     1      -1.091   1.867  -0.171  0.00  0.00    +0.110 A 
ATOM      4  N   UNL     1      -0.687   3.148   0.088  0.00  0.00    -0.228 N 
ATOM      5  N   UNL     1       0.589   3.184   0.231  0.00  0.00    -0.161 NA
ENDROOT
BRANCH   4   6
ATOM      6  C   UNL     1      -1.538   4.256   0.178  0.00  0.00    +0.068 A 
ATOM      7  C   UNL     1      -2.730   4.163   0.885  0.00  0.00    +0.028 A 
ATOM      8  C   UNL     1      -3.567   5.257   0.973  0.00  0.00    +0.003 A 
ATOM      9  C   UNL     1      -3.220   6.447   0.359  0.00  0.00    +0.020 A 
ATOM     10  C   UNL     1      -2.033   6.544  -0.346  0.00  0.00    +0.043 A 
ATOM     11  C   UNL     1      -1.189   5.453  -0.433  0.00  0.00    +0.047 A 
ATOM     12 CL   UNL     1      -1.602   8.039  -1.116  0.00  0.00    -0.083 Cl
ENDBRANCH   4   6
BRANCH   3  13
ATOM     13  C   UNL     1      -2.472   1.410  -0.403  0.00  0.00    +0.153 A 
ATOM     14  C   UNL     1      -2.899   0.117  -0.390  0.00  0.00    +0.051 A 
ATOM     15  C   UNL     1      -4.282   0.144  -0.657  0.00  0.00    +0.042 A 
ATOM     16  C   UNL     1      -4.628   1.437  -0.818  0.00  0.00    +0.196 A 
ATOM     17  O   UNL     1      -3.534   2.199  -0.657  0.00  0.00    -0.461 OA
ENDBRANCH   3  13
BRANCH   1  19
ATOM     18  N   UNL     1       3.451   2.576   0.440  0.00  0.00    -0.229 N 
ATOM     19  C   UNL     1       2.534   1.622   0.185  0.00  0.00    +0.280 C 
ATOM     20  O   UNL     1       2.885   0.468   0.033  0.00  0.00    -0.267 OA
ATOM     21  H   UNL     1       3.134   3.621   0.577  0.00  0.00    +0.173 HD
BRANCH  18  24
ATOM     22  C   UNL     1       5.724   3.193   0.786  0.00  0.00    +0.263 C 
ATOM     23  O   UNL     1       5.373   4.348   0.938  0.00  0.00    -0.269 OA
ATOM     24  N   UNL     1       4.808   2.239   0.531  0.00  0.00    -0.230 N 
ATOM     25  H   UNL     1       5.125   1.194   0.394  0.00  0.00    +0.173 HD
BRANCH  22  29
ATOM     26  C   UNL     1      10.100   0.570   0.829  0.00  0.00    +0.086 C 
ATOM     27  C   UNL     1       9.068   1.666   0.897  0.00  0.00    +0.103 A 
ATOM     28  C   UNL     1       7.746   1.501   0.734  0.00  0.00    +0.057 A 
ATOM     29  C   UNL     1       7.151   2.838   0.882  0.00  0.00    +0.079 A 
ATOM     30  C   UNL     1       8.195   3.679   1.133  0.00  0.00    +0.114 A 
ATOM     31  O   UNL     1       9.323   2.962   1.137  0.00  0.00    -0.464 OA
ATOM     32  C   UNL     1       8.095   5.164   1.365  0.00  0.00    +0.087 C 
ENDBRANCH  22  29
ENDBRANCH  18  24
ENDBRANCH   1  19
TORSDOF 5
