REMARK  Name = ZINC27525322
REMARK  15 active torsions:
REMARK  status: ('A' for Active; 'I' for Inactive)
REMARK    1  A    between atoms: C_1  and  C_2
REMARK    2  A    between atoms: C_5  and  N_8
REMARK    3  A    between atoms: C_9  and  C_26
REMARK    4  A    between atoms: C_12  and  S_13
REMARK    5  A    between atoms: S_13  and  C_14
REMARK    6  A    between atoms: C_14  and  C_15
REMARK    7  A    between atoms: N_17  and  C_18
REMARK    8  A    between atoms: C_20  and  C_25
REMARK    9  A    between atoms: C_23  and  C_24
REMARK   10  A    between atoms: C_26  and  O_27
REMARK   11  A    between atoms: O_27  and  C_28
REMARK   12  A    between atoms: C_31  and  C_34
REMARK   13  A    between atoms: C_34  and  C_35
REMARK   14  A    between atoms: C_34  and  C_36
REMARK   15  A    between atoms: C_34  and  C_37
REMARK                            x       y       z     vdW  Elec       q    Type
REMARK                         _______ _______ _______ _____ _____    ______ ____
ROOT
ATOM      1  N   UNL     1      -0.005   1.040   4.089  0.00  0.00    -0.271 N 
ATOM      2  C   UNL     1       1.023   0.322   4.641  0.00  0.00    +0.176 A 
ATOM      3  N   UNL     1       1.728  -0.164   3.659  0.00  0.00    -0.130 NA
ATOM      4  N   UNL     1       1.220   0.190   2.533  0.00  0.00    -0.122 NA
ATOM      5  C   UNL     1       0.158   0.934   2.735  0.00  0.00    +0.197 A 
ENDROOT
BRANCH   1  10
ATOM      6  C   UNL     1      -4.083   3.866   6.846  0.00  0.00    +0.044 C 
ATOM      7  C   UNL     1      -3.000   3.116   6.114  0.00  0.00    -0.050 A 
ATOM      8  C   UNL     1      -3.326   2.023   5.332  0.00  0.00    +0.005 A 
ATOM      9  C   UNL     1      -2.336   1.333   4.660  0.00  0.00    +0.026 A 
ATOM     10  C   UNL     1      -1.012   1.738   4.770  0.00  0.00    +0.050 A 
ATOM     11  C   UNL     1      -0.688   2.832   5.561  0.00  0.00    +0.026 A 
ATOM     12  C   UNL     1      -1.683   3.521   6.226  0.00  0.00    +0.005 A 
ENDBRANCH   1  10
BRANCH   5  13
ATOM     13  S   UNL     1      -0.869   1.655   1.497  0.00  0.00    -0.076 S 
BRANCH  13  14
ATOM     14  C   UNL     1      -0.021   1.073   0.008  0.00  0.00    +0.173 C 
BRANCH  14  15
ATOM     15  C   UNL     1      -0.743   1.582  -1.213  0.00  0.00    +0.227 C 
ATOM     16  O   UNL     1      -1.734   2.271  -1.088  0.00  0.00    -0.275 OA
ATOM     17  N   UNL     1      -0.288   1.272  -2.443  0.00  0.00    -0.285 N 
ATOM     18  H   UNL     1       0.659   0.725  -2.558  0.00  0.00    +0.155 HD
BRANCH  17  19
ATOM     19  C   UNL     1      -1.022   1.646  -3.575  0.00  0.00    +0.037 A 
ATOM     20  C   UNL     1      -2.392   1.853  -3.479  0.00  0.00    +0.027 A 
ATOM     21  C   UNL     1      -3.111   2.227  -4.597  0.00  0.00    -0.049 A 
ATOM     22  C   UNL     1      -2.471   2.386  -5.812  0.00  0.00    +0.004 A 
ATOM     23  C   UNL     1      -1.108   2.176  -5.912  0.00  0.00    +0.005 A 
ATOM     24  C   UNL     1      -0.382   1.807  -4.796  0.00  0.00    -0.029 A 
ATOM     25  C   UNL     1       1.104   1.579  -4.906  0.00  0.00    +0.045 C 
ATOM     26  C   UNL     1      -4.597   2.456  -4.493  0.00  0.00    +0.044 C 
ENDBRANCH  17  19
ENDBRANCH  14  15
ENDBRANCH  13  14
ENDBRANCH   5  13
BRANCH   2  27
ATOM     27  C   UNL     1       1.289   0.129   6.112  0.00  0.00    +0.305 C 
BRANCH  27  28
ATOM     28  O   UNL     1       0.603  -1.037   6.572  0.00  0.00    -0.484 OA
BRANCH  28  29
ATOM     29  C   UNL     1       0.739  -1.355   7.886  0.00  0.00    +0.121 A 
ATOM     30  C   UNL     1       1.522  -0.564   8.715  0.00  0.00    +0.046 A 
ATOM     31  C   UNL     1       1.653  -0.886  10.052  0.00  0.00    +0.008 A 
ATOM     32  C   UNL     1       1.016  -2.002  10.561  0.00  0.00    -0.042 A 
ATOM     33  C   UNL     1       0.240  -2.796   9.736  0.00  0.00    +0.008 A 
ATOM     34  C   UNL     1       0.100  -2.474   8.400  0.00  0.00    +0.046 A 
BRANCH  32  35
ATOM     35  C   UNL     1       1.167  -2.355  12.019  0.00  0.00    -0.013 C 
ATOM     36  C   UNL     1       1.794  -3.745  12.145  0.00  0.00    +0.015 C 
ATOM     37  C   UNL     1       2.069  -1.325  12.702  0.00  0.00    +0.015 C 
ATOM     38  C   UNL     1      -0.208  -2.353  12.689  0.00  0.00    +0.015 C 
ENDBRANCH  32  35
ENDBRANCH  28  29
ENDBRANCH  27  28
ENDBRANCH   2  27
TORSDOF 9
