REMARK  Name = ZINC66401202
REMARK  5 active torsions:
REMARK  status: ('A' for Active; 'I' for Inactive)
REMARK    1  A    between atoms: C_1  and  C_2
REMARK    2  A    between atoms: C_7  and  C_8
REMARK    3  A    between atoms: C_8  and  C_10
REMARK    4  A    between atoms: C_8  and  N_12
REMARK    5  A    between atoms: C_13  and  C_15
REMARK                            x       y       z     vdW  Elec       q    Type
REMARK                         _______ _______ _______ _____ _____    ______ ____
ROOT
ATOM      1  N   UNL     1       0.630  -0.793   3.543  0.00  0.00    -0.292 N 
ATOM      2  C   UNL     1       1.199  -0.221   4.623  0.00  0.00    +0.247 C 
ATOM      3  O   UNL     1       1.211   0.990   4.735  0.00  0.00    -0.270 OA
ATOM      4  H   UNL     1       0.621  -1.758   3.453  0.00  0.00    +0.151 HD
ENDROOT
BRANCH   2   5
ATOM      5  C   UNL     1       1.808  -1.064   5.668  0.00  0.00    +0.054 A 
ATOM      6  C   UNL     1       1.803  -2.475   5.540  0.00  0.00    +0.040 A 
ATOM      7  C   UNL     1       2.372  -3.228   6.519  0.00  0.00    +0.106 A 
ATOM      8  C   UNL     1       2.951  -2.592   7.635  0.00  0.00    +0.267 A 
ATOM      9  O   UNL     1       3.463  -3.263   8.516  0.00  0.00    -0.266 OA
ATOM     10  N   UNL     1       2.945  -1.250   7.736  0.00  0.00    -0.327 N 
ATOM     11  H   UNL     1       3.348  -0.828   8.510  0.00  0.00    +0.168 HD
ATOM     12  C   UNL     1       2.392  -0.485   6.776  0.00  0.00    +0.099 A 
ATOM     13 CL   UNL     1       2.384  -4.960   6.396  0.00  0.00    -0.078 Cl
ENDBRANCH   2   5
BRANCH   1  14
ATOM     14  C   UNL     1       0.025   0.045   2.504  0.00  0.00    +0.207 C 
BRANCH  14  21
ATOM     15  C   UNL     1      -0.018   1.503   0.010  0.00  0.00    +0.044 C 
ATOM     16  C   UNL     1       0.002  -0.004   0.002  0.00  0.00    -0.045 A 
ATOM     17  C   UNL     1       0.006  -0.689  -1.199  0.00  0.00    +0.004 A 
ATOM     18  C   UNL     1       0.025  -2.071  -1.207  0.00  0.00    +0.000 A 
ATOM     19  C   UNL     1       0.040  -2.768  -0.013  0.00  0.00    +0.000 A 
ATOM     20  C   UNL     1       0.037  -2.084   1.188  0.00  0.00    +0.007 A 
ATOM     21  C   UNL     1       0.023  -0.702   1.195  0.00  0.00    -0.010 A 
ENDBRANCH  14  21
BRANCH  14  22
ATOM     22  C   UNL     1      -1.358   0.374   2.884  0.00  0.00    +0.090 C 
ATOM     23  N   UNL     1      -2.426   0.628   3.177  0.00  0.00    -0.194 NA
ENDBRANCH  14  22
ENDBRANCH   1  14
TORSDOF 4
