REMARK  Name = ZINC42610538
REMARK  4 active torsions:
REMARK  status: ('A' for Active; 'I' for Inactive)
REMARK    1  A    between atoms: C_1  and  C_2
REMARK    2  A    between atoms: C_8  and  N_10
REMARK    3  A    between atoms: N_10  and  C_11
REMARK    4  A    between atoms: C_12  and  C_14
REMARK                            x       y       z     vdW  Elec       q    Type
REMARK                         _______ _______ _______ _____ _____    ______ ____
ROOT
ATOM      1  N   UNL     1       0.195   0.086   2.343  0.00  0.00    -0.300 N 
ATOM      2  C   UNL     1      -1.154  -0.322   2.743  0.00  0.00    +0.132 C 
ATOM      3  C   UNL     1       0.883   0.966   3.096  0.00  0.00    +0.236 C 
ATOM      4  O   UNL     1       2.000   1.305   2.765  0.00  0.00    -0.274 OA
ENDROOT
BRANCH   3   5
ATOM      5  C   UNL     1       0.266   1.530   4.350  0.00  0.00    +0.157 C 
ATOM      6  C   UNL     1      -0.688   2.677   3.989  0.00  0.00    +0.036 C 
ATOM      7  C   UNL     1      -1.353   3.186   5.267  0.00  0.00    +0.039 C 
ATOM      8  C   UNL     1      -0.317   3.490   6.316  0.00  0.00    -0.026 A 
ATOM      9  C   UNL     1      -0.646   4.344   7.356  0.00  0.00    +0.005 A 
ATOM     10  C   UNL     1       0.282   4.640   8.335  0.00  0.00    +0.000 A 
ATOM     11  C   UNL     1       1.548   4.085   8.284  0.00  0.00    +0.002 A 
ATOM     12  C   UNL     1       1.884   3.233   7.251  0.00  0.00    +0.023 A 
ATOM     13  C   UNL     1       0.952   2.935   6.263  0.00  0.00    +0.031 A 
ATOM     14  N   UNL     1       1.316   2.075   5.220  0.00  0.00    -0.333 N 
ATOM     15  H   UNL     1       2.247   1.843   5.074  0.00  0.00    +0.147 HD
ENDBRANCH   3   5
BRANCH   1  22
ATOM     16  C   UNL     1      -1.428  -0.372  -0.012  0.00  0.00    +0.009 C 
ATOM     17  C   UNL     1      -0.252  -1.276   0.361  0.00  0.00    +0.006 C 
ATOM     18  C   UNL     1      -0.750  -2.422   1.244  0.00  0.00    +0.005 C 
ATOM     19  C   UNL     1       0.427  -3.326   1.618  0.00  0.00    +0.000 C 
ATOM     20  C   UNL     1       1.474  -2.512   2.381  0.00  0.00    +0.002 C 
ATOM     21  C   UNL     1       1.972  -1.366   1.497  0.00  0.00    +0.023 C 
ATOM     22  C   UNL     1       0.795  -0.462   1.124  0.00  0.00    +0.079 C 
ENDBRANCH   1  22
TORSDOF 2
