REMARK  Name = ZINC39633767
REMARK  4 active torsions:
REMARK  status: ('A' for Active; 'I' for Inactive)
REMARK    1  A    between atoms: C_4  and  C_7
REMARK    2  A    between atoms: C_10  and  C_12
REMARK    3  A    between atoms: C_16  and  C_25
REMARK    4  A    between atoms: N_27  and  C_28
REMARK                            x       y       z     vdW  Elec       q    Type
REMARK                         _______ _______ _______ _____ _____    ______ ____
ROOT
ATOM      1  C   UNL     1       7.021  -0.759  -0.178  0.00  0.00    +0.282 C 
ATOM      2  O   UNL     1       7.700  -1.767  -0.228  0.00  0.00    -0.267 OA
ATOM      3  N   UNL     1       7.613   0.451  -0.131  0.00  0.00    -0.294 N 
ATOM      4  C   UNL     1       6.960   1.780  -0.061  0.00  0.00    +0.121 C 
ATOM      5  C   UNL     1       7.840   2.596   0.912  0.00  0.00    +0.100 C 
ATOM      6  C   UNL     1       9.220   1.919   0.856  0.00  0.00    -0.004 C 
ATOM      7  C   UNL     1       9.065   0.753  -0.131  0.00  0.00    +0.115 C 
ATOM      8  C   UNL     1       9.604   1.388   2.233  0.00  0.00    -0.010 C 
ATOM      9  C   UNL     1      11.004   0.770   2.165  0.00  0.00    -0.082 C 
ATOM     10  N   UNL     1      11.967   1.785   1.723  0.00  0.00    +0.379 N 
ATOM     11  C   UNL     1      11.644   2.223   0.360  0.00  0.00    -0.082 C 
ATOM     12  C   UNL     1      10.272   2.902   0.352  0.00  0.00    -0.010 C 
ATOM     13  H   UNL     1      11.930   2.576   2.348  0.00  0.00    -0.086 HD
ATOM     14  H   UNL     1      12.897   1.393   1.737  0.00  0.00    -0.086 HD
ENDROOT
BRANCH   1  18
ATOM     15  C   UNL     1       3.436  -0.297  -0.125  0.00  0.00    +0.136 A 
ATOM     16  C   UNL     1       3.479  -1.660  -0.185  0.00  0.00    +0.050 A 
ATOM     17  C   UNL     1       4.829  -2.027  -0.214  0.00  0.00    +0.055 A 
ATOM     18  C   UNL     1       5.559  -0.860  -0.170  0.00  0.00    +0.190 A 
ATOM     19  O   UNL     1       4.694   0.175  -0.122  0.00  0.00    -0.450 OA
BRANCH  15  23
ATOM     20  C   UNL     1      -0.092   2.062   0.011  0.00  0.00    +0.000 A 
ATOM     21  C   UNL     1       1.147   2.677   0.021  0.00  0.00    +0.001 A 
ATOM     22  C   UNL     1       2.297   1.916  -0.023  0.00  0.00    +0.011 A 
ATOM     23  C   UNL     1       2.208   0.524  -0.077  0.00  0.00    +0.017 A 
ATOM     24  C   UNL     1       0.954  -0.089  -0.086  0.00  0.00    +0.011 A 
ATOM     25  C   UNL     1      -0.188   0.683  -0.043  0.00  0.00    +0.001 A 
ENDBRANCH  15  23
ENDBRANCH   1  18
BRANCH   5  26
ATOM     26  C   UNL     1       7.277   2.531   2.308  0.00  0.00    +0.218 C 
ATOM     27  O   UNL     1       6.664   1.549   2.670  0.00  0.00    -0.275 OA
ATOM     28  N   UNL     1       7.456   3.563   3.156  0.00  0.00    -0.312 N 
ATOM     29  H   UNL     1       7.947   4.348   2.867  0.00  0.00    +0.149 HD
BRANCH  28  30
ATOM     30  C   UNL     1       6.909   3.500   4.513  0.00  0.00    +0.073 C 
ATOM     31  C   UNL     1       5.418   3.893   4.470  0.00  0.00    +0.022 C 
ATOM     32  C   UNL     1       4.746   3.353   5.703  0.00  0.00    +0.002 C 
ATOM     33  C   UNL     1       4.690   4.386   6.845  0.00  0.00    +0.000 C 
ATOM     34  C   UNL     1       6.000   5.184   6.992  0.00  0.00    +0.000 C 
ATOM     35  C   UNL     1       7.221   4.318   6.846  0.00  0.00    +0.002 C 
ATOM     36  C   UNL     1       7.689   4.374   5.377  0.00  0.00    +0.022 C 
ENDBRANCH  28  30
ENDBRANCH   5  26
TORSDOF 4
