REMARK  Name = ZINC40826574
REMARK  11 active torsions:
REMARK  status: ('A' for Active; 'I' for Inactive)
REMARK    1  A    between atoms: C_1  and  C_2
REMARK    2  A    between atoms: C_2  and  C_3
REMARK    3  A    between atoms: C_3  and  C_5
REMARK    4  A    between atoms: C_3  and  N_6
REMARK    5  A    between atoms: C_7  and  C_9
REMARK    6  A    between atoms: C_10  and  C_34
REMARK    7  A    between atoms: N_18  and  N_19
REMARK    8  A    between atoms: C_20  and  C_22
REMARK    9  A    between atoms: C_22  and  C_23
REMARK   10  A    between atoms: C_30  and  C_33
REMARK   11  A    between atoms: C_31  and  C_32
REMARK                            x       y       z     vdW  Elec       q    Type
REMARK                         _______ _______ _______ _____ _____    ______ ____
ROOT
ATOM      1  C   UNL     1       4.233   0.459  -2.305  0.00  0.00    +0.193 A 
ATOM      2  C   UNL     1       5.048   0.643  -3.387  0.00  0.00    +0.009 A 
ATOM      3  C   UNL     1       6.295   1.024  -2.878  0.00  0.00    +0.042 A 
ATOM      4  C   UNL     1       6.189   1.055  -1.507  0.00  0.00    +0.115 A 
ATOM      5  O   UNL     1       4.942   0.720  -1.184  0.00  0.00    -0.454 OA
ATOM      6  C   UNL     1       7.339   1.420  -0.604  0.00  0.00    +0.075 C 
ATOM      7  C   UNL     1       8.658   1.230  -1.358  0.00  0.00    +0.014 C 
ATOM      8  C   UNL     1       8.632   1.985  -2.691  0.00  0.00    +0.058 C 
ATOM      9  C   UNL     1       7.559   1.359  -3.571  0.00  0.00    +0.070 C 
ATOM     10  N   UNL     1       7.739   1.135  -4.836  0.00  0.00    -0.184 NA
ATOM     11  C   UNL     1       4.678   0.470  -4.838  0.00  0.00    +0.048 C 
ENDROOT
BRANCH   1  13
ATOM     12  N   UNL     1       2.125  -0.091  -1.209  0.00  0.00    -0.306 N 
ATOM     13  C   UNL     1       2.824   0.051  -2.353  0.00  0.00    +0.280 C 
ATOM     14  O   UNL     1       2.287  -0.157  -3.425  0.00  0.00    -0.267 OA
ATOM     15  H   UNL     1       2.553   0.075  -0.355  0.00  0.00    +0.149 HD
BRANCH  12  16
ATOM     16  C   UNL     1       0.718  -0.497  -1.257  0.00  0.00    +0.070 C 
ATOM     17  C   UNL     1       0.630  -2.023  -1.329  0.00  0.00    +0.028 C 
BRANCH  16  19
ATOM     18  C   UNL     1      -0.019   1.526   0.010  0.00  0.00    +0.005 C 
ATOM     19  C   UNL     1       0.002  -0.004   0.002  0.00  0.00    +0.018 C 
ENDBRANCH  16  19
ENDBRANCH  12  16
ENDBRANCH   1  13
BRANCH  10  20
ATOM     20  N   UNL     1       8.958   1.473  -5.440  0.00  0.00    -0.206 N 
ATOM     21  C   UNL     1       9.145   1.240  -6.754  0.00  0.00    +0.237 C 
ATOM     22  O   UNL     1       8.259   0.738  -7.414  0.00  0.00    -0.274 OA
ATOM     23  H   UNL     1       9.666   1.874  -4.912  0.00  0.00    +0.177 HD
BRANCH  21  24
ATOM     24  C   UNL     1      10.456   1.603  -7.404  0.00  0.00    +0.136 C 
BRANCH  24  25
ATOM     25  C   UNL     1      10.408   1.243  -8.867  0.00  0.00    +0.007 A 
ATOM     26  C   UNL     1      10.845   0.109  -9.431  0.00  0.00    +0.200 A 
ATOM     27  O   UNL     1      10.636   0.142 -10.759  0.00  0.00    -0.462 OA
ATOM     28  C   UNL     1      10.052   1.301 -11.125  0.00  0.00    +0.138 A 
ATOM     29  C   UNL     1       9.867   2.062  -9.959  0.00  0.00    +0.024 A 
ATOM     30  C   UNL     1       9.272   3.320 -10.030  0.00  0.00    +0.012 A 
ATOM     31  C   UNL     1       8.864   3.812 -11.251  0.00  0.00    +0.004 A 
ATOM     32  C   UNL     1       9.043   3.059 -12.403  0.00  0.00    -0.044 A 
ATOM     33  C   UNL     1       9.637   1.817 -12.346  0.00  0.00    -0.005 A 
ATOM     34  C   UNL     1       9.822   1.012 -13.607  0.00  0.00    +0.048 C 
ATOM     35  C   UNL     1       8.591   3.610 -13.731  0.00  0.00    +0.044 C 
ENDBRANCH  24  25
ENDBRANCH  21  24
ENDBRANCH  10  20
TORSDOF 6
