REMARK  Name = ZINC65946171
REMARK  4 active torsions:
REMARK  status: ('A' for Active; 'I' for Inactive)
REMARK    1  A    between atoms: C_3  and  N_22
REMARK    2  A    between atoms: C_6  and  N_7
REMARK    3  A    between atoms: C_10  and  C_13
REMARK    4  A    between atoms: N_15  and  C_16
REMARK                            x       y       z     vdW  Elec       q    Type
REMARK                         _______ _______ _______ _____ _____    ______ ____
ROOT
ATOM      1  N   UNL     1      -1.197  -0.720   0.010  0.00  0.00    -0.330 N 
ATOM      2  C   UNL     1      -2.485  -0.023   0.131  0.00  0.00    +0.106 C 
ATOM      3  C   UNL     1      -3.268  -0.633   1.297  0.00  0.00    +0.031 C 
ATOM      4  C   UNL     1      -3.389  -2.145   1.091  0.00  0.00    +0.078 C 
ATOM      5  C   UNL     1      -1.992  -2.771   1.067  0.00  0.00    +0.031 C 
ATOM      6  C   UNL     1      -1.195  -2.185  -0.108  0.00  0.00    +0.106 C 
ENDROOT
BRANCH   1  12
ATOM      7  C   UNL     1      -0.017   1.385  -0.007  0.00  0.00    +0.025 A 
ATOM      8  C   UNL     1       1.171   2.090  -0.014  0.00  0.00    +0.034 A 
ATOM      9  C   UNL     1       2.377   1.415  -0.013  0.00  0.00    +0.126 A 
ATOM     10  C   UNL     1       2.400   0.032  -0.005  0.00  0.00    +0.034 A 
ATOM     11  C   UNL     1       1.216  -0.679   0.002  0.00  0.00    +0.025 A 
ATOM     12  C   UNL     1       0.002  -0.004   0.002  0.00  0.00    +0.030 A 
BRANCH   9  13
ATOM     13  N   UNL     1       3.648   2.174  -0.022  0.00  0.00    +0.056 N 
ATOM     14  O   UNL     1       3.630   3.383  -0.030  0.00  0.00    -0.126 OA
ATOM     15  O   UNL     1       4.704   1.585  -0.021  0.00  0.00    -0.126 OA
ENDBRANCH   9  13
ENDBRANCH   1  12
BRANCH   4  16
ATOM     16  C   UNL     1      -4.188  -2.743   2.219  0.00  0.00    +0.216 C 
ATOM     17  O   UNL     1      -4.619  -2.031   3.102  0.00  0.00    -0.276 OA
ATOM     18  N   UNL     1      -4.425  -4.070   2.248  0.00  0.00    -0.312 N 
ATOM     19  H   UNL     1      -4.080  -4.639   1.542  0.00  0.00    +0.149 HD
BRANCH  18  20
ATOM     20  C   UNL     1      -5.202  -4.652   3.345  0.00  0.00    +0.073 C 
ATOM     21  C   UNL     1      -6.694  -4.541   3.027  0.00  0.00    +0.022 C 
ATOM     22  C   UNL     1      -7.506  -5.149   4.173  0.00  0.00    +0.002 C 
ATOM     23  C   UNL     1      -7.128  -6.622   4.340  0.00  0.00    +0.000 C 
ATOM     24  C   UNL     1      -5.635  -6.733   4.658  0.00  0.00    +0.002 C 
ATOM     25  C   UNL     1      -4.824  -6.125   3.513  0.00  0.00    +0.022 C 
ENDBRANCH  18  20
ENDBRANCH   4  16
TORSDOF 4
