REMARK  Name = ZINC03282327
REMARK  5 active torsions:
REMARK  status: ('A' for Active; 'I' for Inactive)
REMARK    1  A    between atoms: C_1  and  C_2
REMARK    2  A    between atoms: C_5  and  O_25
REMARK    3  A    between atoms: C_10  and  C_11
REMARK    4  A    between atoms: C_16  and  C_19
REMARK    5  A    between atoms: O_25  and  C_26
REMARK                            x       y       z     vdW  Elec       q    Type
REMARK                         _______ _______ _______ _____ _____    ______ ____
ROOT
ATOM      1  C   UNL     1       5.979   0.936  -0.049  0.00  0.00    +0.285 C 
ATOM      2  O   UNL     1       6.662  -0.070  -0.060  0.00  0.00    -0.266 OA
ATOM      3  N   UNL     1       6.566   2.150  -0.049  0.00  0.00    -0.258 N 
ATOM      4  C   UNL     1       7.950   2.251  -0.061  0.00  0.00    +0.165 A 
ATOM      5  N   UNL     1       8.707   3.333  -0.064  0.00  0.00    -0.224 NA
ATOM      6  C   UNL     1      10.035   3.243  -0.077  0.00  0.00    +0.087 A 
ATOM      7  C   UNL     1      10.621   2.007  -0.088  0.00  0.00    +0.077 A 
ATOM      8  S   UNL     1       9.178   0.953  -0.071  0.00  0.00    -0.060 S 
ATOM      9  H   UNL     1       6.021   2.952  -0.040  0.00  0.00    +0.157 HD
ENDROOT
BRANCH   1  19
ATOM     10  C   UNL     1       4.382  -1.732  -0.048  0.00  0.00    +0.048 C 
ATOM     11  C   UNL     1       3.815  -0.336  -0.036  0.00  0.00    +0.008 A 
ATOM     12  C   UNL     1       2.402   0.039  -0.021  0.00  0.00    +0.027 A 
ATOM     13  C   UNL     1       1.205  -0.682  -0.013  0.00  0.00    +0.057 A 
ATOM     14  C   UNL     1       0.002  -0.004   0.002  0.00  0.00    +0.121 A 
ATOM     15  C   UNL     1      -0.017   1.389   0.010  0.00  0.00    +0.049 A 
ATOM     16  C   UNL     1       1.158   2.108   0.002  0.00  0.00    +0.050 A 
ATOM     17  C   UNL     1       2.380   1.446  -0.013  0.00  0.00    +0.136 A 
ATOM     18  O   UNL     1       3.659   1.873  -0.022  0.00  0.00    -0.450 OA
ATOM     19  C   UNL     1       4.514   0.829  -0.036  0.00  0.00    +0.194 A 
BRANCH  14  20
ATOM     20  O   UNL     1      -1.167  -0.698   0.010  0.00  0.00    -0.495 OA
ATOM     21  C   UNL     1      -2.375   0.066   0.026  0.00  0.00    +0.277 C 
ENDBRANCH  14  20
ENDBRANCH   1  19
BRANCH   6  22
ATOM     22  C   UNL     1      10.867   4.466  -0.078  0.00  0.00    +0.040 A 
ATOM     23  C   UNL     1      10.473   5.777  -0.074  0.00  0.00    +0.019 A 
ATOM     24  C   UNL     1      11.441   6.760  -0.073  0.00  0.00    +0.028 A 
ATOM     25  C   UNL     1      12.749   6.398  -0.087  0.00  0.00    +0.079 A 
ATOM     26  S   UNL     1      12.646   4.616  -0.094  0.00  0.00    -0.075 S 
ATOM     27 CL   UNL     1      14.161   7.409  -0.096  0.00  0.00    -0.076 Cl
ENDBRANCH   6  22
TORSDOF 3
