REMARK  Name = ZINC45643654
REMARK  10 active torsions:
REMARK  status: ('A' for Active; 'I' for Inactive)
REMARK    1  A    between atoms: C_1  and  C_2
REMARK    2  A    between atoms: C_2  and  N_3
REMARK    3  A    between atoms: C_5  and  C_14
REMARK    4  A    between atoms: C_14  and  N_15
REMARK    5  A    between atoms: N_15  and  C_16
REMARK    6  A    between atoms: N_15  and  C_17
REMARK    7  A    between atoms: C_17  and  C_18
REMARK    8  A    between atoms: N_20  and  C_21
REMARK    9  A    between atoms: C_24  and  O_27
REMARK   10  A    between atoms: O_27  and  C_28
REMARK                            x       y       z     vdW  Elec       q    Type
REMARK                         _______ _______ _______ _____ _____    ______ ____
ROOT
ATOM      1  N   UNL     1       0.208  -3.621  -4.898  0.00  0.00    +0.386 N 
ATOM      2  C   UNL     1      -0.232  -4.685  -3.986  0.00  0.00    -0.095 C 
ATOM      3  H   UNL     1       1.214  -3.634  -4.970  0.00  0.00    -0.081 HD
ENDROOT
BRANCH   1   4
ATOM      4  C   UNL     1      -0.229  -2.319  -4.379  0.00  0.00    -0.032 C 
BRANCH   4   7
ATOM      5  N   UNL     1       0.676  -0.479  -1.200  0.00  0.00    -0.324 N 
ATOM      6  C   UNL     1      -0.066  -0.734  -2.446  0.00  0.00    +0.147 C 
ATOM      7  C   UNL     1       0.481  -2.034  -3.054  0.00  0.00    +0.174 C 
ATOM      8  O   UNL     1       1.884  -1.882  -3.282  0.00  0.00    -0.487 OA
ATOM      9  C   UNL     1       2.643  -1.405  -2.260  0.00  0.00    +0.142 A 
ATOM     10  C   UNL     1       2.064  -0.694  -1.211  0.00  0.00    +0.072 A 
ATOM     11  C   UNL     1       2.851  -0.204  -0.181  0.00  0.00    +0.027 A 
ATOM     12  C   UNL     1       4.217  -0.420  -0.195  0.00  0.00    +0.002 A 
ATOM     13  C   UNL     1       4.796  -1.123  -1.235  0.00  0.00    +0.004 A 
ATOM     14  C   UNL     1       4.012  -1.623  -2.264  0.00  0.00    +0.047 A 
BRANCH   5  16
ATOM     15  C   UNL     1      -0.039   1.516   0.019  0.00  0.00    +0.024 C 
ATOM     16  C   UNL     1      -0.008  -0.013   0.009  0.00  0.00    +0.102 C 
ENDBRANCH   5  16
ENDBRANCH   4   7
ENDBRANCH   1   4
BRANCH   1  17
ATOM     17  C   UNL     1      -0.381  -3.841  -6.226  0.00  0.00    +0.019 C 
BRANCH  17  18
ATOM     18  C   UNL     1       0.163  -5.119  -6.812  0.00  0.00    +0.201 C 
ATOM     19  O   UNL     1       0.963  -5.781  -6.184  0.00  0.00    -0.278 OA
ATOM     20  N   UNL     1      -0.238  -5.526  -8.032  0.00  0.00    -0.287 N 
ATOM     21  H   UNL     1      -0.927  -5.033  -8.505  0.00  0.00    +0.155 HD
BRANCH  20  22
ATOM     22  C   UNL     1       0.339  -6.660  -8.617  0.00  0.00    +0.034 A 
ATOM     23  C   UNL     1       0.542  -6.707  -9.990  0.00  0.00    +0.027 A 
ATOM     24  C   UNL     1       1.111  -7.825 -10.566  0.00  0.00    +0.047 A 
ATOM     25  C   UNL     1       1.480  -8.902  -9.774  0.00  0.00    +0.127 A 
ATOM     26  C   UNL     1       1.276  -8.857  -8.403  0.00  0.00    +0.047 A 
ATOM     27  C   UNL     1       0.713  -7.737  -7.824  0.00  0.00    +0.027 A 
BRANCH  25  28
ATOM     28  O   UNL     1       2.040 -10.003 -10.342  0.00  0.00    -0.434 OA
BRANCH  28  29
ATOM     29  C   UNL     1       2.395 -11.076  -9.467  0.00  0.00    +0.541 C 
ATOM     30  F   UNL     1       3.327 -10.622  -8.527  0.00  0.00    -0.166 F 
ATOM     31  F   UNL     1       1.251 -11.535  -8.804  0.00  0.00    -0.166 F 
ENDBRANCH  28  29
ENDBRANCH  25  28
ENDBRANCH  20  22
ENDBRANCH  17  18
ENDBRANCH   1  17
TORSDOF 8
