REMARK  Name = ZINC36029012
REMARK  10 active torsions:
REMARK  status: ('A' for Active; 'I' for Inactive)
REMARK    1  A    between atoms: C_1  and  C_2
REMARK    2  A    between atoms: C_2  and  C_3
REMARK    3  A    between atoms: C_3  and  C_5
REMARK    4  A    between atoms: C_3  and  C_6
REMARK    5  A    between atoms: N_10  and  C_28
REMARK    6  A    between atoms: N_15  and  C_18
REMARK    7  A    between atoms: C_18  and  N_20
REMARK    8  A    between atoms: N_20  and  C_21
REMARK    9  A    between atoms: C_25  and  C_27
REMARK   10  A    between atoms: C_28  and  C_29
REMARK                            x       y       z     vdW  Elec       q    Type
REMARK                         _______ _______ _______ _____ _____    ______ ____
ROOT
ATOM      1  C   UNL     1      -1.466  -2.045   0.148  0.00  0.00    +0.022 C 
ATOM      2  C   UNL     1      -0.523  -2.626  -0.884  0.00  0.00    +0.201 C 
ATOM      3  O   UNL     1       0.600  -2.233  -1.118  0.00  0.00    -0.277 OA
ATOM      4  N   UNL     1      -1.144  -3.654  -1.500  0.00  0.00    -0.309 N 
ATOM      5  C   UNL     1      -2.486  -3.824  -0.936  0.00  0.00    +0.006 C 
ATOM      6  N   UNL     1      -2.804  -2.567  -0.222  0.00  0.00    +0.401 N 
ATOM      7  C   UNL     1      -3.502  -4.056  -2.052  0.00  0.00    +0.025 C 
ATOM      8  C   UNL     1      -3.143  -5.339  -2.808  0.00  0.00    +0.107 C 
ATOM      9  N   UNL     1      -3.031  -6.441  -1.842  0.00  0.00    -0.312 N 
ATOM     10  C   UNL     1      -2.133  -6.283  -0.690  0.00  0.00    +0.107 C 
ATOM     11  C   UNL     1      -2.501  -4.992   0.048  0.00  0.00    +0.025 C 
ATOM     12  H   UNL     1      -3.354  -2.754   0.603  0.00  0.00    -0.082 HD
ATOM     13  H   UNL     1      -3.282  -1.922  -0.833  0.00  0.00    -0.082 HD
ENDROOT
BRANCH   1  14
ATOM     14  C   UNL     1      -1.453  -0.517   0.081  0.00  0.00    -0.020 C 
ATOM     15  C   UNL     1      -1.827  -0.065  -1.333  0.00  0.00    +0.006 C 
BRANCH  14  17
ATOM     16  C   UNL     1      -0.073   1.526   0.483  0.00  0.00    +0.004 C 
ATOM     17  C   UNL     1      -0.055  -0.002   0.428  0.00  0.00    -0.001 C 
ENDBRANCH  14  17
ENDBRANCH   1  14
BRANCH   9  18
ATOM     18  C   UNL     1      -3.739  -7.575  -2.010  0.00  0.00    +0.137 C 
ATOM     19  S   UNL     1      -4.687  -7.793  -3.420  0.00  0.00    -0.018 S 
BRANCH  18  20
ATOM     20  N   UNL     1      -3.701  -8.539  -1.069  0.00  0.00    -0.297 N 
ATOM     21  H   UNL     1      -4.483  -8.713  -0.521  0.00  0.00    +0.154 HD
BRANCH  20  22
ATOM     22  C   UNL     1      -2.535  -9.288  -0.881  0.00  0.00    +0.033 A 
ATOM     23  C   UNL     1      -1.457  -9.124  -1.741  0.00  0.00    +0.023 A 
ATOM     24  C   UNL     1      -0.307  -9.865  -1.553  0.00  0.00    +0.002 A 
ATOM     25  C   UNL     1      -0.228 -10.769  -0.510  0.00  0.00    +0.003 A 
ATOM     26  C   UNL     1      -1.299 -10.935   0.348  0.00  0.00    -0.049 A 
ATOM     27  C   UNL     1      -2.450 -10.193   0.169  0.00  0.00    +0.026 A 
ATOM     28  C   UNL     1      -1.208 -11.921   1.484  0.00  0.00    +0.044 C 
ENDBRANCH  20  22
ENDBRANCH  18  20
ENDBRANCH   9  18
BRANCH   4  29
ATOM     29  C   UNL     1      -0.565  -4.473  -2.567  0.00  0.00    +0.141 C 
BRANCH  29  30
ATOM     30  C   UNL     1      -0.629  -3.719  -3.870  0.00  0.00    -0.026 A 
ATOM     31  C   UNL     1      -1.837  -3.579  -4.528  0.00  0.00    +0.009 A 
ATOM     32  C   UNL     1      -1.901  -2.887  -5.723  0.00  0.00    +0.050 A 
ATOM     33  C   UNL     1      -0.753  -2.333  -6.266  0.00  0.00    +0.166 A 
ATOM     34  C   UNL     1       0.464  -2.474  -5.604  0.00  0.00    +0.167 A 
ATOM     35  C   UNL     1       0.519  -3.164  -4.403  0.00  0.00    +0.054 A 
ATOM     36  O   UNL     1       1.433  -1.847  -6.333  0.00  0.00    -0.453 OA
ATOM     37  C   UNL     1       0.872  -1.673  -7.647  0.00  0.00    +0.466 C 
ATOM     38  O   UNL     1      -0.547  -1.617  -7.409  0.00  0.00    -0.453 OA
ENDBRANCH  29  30
ENDBRANCH   4  29
TORSDOF 7
