REMARK  Name = ZINC20709624
REMARK  4 active torsions:
REMARK  status: ('A' for Active; 'I' for Inactive)
REMARK    1  A    between atoms: C_1  and  C_2
REMARK    2  A    between atoms: C_9  and  C_18
REMARK    3  A    between atoms: C_20  and  N_25
REMARK    4  A    between atoms: C_23  and  O_24
REMARK                            x       y       z     vdW  Elec       q    Type
REMARK                         _______ _______ _______ _____ _____    ______ ____
ROOT
ATOM      1  C   UNL     1      -0.876  -0.742   0.122  0.00  0.00    +0.045 C 
ATOM      2  C   UNL     1       0.337   0.151   0.079  0.00  0.00    -0.029 A 
ATOM      3  C   UNL     1       1.599  -0.406   0.069  0.00  0.00    +0.006 A 
ATOM      4  C   UNL     1       2.712   0.413   0.028  0.00  0.00    +0.020 A 
ATOM      5  C   UNL     1       2.558   1.786  -0.002  0.00  0.00    +0.046 A 
ATOM      6  C   UNL     1       1.291   2.356   0.007  0.00  0.00    -0.001 A 
ATOM      7  C   UNL     1       0.179   1.536   0.048  0.00  0.00    +0.036 A 
ATOM      8  N   UNL     1      -1.119   2.046   0.067  0.00  0.00    -0.336 N 
ATOM      9  C   UNL     1      -1.196   3.346  -0.607  0.00  0.00    +0.108 C 
ATOM     10  C   UNL     1      -0.262   4.335   0.072  0.00  0.00    +0.029 C 
ATOM     11  C   UNL     1       1.201   3.859  -0.032  0.00  0.00    +0.050 C 
ATOM     12  C   UNL     1       1.834   4.400   1.240  0.00  0.00    -0.023 C 
ATOM     13  C   UNL     1       0.917   4.640   2.143  0.00  0.00    -0.030 C 
ATOM     14  C   UNL     1      -0.460   4.295   1.607  0.00  0.00    +0.033 C 
ATOM     15 CL   UNL     1       3.961   2.808  -0.052  0.00  0.00    -0.083 Cl
ATOM     16  H   UNL     1      -2.024   1.601   0.507  0.00  0.00    +0.147 HD
ENDROOT
BRANCH   9  17
ATOM     17  C   UNL     1      -0.793   3.188  -2.051  0.00  0.00    +0.017 A 
ATOM     18  C   UNL     1       0.079   4.091  -2.628  0.00  0.00    +0.041 A 
ATOM     19  C   UNL     1       0.453   3.944  -3.950  0.00  0.00    +0.127 A 
ATOM     20  C   UNL     1      -0.053   2.900  -4.703  0.00  0.00    +0.036 A 
ATOM     21  C   UNL     1      -0.930   1.998  -4.132  0.00  0.00    +0.048 A 
ATOM     22  C   UNL     1      -1.302   2.140  -2.803  0.00  0.00    +0.122 A 
BRANCH  19  23
ATOM     23  N   UNL     1       1.393   4.909  -4.564  0.00  0.00    +0.056 N 
ATOM     24  O   UNL     1       1.719   4.783  -5.731  0.00  0.00    -0.126 OA
ATOM     25  O   UNL     1       1.839   5.829  -3.903  0.00  0.00    -0.126 OA
ENDBRANCH  19  23
BRANCH  22  26
ATOM     26  O   UNL     1      -2.164   1.254  -2.239  0.00  0.00    -0.506 OA
ATOM     27  H   UNL     1      -2.568   0.423  -2.837  0.00  0.00    +0.292 HD
ENDBRANCH  22  26
ENDBRANCH   9  17
TORSDOF 3
