REMARK  Name = ZINC36598989
REMARK  15 active torsions:
REMARK  status: ('A' for Active; 'I' for Inactive)
REMARK    1  A    between atoms: C_1  and  C_2
REMARK    2  A    between atoms: C_5  and  C_7
REMARK    3  A    between atoms: C_7  and  N_8
REMARK    4  A    between atoms: N_8  and  C_9
REMARK    5  A    between atoms: C_9  and  C_11
REMARK    6  A    between atoms: C_9  and  C_20
REMARK    7  A    between atoms: C_14  and  O_19
REMARK    8  A    between atoms: C_15  and  O_17
REMARK    9  A    between atoms: O_17  and  C_18
REMARK   10  A    between atoms: N_22  and  C_23
REMARK   11  A    between atoms: C_23  and  C_24
REMARK   12  A    between atoms: C_23  and  C_25
REMARK   13  A    between atoms: C_23  and  C_26
REMARK   14  A    between atoms: C_27  and  C_29
REMARK   15  A    between atoms: C_29  and  C_30
REMARK                            x       y       z     vdW  Elec       q    Type
REMARK                         _______ _______ _______ _____ _____    ______ ____
ROOT
ATOM      1  N   UNL     1       1.940  -3.730  -1.343  0.00  0.00    -0.278 N 
ATOM      2  C   UNL     1       1.523  -4.991  -1.572  0.00  0.00    +0.221 C 
ATOM      3  O   UNL     1       2.138  -5.704  -2.336  0.00  0.00    -0.275 OA
ENDROOT
BRANCH   1   4
ATOM      4  C   UNL     1       1.197  -2.869  -0.420  0.00  0.00    +0.183 C 
BRANCH   4   9
ATOM      5  C   UNL     1      -1.394   0.680  -2.898  0.00  0.00    +0.086 C 
ATOM      6  C   UNL     1      -1.040  -0.630  -2.243  0.00  0.00    +0.102 A 
ATOM      7  C   UNL     1      -1.834  -1.714  -2.170  0.00  0.00    +0.045 A 
ATOM      8  C   UNL     1      -1.108  -2.708  -1.476  0.00  0.00    +0.046 A 
ATOM      9  C   UNL     1       0.087  -2.174  -1.166  0.00  0.00    +0.122 A 
ATOM     10  O   UNL     1       0.125  -0.917  -1.638  0.00  0.00    -0.463 OA
ENDBRANCH   4   9
ENDBRANCH   1   4
BRANCH   1  11
ATOM     11  C   UNL     1       3.138  -3.221  -2.016  0.00  0.00    +0.193 C 
BRANCH  11  12
ATOM     12  C   UNL     1       4.367  -3.760  -1.331  0.00  0.00    -0.015 A 
ATOM     13  C   UNL     1       4.450  -3.743   0.049  0.00  0.00    +0.010 A 
ATOM     14  C   UNL     1       5.575  -4.236   0.683  0.00  0.00    +0.049 A 
ATOM     15  C   UNL     1       6.623  -4.748  -0.065  0.00  0.00    +0.158 A 
ATOM     16  C   UNL     1       6.540  -4.765  -1.454  0.00  0.00    +0.162 A 
ATOM     17  C   UNL     1       5.407  -4.274  -2.083  0.00  0.00    +0.055 A 
BRANCH  16  18
ATOM     18  O   UNL     1       7.566  -5.266  -2.192  0.00  0.00    -0.491 OA
ATOM     19  C   UNL     1       7.410  -5.252  -3.613  0.00  0.00    +0.277 C 
ENDBRANCH  16  18
BRANCH  15  20
ATOM     20  O   UNL     1       7.731  -5.233   0.557  0.00  0.00    -0.503 OA
ATOM     21  H   UNL     1       7.683  -6.175   0.769  0.00  0.00    +0.292 HD
ENDBRANCH  15  20
ENDBRANCH  11  12
BRANCH  11  22
ATOM     22  C   UNL     1       3.147  -1.716  -1.955  0.00  0.00    +0.238 C 
ATOM     23  O   UNL     1       2.274  -1.128  -1.352  0.00  0.00    -0.273 OA
ATOM     24  N   UNL     1       4.125  -1.022  -2.570  0.00  0.00    -0.309 N 
ATOM     25  H   UNL     1       4.823  -1.492  -3.052  0.00  0.00    +0.149 HD
BRANCH  24  26
ATOM     26  C   UNL     1       4.134   0.442  -2.510  0.00  0.00    +0.026 C 
ATOM     27  C   UNL     1       4.223   0.892  -1.050  0.00  0.00    +0.031 C 
ATOM     28  C   UNL     1       5.341   0.976  -3.283  0.00  0.00    +0.031 C 
ATOM     29  C   UNL     1       2.847   0.986  -3.134  0.00  0.00    +0.031 C 
ENDBRANCH  24  26
ENDBRANCH  11  22
ENDBRANCH   1  11
BRANCH   2  30
ATOM     30  C   UNL     1       0.291  -5.514  -0.879  0.00  0.00    +0.131 C 
BRANCH  30  31
ATOM     31  C   UNL     1       0.043  -6.939  -1.304  0.00  0.00    -0.035 A 
ATOM     32  C   UNL     1      -0.743  -7.201  -2.411  0.00  0.00    +0.008 A 
ATOM     33  C   UNL     1      -0.974  -8.506  -2.805  0.00  0.00    +0.050 A 
ATOM     34  C   UNL     1      -0.417  -9.555  -2.091  0.00  0.00    +0.166 A 
ATOM     35  C   UNL     1       0.374  -9.290  -0.976  0.00  0.00    +0.166 A 
ATOM     36  C   UNL     1       0.606  -7.980  -0.590  0.00  0.00    +0.053 A 
ATOM     37  O   UNL     1       0.799 -10.477  -0.451  0.00  0.00    -0.453 OA
ATOM     38  C   UNL     1      -0.071 -11.478  -1.011  0.00  0.00    +0.466 C 
ATOM     39  O   UNL     1      -0.488 -10.906  -2.265  0.00  0.00    -0.453 OA
ENDBRANCH  30  31
ENDBRANCH   2  30
TORSDOF 10
