REMARK  Name = ZINC10243687
REMARK  8 active torsions:
REMARK  status: ('A' for Active; 'I' for Inactive)
REMARK    1  A    between atoms: C_1  and  C_2
REMARK    2  A    between atoms: C_7  and  N_8
REMARK    3  A    between atoms: C_22  and  S_23
REMARK    4  A    between atoms: S_23  and  C_24
REMARK    5  A    between atoms: C_24  and  C_25
REMARK    6  A    between atoms: N_27  and  C_28
REMARK    7  A    between atoms: C_32  and  C_35
REMARK    8  A    between atoms: C_33  and  C_34
REMARK                            x       y       z     vdW  Elec       q    Type
REMARK                         _______ _______ _______ _____ _____    ______ ____
ROOT
ATOM      1  N   UNL     1      -0.749   3.639  -0.007  0.00  0.00    -0.254 N 
ATOM      2  C   UNL     1      -1.063   2.326  -0.017  0.00  0.00    +0.283 A 
ATOM      3  O   UNL     1      -2.228   1.964  -0.007  0.00  0.00    -0.265 OA
ATOM      4  C   UNL     1      -0.016   1.381  -0.043  0.00  0.00    +0.132 A 
ATOM      5  C   UNL     1       1.299   1.845  -0.048  0.00  0.00    +0.104 A 
ATOM      6  C   UNL     1       2.161   0.655  -0.071  0.00  0.00    +0.026 A 
ATOM      7  C   UNL     1       3.544   0.470  -0.085  0.00  0.00    +0.012 A 
ATOM      8  C   UNL     1       4.062  -0.794  -0.106  0.00  0.00    +0.001 A 
ATOM      9  C   UNL     1       3.221  -1.899  -0.114  0.00  0.00    +0.002 A 
ATOM     10  C   UNL     1       1.854  -1.739  -0.100  0.00  0.00    +0.026 A 
ATOM     11  C   UNL     1       1.304  -0.459  -0.079  0.00  0.00    +0.049 A 
ATOM     12  N   UNL     1       0.003  -0.004  -0.062  0.00  0.00    -0.349 N 
ATOM     13  H   UNL     1      -0.784  -0.571  -0.063  0.00  0.00    +0.166 HD
ATOM     14  N   UNL     1       1.542   3.166  -0.032  0.00  0.00    -0.221 NA
ATOM     15  C   UNL     1       0.558   4.036  -0.013  0.00  0.00    +0.177 A 
ENDROOT
BRANCH   1  22
ATOM     16  C   UNL     1      -1.708   4.527   2.522  0.00  0.00    +0.046 C 
ATOM     17  C   UNL     1      -2.265   5.060   1.227  0.00  0.00    -0.026 A 
ATOM     18  C   UNL     1      -3.271   6.007   1.245  0.00  0.00    +0.005 A 
ATOM     19  C   UNL     1      -3.783   6.496   0.058  0.00  0.00    +0.000 A 
ATOM     20  C   UNL     1      -3.291   6.039  -1.151  0.00  0.00    +0.002 A 
ATOM     21  C   UNL     1      -2.282   5.096  -1.176  0.00  0.00    +0.026 A 
ATOM     22  C   UNL     1      -1.769   4.599   0.015  0.00  0.00    +0.055 A 
ENDBRANCH   1  22
BRANCH  15  23
ATOM     23  S   UNL     1       0.934   5.758   0.007  0.00  0.00    -0.078 S 
BRANCH  23  24
ATOM     24  C   UNL     1       2.742   5.685  -0.009  0.00  0.00    +0.173 C 
BRANCH  24  25
ATOM     25  C   UNL     1       3.301   7.085   0.005  0.00  0.00    +0.227 C 
ATOM     26  O   UNL     1       2.551   8.037   0.024  0.00  0.00    -0.275 OA
ATOM     27  N   UNL     1       4.635   7.277  -0.003  0.00  0.00    -0.285 N 
ATOM     28  H   UNL     1       5.235   6.518   0.063  0.00  0.00    +0.155 HD
BRANCH  27  29
ATOM     29  C   UNL     1       5.154   8.573  -0.107  0.00  0.00    +0.037 A 
ATOM     30  C   UNL     1       4.402   9.578  -0.700  0.00  0.00    +0.023 A 
ATOM     31  C   UNL     1       4.917  10.856  -0.801  0.00  0.00    +0.002 A 
ATOM     32  C   UNL     1       6.180  11.134  -0.312  0.00  0.00    +0.004 A 
ATOM     33  C   UNL     1       6.931  10.135   0.280  0.00  0.00    -0.046 A 
ATOM     34  C   UNL     1       6.420   8.857   0.389  0.00  0.00    -0.026 A 
ATOM     35  C   UNL     1       7.237   7.770   1.039  0.00  0.00    +0.046 C 
ATOM     36  C   UNL     1       8.308  10.443   0.811  0.00  0.00    +0.044 C 
ENDBRANCH  27  29
ENDBRANCH  24  25
ENDBRANCH  23  24
ENDBRANCH  15  23
TORSDOF 5
