REMARK  Name = ZINC66499611
REMARK  11 active torsions:
REMARK  status: ('A' for Active; 'I' for Inactive)
REMARK    1  A    between atoms: C_1  and  C_2
REMARK    2  A    between atoms: C_2  and  C_3
REMARK    3  A    between atoms: C_3  and  C_4
REMARK    4  A    between atoms: C_4  and  C_5
REMARK    5  A    between atoms: C_7  and  C_10
REMARK    6  A    between atoms: C_10  and  S_11
REMARK    7  A    between atoms: S_11  and  C_14
REMARK    8  A    between atoms: C_14  and  C_15
REMARK    9  A    between atoms: C_18  and  C_20
REMARK   10  A    between atoms: C_23  and  O_26
REMARK   11  A    between atoms: O_26  and  C_27
REMARK                            x       y       z     vdW  Elec       q    Type
REMARK                         _______ _______ _______ _____ _____    ______ ____
ROOT
ATOM      1  C   UNL     1       6.332  -5.564  -4.737  0.00  0.00    +0.224 C 
ENDROOT
BRANCH   1   2
ATOM      2  C   UNL     1       6.726  -7.009  -4.577  0.00  0.00    +0.101 A 
ATOM      3  C   UNL     1       7.349  -7.547  -3.514  0.00  0.00    +0.222 A 
ATOM      4  O   UNL     1       7.518  -8.860  -3.770  0.00  0.00    -0.443 OA
ATOM      5  C   UNL     1       6.997  -9.110  -4.984  0.00  0.00    +0.227 A 
ATOM      6  N   UNL     1       6.513  -7.990  -5.468  0.00  0.00    -0.212 NA
BRANCH   5   7
ATOM      7  C   UNL     1       6.968 -10.425  -5.656  0.00  0.00    +0.037 A 
ATOM      8  C   UNL     1       6.400 -10.550  -6.926  0.00  0.00    +0.017 A 
ATOM      9  C   UNL     1       6.375 -11.778  -7.550  0.00  0.00    +0.046 A 
ATOM     10  C   UNL     1       6.914 -12.891  -6.918  0.00  0.00    +0.120 A 
ATOM     11  C   UNL     1       7.480 -12.771  -5.656  0.00  0.00    +0.046 A 
ATOM     12  C   UNL     1       7.513 -11.546  -5.027  0.00  0.00    +0.017 A 
BRANCH  10  13
ATOM     13  O   UNL     1       6.888 -14.100  -7.537  0.00  0.00    -0.495 OA
ATOM     14  C   UNL     1       7.460 -15.203  -6.831  0.00  0.00    +0.277 C 
ENDBRANCH  10  13
ENDBRANCH   5   7
ENDBRANCH   1   2
BRANCH   1  15
ATOM     15  S   UNL     1       4.661  -5.316  -4.074  0.00  0.00    -0.018 S 
ATOM     16  O   UNL     1       4.694  -5.549  -2.673  0.00  0.00    -0.174 OA
ATOM     17  O   UNL     1       3.746  -6.051  -4.875  0.00  0.00    -0.174 OA
BRANCH  15  18
ATOM     18  C   UNL     1       4.377  -3.547  -4.356  0.00  0.00    +0.245 C 
BRANCH  18  21
ATOM     19  C   UNL     1       1.444  -2.513  -2.505  0.00  0.00    +0.227 A 
ATOM     20  N   UNL     1       2.721  -2.755  -2.613  0.00  0.00    -0.194 NA
ATOM     21  C   UNL     1       3.007  -3.172  -3.851  0.00  0.00    +0.193 A 
ATOM     22  N   UNL     1       1.909  -3.200  -4.551  0.00  0.00    -0.060 NA
ATOM     23  O   UNL     1       0.867  -2.777  -3.684  0.00  0.00    -0.338 OA
BRANCH  19  24
ATOM     24  C   UNL     1       0.739  -2.027  -1.265  0.00  0.00    +0.099 C 
BRANCH  24  25
ATOM     25  C   UNL     1       0.718  -0.497  -1.257  0.00  0.00    +0.009 C 
BRANCH  25  27
ATOM     26  C   UNL     1      -0.019   1.526   0.010  0.00  0.00    +0.004 C 
ATOM     27  C   UNL     1       0.002  -0.004   0.002  0.00  0.00    -0.003 C 
ENDBRANCH  25  27
ENDBRANCH  24  25
ENDBRANCH  19  24
ENDBRANCH  18  21
ENDBRANCH  15  18
ENDBRANCH   1  15
TORSDOF 9
