REMARK  Name = ZINC22584746
REMARK  10 active torsions:
REMARK  status: ('A' for Active; 'I' for Inactive)
REMARK    1  A    between atoms: C_4  and  C_7
REMARK    2  A    between atoms: C_7  and  C_9
REMARK    3  A    between atoms: C_7  and  N_18
REMARK    4  A    between atoms: C_9  and  C_10
REMARK    5  A    between atoms: C_10  and  C_12
REMARK    6  A    between atoms: N_21  and  C_24
REMARK    7  A    between atoms: C_24  and  C_26
REMARK    8  A    between atoms: C_24  and  C_35
REMARK    9  A    between atoms: C_26  and  C_27
REMARK   10  A    between atoms: C_27  and  C_29
REMARK                            x       y       z     vdW  Elec       q    Type
REMARK                         _______ _______ _______ _____ _____    ______ ____
ROOT
ATOM      1  N   UNL     1       1.703   1.563   2.168  0.00  0.00    +0.386 N 
ATOM      2  C   UNL     1       1.739   1.779   3.621  0.00  0.00    -0.062 C 
ATOM      3  C   UNL     1       2.969   1.081   4.208  0.00  0.00    +0.066 C 
ATOM      4  N   UNL     1       4.181   1.612   3.569  0.00  0.00    -0.299 NA
ATOM      5  C   UNL     1       4.145   1.397   2.116  0.00  0.00    +0.066 C 
ATOM      6  C   UNL     1       2.916   2.094   1.530  0.00  0.00    -0.062 C 
ATOM      7  H   UNL     1       1.671   0.478   1.986  0.00  0.00    -0.081 HD
ENDROOT
BRANCH   1   8
ATOM      8  C   UNL     1       0.495   2.154   1.578  0.00  0.00    -0.030 C 
BRANCH   8  12
ATOM      9  C   UNL     1       1.344   6.137   0.287  0.00  0.00    +0.000 A 
ATOM     10  C   UNL     1       0.715   5.252  -0.569  0.00  0.00    +0.000 A 
ATOM     11  C   UNL     1       0.441   3.963  -0.151  0.00  0.00    +0.002 A 
ATOM     12  C   UNL     1       0.795   3.559   1.122  0.00  0.00    -0.061 A 
ATOM     13  C   UNL     1       1.418   4.446   1.980  0.00  0.00    +0.002 A 
ATOM     14  C   UNL     1       1.697   5.733   1.561  0.00  0.00    +0.000 A 
ENDBRANCH   8  12
BRANCH   8  15
ATOM     15  C   UNL     1      -0.621   2.184   2.623  0.00  0.00    +0.069 C 
BRANCH  15  16
ATOM     16  C   UNL     1      -1.006   0.773   2.989  0.00  0.00    +0.162 C 
ATOM     17  O   UNL     1      -0.442  -0.163   2.464  0.00  0.00    -0.292 OA
BRANCH  16  18
ATOM     18  C   UNL     1      -2.065   0.533   3.982  0.00  0.00    +0.017 A 
ATOM     19  C   UNL     1      -2.713   1.611   4.593  0.00  0.00    +0.011 A 
ATOM     20  C   UNL     1      -3.708   1.377   5.518  0.00  0.00    +0.001 A 
ATOM     21  C   UNL     1      -4.058   0.080   5.851  0.00  0.00    +0.000 A 
ATOM     22  C   UNL     1      -3.417  -0.992   5.255  0.00  0.00    +0.001 A 
ATOM     23  C   UNL     1      -2.424  -0.775   4.323  0.00  0.00    +0.011 A 
ENDBRANCH  16  18
ENDBRANCH  15  16
ENDBRANCH   8  15
ENDBRANCH   1   8
BRANCH   4  24
ATOM     24  C   UNL     1       5.389   1.021   4.160  0.00  0.00    +0.094 C 
BRANCH  24  25
ATOM     25  C   UNL     1       5.260  -0.480   4.171  0.00  0.00    -0.030 A 
ATOM     26  C   UNL     1       4.401  -1.093   5.064  0.00  0.00    +0.005 A 
ATOM     27  C   UNL     1       4.279  -2.470   5.071  0.00  0.00    +0.000 A 
ATOM     28  C   UNL     1       5.022  -3.235   4.192  0.00  0.00    +0.000 A 
ATOM     29  C   UNL     1       5.885  -2.622   3.302  0.00  0.00    +0.000 A 
ATOM     30  C   UNL     1       6.004  -1.245   3.292  0.00  0.00    +0.005 A 
ENDBRANCH  24  25
BRANCH  24  31
ATOM     31  C   UNL     1       5.558   1.529   5.593  0.00  0.00    +0.103 C 
BRANCH  31  32
ATOM     32  C   UNL     1       5.810   3.015   5.573  0.00  0.00    +0.165 C 
ATOM     33  O   UNL     1       5.851   3.608   4.516  0.00  0.00    -0.292 OA
BRANCH  32  34
ATOM     34  C   UNL     1       6.006   3.745   6.835  0.00  0.00    +0.017 A 
ATOM     35  C   UNL     1       5.954   3.065   8.056  0.00  0.00    +0.011 A 
ATOM     36  C   UNL     1       6.145   3.755   9.235  0.00  0.00    +0.001 A 
ATOM     37  C   UNL     1       6.376   5.119   9.212  0.00  0.00    +0.000 A 
ATOM     38  C   UNL     1       6.423   5.801   8.008  0.00  0.00    +0.001 A 
ATOM     39  C   UNL     1       6.241   5.124   6.821  0.00  0.00    +0.011 A 
ENDBRANCH  32  34
ENDBRANCH  31  32
ENDBRANCH  24  31
ENDBRANCH   4  24
TORSDOF 10
