REMARK  Name = ZINC08845505
REMARK  11 active torsions:
REMARK  status: ('A' for Active; 'I' for Inactive)
REMARK    1  A    between atoms: C_1  and  C_2
REMARK    2  A    between atoms: C_2  and  C_3
REMARK    3  A    between atoms: C_2  and  C_4
REMARK    4  A    between atoms: C_4  and  C_5
REMARK    5  A    between atoms: C_5  and  O_6
REMARK    6  A    between atoms: O_6  and  C_7
REMARK    7  A    between atoms: C_11  and  C_13
REMARK    8  A    between atoms: C_16  and  C_34
REMARK    9  A    between atoms: N_23  and  C_24
REMARK   10  A    between atoms: C_24  and  C_25
REMARK   11  A    between atoms: C_39  and  O_40
REMARK                            x       y       z     vdW  Elec       q    Type
REMARK                         _______ _______ _______ _____ _____    ______ ____
ROOT
ATOM      1  C   UNL     1       0.768  -0.942   8.506  0.00  0.00    +0.142 C 
ATOM      2  C   UNL     1       0.047  -2.125   9.094  0.00  0.00    +0.035 A 
ATOM      3  C   UNL     1      -0.381  -3.446   8.928  0.00  0.00    +0.102 A 
ATOM      4  N   UNL     1      -1.018  -3.796  10.028  0.00  0.00    -0.173 NA
ATOM      5  N   UNL     1      -1.035  -2.826  10.871  0.00  0.00    -0.272 N 
ATOM      6  H   UNL     1      -1.448  -2.858  11.748  0.00  0.00    +0.189 HD
ATOM      7  C   UNL     1      -0.383  -1.745  10.350  0.00  0.00    +0.126 A 
ATOM      8  C   UNL     1       0.036  -0.359  10.588  0.00  0.00    +0.266 C 
ATOM      9  O   UNL     1      -0.189   0.270  11.604  0.00  0.00    -0.268 OA
ATOM     10  N   UNL     1       0.708   0.117   9.522  0.00  0.00    -0.281 N 
ENDROOT
BRANCH   1  15
ATOM     11  C   UNL     1       0.106  -0.152   4.871  0.00  0.00    +0.121 A 
ATOM     12  C   UNL     1      -1.189   0.342   4.929  0.00  0.00    +0.045 A 
ATOM     13  C   UNL     1      -1.845   0.418   6.142  0.00  0.00    +0.004 A 
ATOM     14  C   UNL     1      -1.211   0.002   7.299  0.00  0.00    +0.006 A 
ATOM     15  C   UNL     1       0.080  -0.490   7.244  0.00  0.00    -0.019 A 
ATOM     16  C   UNL     1       0.737  -0.574   6.032  0.00  0.00    +0.051 A 
BRANCH  11  17
ATOM     17  O   UNL     1       0.752  -0.229   3.678  0.00  0.00    -0.492 OA
BRANCH  17  18
ATOM     18  C   UNL     1       0.041   0.223   2.524  0.00  0.00    +0.229 C 
BRANCH  18  19
ATOM     19  C   UNL     1       0.923   0.061   1.285  0.00  0.00    +0.044 C 
BRANCH  19  21
ATOM     20  C   UNL     1      -0.099   2.048   0.167  0.00  0.00    +0.007 C 
ATOM     21  C   UNL     1       0.161   0.545   0.049  0.00  0.00    -0.014 C 
ATOM     22  C   UNL     1       0.994   0.268  -1.204  0.00  0.00    +0.007 C 
ENDBRANCH  19  21
ENDBRANCH  18  19
ENDBRANCH  17  18
ENDBRANCH  11  17
ENDBRANCH   1  15
BRANCH   3  23
ATOM     23  C   UNL     1      -0.159  -4.298   7.733  0.00  0.00    +0.044 A 
ATOM     24  C   UNL     1       0.641  -3.843   6.688  0.00  0.00    +0.014 A 
ATOM     25  C   UNL     1       0.844  -4.639   5.579  0.00  0.00    +0.001 A 
ATOM     26  C   UNL     1       0.256  -5.889   5.501  0.00  0.00    +0.004 A 
ATOM     27  C   UNL     1      -0.540  -6.350   6.532  0.00  0.00    +0.046 A 
ATOM     28  C   UNL     1      -0.747  -5.564   7.654  0.00  0.00    +0.126 A 
BRANCH  28  29
ATOM     29  O   UNL     1      -1.524  -6.019   8.671  0.00  0.00    -0.506 OA
ATOM     30  H   UNL     1      -2.461  -5.796   8.581  0.00  0.00    +0.292 HD
ENDBRANCH  28  29
ENDBRANCH   3  23
BRANCH  10  31
ATOM     31  C   UNL     1       1.279   1.460   9.395  0.00  0.00    +0.144 C 
BRANCH  31  32
ATOM     32  C   UNL     1       0.255   2.388   8.793  0.00  0.00    -0.026 A 
ATOM     33  C   UNL     1       0.181   2.535   7.420  0.00  0.00    +0.009 A 
ATOM     34  C   UNL     1      -0.757   3.384   6.863  0.00  0.00    +0.050 A 
ATOM     35  C   UNL     1      -1.625   4.090   7.680  0.00  0.00    +0.166 A 
ATOM     36  C   UNL     1      -1.551   3.941   9.063  0.00  0.00    +0.167 A 
ATOM     37  C   UNL     1      -0.612   3.084   9.614  0.00  0.00    +0.054 A 
ATOM     38  O   UNL     1      -2.501   4.734   9.639  0.00  0.00    -0.453 OA
ATOM     39  C   UNL     1      -2.885   5.676   8.620  0.00  0.00    +0.466 C 
ATOM     40  O   UNL     1      -2.623   4.975   7.390  0.00  0.00    -0.453 OA
ENDBRANCH  31  32
ENDBRANCH  10  31
TORSDOF 9
