REMARK  Name = ZINC56395292
REMARK  8 active torsions:
REMARK  status: ('A' for Active; 'I' for Inactive)
REMARK    1  A    between atoms: C_1  and  C_2
REMARK    2  A    between atoms: C_2  and  C_3
REMARK    3  A    between atoms: C_3  and  C_5
REMARK    4  A    between atoms: C_3  and  N_20
REMARK    5  A    between atoms: C_5  and  N_6
REMARK    6  A    between atoms: N_9  and  C_10
REMARK    7  A    between atoms: C_10  and  C_11
REMARK    8  A    between atoms: N_13  and  C_14
REMARK                            x       y       z     vdW  Elec       q    Type
REMARK                         _______ _______ _______ _____ _____    ______ ____
ROOT
ATOM      1  N   UNL     1       1.837  -2.655  -1.804  0.00  0.00    -0.301 N 
ATOM      2  C   UNL     1       2.084  -3.976  -1.703  0.00  0.00    +0.300 C 
ATOM      3  O   UNL     1       1.504  -4.641  -0.866  0.00  0.00    -0.253 OA
ATOM      4  N   UNL     1       2.974  -4.560  -2.530  0.00  0.00    -0.291 N 
ATOM      5  H   UNL     1       2.299  -2.125  -2.471  0.00  0.00    +0.150 HD
ATOM      6  H   UNL     1       3.436  -4.030  -3.198  0.00  0.00    +0.151 HD
ENDROOT
BRANCH   1   7
ATOM      7  C   UNL     1       0.869  -2.021  -0.905  0.00  0.00    +0.090 C 
BRANCH   7   8
ATOM      8  C   UNL     1       0.673  -0.560  -1.316  0.00  0.00    -0.051 C 
BRANCH   8   9
ATOM      9  N   UNL     1      -0.134  -0.501  -2.543  0.00  0.00    +0.385 N 
ATOM     10  C   UNL     1      -1.387  -1.246  -2.344  0.00  0.00    -0.073 C 
ATOM     11  C   UNL     1      -2.335  -0.921  -3.499  0.00  0.00    +0.017 C 
ATOM     12  C   UNL     1      -1.624  -1.116  -4.813  0.00  0.00    -0.048 A 
ATOM     13  C   UNL     1      -2.381  -1.213  -5.971  0.00  0.00    +0.004 A 
ATOM     14  C   UNL     1      -1.764  -1.389  -7.193  0.00  0.00    +0.000 A 
ATOM     15  C   UNL     1      -0.386  -1.468  -7.263  0.00  0.00    +0.000 A 
ATOM     16  C   UNL     1       0.368  -1.373  -6.111  0.00  0.00    +0.002 A 
ATOM     17  C   UNL     1      -0.249  -1.198  -4.882  0.00  0.00    -0.061 A 
ATOM     18  C   UNL     1       0.612  -1.108  -3.649  0.00  0.00    -0.042 C 
ATOM     19  H   UNL     1      -0.343   0.461  -2.764  0.00  0.00    -0.081 HD
ENDBRANCH   8   9
BRANCH   8  21
ATOM     20  C   UNL     1      -0.189   1.667  -0.581  0.00  0.00    +0.002 C 
ATOM     21  C   UNL     1      -0.047   0.193  -0.196  0.00  0.00    -0.017 C 
ENDBRANCH   8  21
ENDBRANCH   7   8
ENDBRANCH   1   7
BRANCH   4  22
ATOM     22  C   UNL     1       3.242  -5.996  -2.421  0.00  0.00    +0.202 C 
BRANCH  22  23
ATOM     23  C   UNL     1       4.267  -6.395  -3.451  0.00  0.00    +0.234 C 
ATOM     24  O   UNL     1       4.728  -5.562  -4.203  0.00  0.00    -0.274 OA
ATOM     25  N   UNL     1       4.672  -7.678  -3.537  0.00  0.00    -0.284 N 
ATOM     26  H   UNL     1       4.253  -8.357  -2.985  0.00  0.00    +0.155 HD
BRANCH  25  27
ATOM     27  C   UNL     1       5.695  -8.031  -4.424  0.00  0.00    +0.033 A 
ATOM     28  C   UNL     1       5.668  -9.263  -5.063  0.00  0.00    +0.023 A 
ATOM     29  C   UNL     1       6.679  -9.608  -5.938  0.00  0.00    +0.002 A 
ATOM     30  C   UNL     1       7.718  -8.728  -6.178  0.00  0.00    +0.000 A 
ATOM     31  C   UNL     1       7.749  -7.500  -5.543  0.00  0.00    +0.002 A 
ATOM     32  C   UNL     1       6.737  -7.146  -4.671  0.00  0.00    +0.023 A 
ENDBRANCH  25  27
ENDBRANCH  22  23
ENDBRANCH   4  22
TORSDOF 7
