REMARK  Name = ZINC46085010
REMARK  10 active torsions:
REMARK  status: ('A' for Active; 'I' for Inactive)
REMARK    1  A    between atoms: C_1  and  C_2
REMARK    2  A    between atoms: C_2  and  C_3
REMARK    3  A    between atoms: C_2  and  C_4
REMARK    4  A    between atoms: C_2  and  C_5
REMARK    5  A    between atoms: C_8  and  O_11
REMARK    6  A    between atoms: O_11  and  C_12
REMARK    7  A    between atoms: C_12  and  C_13
REMARK    8  A    between atoms: N_15  and  N_16
REMARK    9  A    between atoms: N_24  and  C_27
REMARK   10  A    between atoms: C_27  and  C_28
REMARK                            x       y       z     vdW  Elec       q    Type
REMARK                         _______ _______ _______ _____ _____    ______ ____
ROOT
ATOM      1  C   UNL     1       4.536  -2.000  -6.087  0.00  0.00    +0.270 C 
ATOM      2  O   UNL     1       3.822  -2.685  -6.787  0.00  0.00    -0.270 OA
ATOM      3  N   UNL     1       5.809  -1.755  -6.457  0.00  0.00    -0.203 N 
ATOM      4  H   UNL     1       6.380  -1.207  -5.896  0.00  0.00    +0.177 HD
ENDROOT
BRANCH   3   5
ATOM      5  N   UNL     1       6.306  -2.291  -7.651  0.00  0.00    -0.174 NA
ATOM      6  C   UNL     1       7.544  -2.053  -8.011  0.00  0.00    +0.153 C 
ATOM      7  C   UNL     1       8.236  -2.526  -9.232  0.00  0.00    +0.028 A 
ATOM      8  C   UNL     1       7.837  -3.312 -10.308  0.00  0.00    +0.012 A 
ATOM      9  C   UNL     1       8.732  -3.589 -11.323  0.00  0.00    +0.001 A 
ATOM     10  C   UNL     1      10.021  -3.085 -11.268  0.00  0.00    +0.002 A 
ATOM     11  C   UNL     1      10.425  -2.304 -10.204  0.00  0.00    +0.024 A 
ATOM     12  C   UNL     1       9.538  -2.015  -9.173  0.00  0.00    +0.046 A 
ATOM     13  N   UNL     1       9.687  -1.268  -8.009  0.00  0.00    -0.262 N 
ATOM     14  C   UNL     1       8.551  -1.248  -7.290  0.00  0.00    +0.272 C 
ATOM     15  O   UNL     1       8.384  -0.671  -6.232  0.00  0.00    -0.268 OA
BRANCH  13  16
ATOM     16  C   UNL     1      10.922  -0.584  -7.620  0.00  0.00    +0.140 C 
BRANCH  16  17
ATOM     17  C   UNL     1      10.920   0.815  -8.179  0.00  0.00    -0.015 C 
ATOM     18  C   UNL     1      11.087   1.840  -7.381  0.00  0.00    +0.005 C 
ENDBRANCH  16  17
ENDBRANCH  13  16
ENDBRANCH   3   5
BRANCH   1  19
ATOM     19  C   UNL     1       4.000  -1.423  -4.801  0.00  0.00    +0.326 C 
BRANCH  19  20
ATOM     20  O   UNL     1       2.639  -1.822  -4.631  0.00  0.00    -0.483 OA
BRANCH  20  24
ATOM     21  C   UNL     1       0.707  -0.490  -1.238  0.00  0.00    -0.042 A 
ATOM     22  C   UNL     1       0.035  -1.284  -2.148  0.00  0.00    +0.008 A 
ATOM     23  C   UNL     1       0.679  -1.732  -3.285  0.00  0.00    +0.046 A 
ATOM     24  C   UNL     1       2.002  -1.383  -3.514  0.00  0.00    +0.121 A 
ATOM     25  C   UNL     1       2.675  -0.585  -2.599  0.00  0.00    +0.046 A 
ATOM     26  C   UNL     1       2.024  -0.136  -1.466  0.00  0.00    +0.008 A 
BRANCH  21  28
ATOM     27  C   UNL     1      -0.019   1.526   0.010  0.00  0.00    +0.015 C 
ATOM     28  C   UNL     1       0.002  -0.004   0.002  0.00  0.00    -0.013 C 
ATOM     29  C   UNL     1       0.742  -0.511   1.242  0.00  0.00    +0.015 C 
ATOM     30  C   UNL     1      -1.433  -0.534   0.013  0.00  0.00    +0.015 C 
ENDBRANCH  21  28
ENDBRANCH  20  24
ENDBRANCH  19  20
ENDBRANCH   1  19
TORSDOF 7
