REMARK  Name = ZINC33762746
REMARK  5 active torsions:
REMARK  status: ('A' for Active; 'I' for Inactive)
REMARK    1  A    between atoms: C_4  and  C_7
REMARK    2  A    between atoms: C_7  and  C_9
REMARK    3  A    between atoms: C_7  and  N_12
REMARK    4  A    between atoms: C_13  and  C_15
REMARK    5  A    between atoms: C_18  and  C_20
REMARK                            x       y       z     vdW  Elec       q    Type
REMARK                         _______ _______ _______ _____ _____    ______ ____
ROOT
ATOM      1  N   UNL     1      -2.437  -0.152   0.025  0.00  0.00    -0.295 N 
ATOM      2  C   UNL     1      -1.247  -0.785   0.010  0.00  0.00    +0.264 C 
ATOM      3  O   UNL     1      -1.204  -2.000   0.003  0.00  0.00    -0.268 OA
ATOM      4  H   UNL     1      -2.475   0.947   0.032  0.00  0.00    +0.150 HD
ENDROOT
BRANCH   2   5
ATOM      5  C   UNL     1       0.002  -0.004   0.002  0.00  0.00    +0.133 A 
ATOM      6  C   UNL     1       1.227  -0.622  -0.013  0.00  0.00    +0.079 A 
ATOM      7  S   UNL     1       2.301   0.740  -0.016  0.00  0.00    -0.081 S 
ATOM      8  C   UNL     1       1.108   1.998   0.002  0.00  0.00    +0.065 A 
ATOM      9  N   UNL     1      -0.016   1.330   0.009  0.00  0.00    -0.241 NA
BRANCH   8  10
ATOM     10  C   UNL     1       1.315   3.491   0.008  0.00  0.00    -0.015 C 
ATOM     11  C   UNL     1       1.746   3.980  -1.391  0.00  0.00    -0.011 C 
ATOM     12  C   UNL     1       2.776   5.098  -1.125  0.00  0.00    -0.020 C 
ATOM     13  C   UNL     1       2.879   5.190   0.412  0.00  0.00    -0.082 C 
ATOM     14  N   UNL     1       2.448   3.854   0.897  0.00  0.00    +0.385 N 
ATOM     15  H   UNL     1       2.099   3.886   1.940  0.00  0.00    -0.085 HD
ATOM     16  H   UNL     1       3.245   3.102   0.800  0.00  0.00    -0.085 HD
ENDBRANCH   8  10
ENDBRANCH   2   5
BRANCH   1  17
ATOM     17  C   UNL     1      -3.679  -0.929   0.034  0.00  0.00    +0.190 C 
BRANCH  17  21
ATOM     18  C   UNL     1      -6.804   1.403   1.780  0.00  0.00    +0.000 A 
ATOM     19  C   UNL     1      -6.706   0.053   2.064  0.00  0.00    +0.000 A 
ATOM     20  C   UNL     1      -5.695  -0.701   1.499  0.00  0.00    +0.006 A 
ATOM     21  C   UNL     1      -4.781  -0.106   0.649  0.00  0.00    -0.018 A 
ATOM     22  C   UNL     1      -4.875   1.244   0.369  0.00  0.00    +0.006 A 
ATOM     23  C   UNL     1      -5.889   1.998   0.930  0.00  0.00    +0.000 A 
ENDBRANCH  17  21
BRANCH  17  24
ATOM     24  C   UNL     1      -4.053  -1.292  -1.380  0.00  0.00    +0.235 C 
ATOM     25  O   UNL     1      -3.352  -0.938  -2.304  0.00  0.00    -0.274 OA
ATOM     26  N   UNL     1      -5.168  -2.011  -1.618  0.00  0.00    -0.328 N 
ATOM     27  H   UNL     1      -5.441  -2.277  -2.650  0.00  0.00    +0.145 HD
ATOM     28  H   UNL     1      -5.804  -2.333  -0.781  0.00  0.00    +0.145 HD
ENDBRANCH  17  24
ENDBRANCH   1  17
TORSDOF 5
