REMARK  Name = ZINC21265428
REMARK  7 active torsions:
REMARK  status: ('A' for Active; 'I' for Inactive)
REMARK    1  A    between atoms: C_1  and  C_2
REMARK    2  A    between atoms: C_2  and  C_3
REMARK    3  A    between atoms: N_9  and  S_10
REMARK    4  A    between atoms: S_10  and  C_13
REMARK    5  A    between atoms: C_16  and  N_19
REMARK    6  A    between atoms: C_20  and  C_22
REMARK    7  A    between atoms: C_22  and  N_23
REMARK                            x       y       z     vdW  Elec       q    Type
REMARK                         _______ _______ _______ _____ _____    ______ ____
ROOT
ATOM      1  C   UNL     1       5.104   7.113   3.892  0.00  0.00    +0.106 A 
ATOM      2  C   UNL     1       6.336   7.324   3.300  0.00  0.00    +0.030 A 
ATOM      3  C   UNL     1       6.645   6.703   2.105  0.00  0.00    +0.025 A 
ATOM      4  C   UNL     1       5.717   5.866   1.499  0.00  0.00    +0.033 A 
ATOM      5  C   UNL     1       4.479   5.661   2.093  0.00  0.00    +0.025 A 
ATOM      6  C   UNL     1       4.178   6.280   3.291  0.00  0.00    +0.030 A 
ENDROOT
BRANCH   4   7
ATOM      7  N   UNL     1       6.026   5.236   0.288  0.00  0.00    -0.287 N 
ATOM      8  C   UNL     1       7.285   4.818   0.049  0.00  0.00    +0.201 C 
ATOM      9  O   UNL     1       8.164   5.050   0.852  0.00  0.00    -0.278 OA
ATOM     10  H   UNL     1       5.242   5.082  -0.468  0.00  0.00    +0.155 HD
BRANCH   8  11
ATOM     11  C   UNL     1       7.601   4.064  -1.217  0.00  0.00    +0.019 C 
BRANCH  11  12
ATOM     12  N   UNL     1       9.029   3.723  -1.241  0.00  0.00    +0.388 N 
ATOM     13  C   UNL     1       9.425   3.199  -2.558  0.00  0.00    -0.073 C 
ATOM     14  C   UNL     1      10.951   3.211  -2.646  0.00  0.00    +0.017 C 
ATOM     15  C   UNL     1      11.542   2.546  -1.430  0.00  0.00    -0.048 A 
ATOM     16  C   UNL     1      12.867   2.140  -1.476  0.00  0.00    +0.004 A 
ATOM     17  C   UNL     1      13.448   1.530  -0.383  0.00  0.00    +0.000 A 
ATOM     18  C   UNL     1      12.706   1.323   0.765  0.00  0.00    +0.000 A 
ATOM     19  C   UNL     1      11.386   1.723   0.810  0.00  0.00    +0.002 A 
ATOM     20  C   UNL     1      10.800   2.337  -0.287  0.00  0.00    -0.061 A 
ATOM     21  C   UNL     1       9.356   2.754  -0.190  0.00  0.00    -0.042 C 
ATOM     22  H   UNL     1       9.595   4.646  -1.046  0.00  0.00    -0.081 HD
ENDBRANCH  11  12
ENDBRANCH   8  11
ENDBRANCH   4   7
BRANCH   1  23
ATOM     23  S   UNL     1       4.714   7.907   5.416  0.00  0.00    +0.061 S 
ATOM     24  O   UNL     1       3.830   7.038   6.111  0.00  0.00    -0.153 OA
ATOM     25  O   UNL     1       5.946   8.345   5.972  0.00  0.00    -0.153 OA
BRANCH  23  31
ATOM     26  C   UNL     1       4.532  10.504   4.642  0.00  0.00    +0.080 C 
ATOM     27  C   UNL     1       4.065  11.651   5.536  0.00  0.00    +0.021 C 
ATOM     28  C   UNL     1       2.537  11.736   5.496  0.00  0.00    +0.003 C 
ATOM     29  C   UNL     1       1.938  10.432   6.027  0.00  0.00    +0.017 C 
ATOM     30  C   UNL     1       2.381   9.270   5.133  0.00  0.00    +0.110 C 
ATOM     31  N   UNL     1       3.848   9.270   5.050  0.00  0.00    -0.174 NA
BRANCH  26  33
ATOM     32  C   UNL     1       6.763  11.522   4.164  0.00  0.00    +0.005 C 
ATOM     33  C   UNL     1       6.045  10.325   4.790  0.00  0.00    +0.017 C 
ENDBRANCH  26  33
ENDBRANCH  23  31
ENDBRANCH   1  23
TORSDOF 6
