REMARK  Name = ZINC11603770
REMARK  9 active torsions:
REMARK  status: ('A' for Active; 'I' for Inactive)
REMARK    1  A    between atoms: C_1  and  N_57
REMARK    2  A    between atoms: C_2  and  N_57
REMARK    3  A    between atoms: C_3  and  C_5
REMARK    4  A    between atoms: C_3  and  C_24
REMARK    5  A    between atoms: C_3  and  N_57
REMARK    6  A    between atoms: C_5  and  N_6
REMARK    7  A    between atoms: C_7  and  C_9
REMARK    8  A    between atoms: N_12  and  C_15
REMARK    9  A    between atoms: C_20  and  N_21
REMARK                            x       y       z     vdW  Elec       q    Type
REMARK                         _______ _______ _______ _____ _____    ______ ____
ROOT
ATOM      1  N   UNL     1      -1.984   1.720   3.281  0.00  0.00    -0.316 N 
ATOM      2  C   UNL     1      -2.379   2.154   2.068  0.00  0.00    +0.216 C 
ATOM      3  O   UNL     1      -3.380   2.831   1.961  0.00  0.00    -0.276 OA
ATOM      4  H   UNL     1      -1.184   1.179   3.366  0.00  0.00    +0.149 HD
ENDROOT
BRANCH   2   5
ATOM      5  C   UNL     1      -1.577   1.797   0.843  0.00  0.00    +0.078 C 
ATOM      6  C   UNL     1      -0.157   2.351   0.982  0.00  0.00    +0.031 C 
ATOM      7  C   UNL     1       0.634   2.039  -0.290  0.00  0.00    +0.106 C 
ATOM      8  N   UNL     1      -0.036   2.646  -1.447  0.00  0.00    -0.328 N 
ATOM      9  C   UNL     1      -1.385   2.095  -1.629  0.00  0.00    +0.106 C 
ATOM     10  C   UNL     1      -2.236   2.409  -0.397  0.00  0.00    +0.031 C 
BRANCH   8  11
ATOM     11  C   UNL     1       0.728   2.493  -2.606  0.00  0.00    +0.060 A 
ATOM     12  C   UNL     1       0.981   1.223  -3.110  0.00  0.00    +0.025 A 
ATOM     13  C   UNL     1       1.732   1.075  -4.259  0.00  0.00    +0.002 A 
ATOM     14  C   UNL     1       2.241   2.189  -4.903  0.00  0.00    +0.002 A 
ATOM     15  C   UNL     1       1.996   3.454  -4.401  0.00  0.00    +0.034 A 
ATOM     16  C   UNL     1       1.240   3.609  -3.255  0.00  0.00    +0.147 A 
BRANCH  16  17
ATOM     17  N   UNL     1       0.978   4.963  -2.718  0.00  0.00    +0.058 N 
ATOM     18  O   UNL     1       1.336   5.946  -3.343  0.00  0.00    -0.126 OA
ATOM     19  O   UNL     1       0.405   5.095  -1.652  0.00  0.00    -0.126 OA
ENDBRANCH  16  17
ENDBRANCH   8  11
ENDBRANCH   2   5
BRANCH   1  20
ATOM     20  C   UNL     1      -2.764   2.067   4.472  0.00  0.00    +0.093 C 
BRANCH  20  21
ATOM     21  C   UNL     1      -2.051   1.541   5.719  0.00  0.00    -0.021 C 
BRANCH  21  22
ATOM     22  C   UNL     1      -2.034   0.034   5.690  0.00  0.00    -0.057 A 
ATOM     23  C   UNL     1      -3.155  -0.677   6.079  0.00  0.00    +0.002 A 
ATOM     24  C   UNL     1      -3.142  -2.059   6.048  0.00  0.00    +0.003 A 
ATOM     25  C   UNL     1      -2.006  -2.731   5.638  0.00  0.00    +0.038 A 
ATOM     26  C   UNL     1      -0.882  -2.020   5.254  0.00  0.00    +0.124 A 
ATOM     27  C   UNL     1      -0.898  -0.636   5.281  0.00  0.00    +0.040 A 
ATOM     28  F   UNL     1       0.229  -2.676   4.854  0.00  0.00    -0.205 F 
ENDBRANCH  21  22
BRANCH  21  31
ATOM     29  C   UNL     1      -2.076   1.556   8.140  0.00  0.00    -0.096 C 
ATOM     30  C   UNL     1      -2.927   3.459   6.910  0.00  0.00    -0.096 C 
ATOM     31  N   UNL     1      -2.789   1.988   6.920  0.00  0.00    +0.382 N 
ATOM     32  H   UNL     1      -3.725   1.565   6.913  0.00  0.00    -0.082 HD
ENDBRANCH  21  31
ENDBRANCH  20  21
ENDBRANCH   1  20
TORSDOF 7
