REMARK  Name = ZINC45275217
REMARK  8 active torsions:
REMARK  status: ('A' for Active; 'I' for Inactive)
REMARK    1  A    between atoms: C_4  and  C_7
REMARK    2  A    between atoms: C_7  and  N_8
REMARK    3  A    between atoms: C_14  and  C_16
REMARK    4  A    between atoms: C_23  and  S_24
REMARK    5  A    between atoms: S_24  and  C_25
REMARK    6  A    between atoms: C_25  and  C_26
REMARK    7  A    between atoms: N_28  and  C_29
REMARK    8  A    between atoms: C_29  and  C_30
REMARK                            x       y       z     vdW  Elec       q    Type
REMARK                         _______ _______ _______ _____ _____    ______ ____
ROOT
ATOM      1  N   UNL     1       4.152  -0.952   1.338  0.00  0.00    -0.282 N 
ATOM      2  C   UNL     1       4.923  -0.044   1.981  0.00  0.00    +0.269 A 
ATOM      3  O   UNL     1       5.264   0.989   1.430  0.00  0.00    -0.266 OA
ATOM      4  C   UNL     1       5.318  -0.320   3.288  0.00  0.00    +0.103 A 
ATOM      5  C   UNL     1       4.933  -1.507   3.939  0.00  0.00    +0.087 A 
ATOM      6  C   UNL     1       5.399  -1.658   5.249  0.00  0.00    +0.044 A 
ATOM      7  C   UNL     1       6.172  -0.686   5.812  0.00  0.00    +0.022 A 
ATOM      8  S   UNL     1       6.294   0.524   4.505  0.00  0.00    -0.081 S 
ATOM      9  N   UNL     1       4.152  -2.369   3.209  0.00  0.00    -0.222 NA
ATOM     10  C   UNL     1       3.784  -2.097   1.986  0.00  0.00    +0.173 A 
ENDROOT
BRANCH   7  11
ATOM     11  C   UNL     1       6.762  -0.644   7.167  0.00  0.00    -0.011 A 
ATOM     12  C   UNL     1       6.555  -1.702   8.054  0.00  0.00    +0.009 A 
ATOM     13  C   UNL     1       7.108  -1.657   9.317  0.00  0.00    +0.001 A 
ATOM     14  C   UNL     1       7.867  -0.567   9.705  0.00  0.00    +0.000 A 
ATOM     15  C   UNL     1       8.076   0.485   8.831  0.00  0.00    +0.001 A 
ATOM     16  C   UNL     1       7.533   0.450   7.563  0.00  0.00    +0.009 A 
ENDBRANCH   7  11
BRANCH   1  17
ATOM     17  C   UNL     1       3.711  -0.707  -0.038  0.00  0.00    +0.162 C 
BRANCH  17  21
ATOM     18  C   UNL     1      -0.017   1.378   0.010  0.00  0.00    +0.000 A 
ATOM     19  C   UNL     1       1.171   2.086   0.002  0.00  0.00    +0.000 A 
ATOM     20  C   UNL     1       2.377   1.411  -0.013  0.00  0.00    +0.005 A 
ATOM     21  C   UNL     1       2.396   0.029  -0.020  0.00  0.00    -0.028 A 
ATOM     22  C   UNL     1       1.208  -0.679  -0.012  0.00  0.00    +0.005 A 
ATOM     23  C   UNL     1       0.002  -0.004   0.002  0.00  0.00    +0.000 A 
ENDBRANCH  17  21
ENDBRANCH   1  17
BRANCH  10  24
ATOM     24  S   UNL     1       2.774  -3.261   1.133  0.00  0.00    -0.078 S 
BRANCH  24  25
ATOM     25  C   UNL     1       2.531  -4.597   2.335  0.00  0.00    +0.173 C 
BRANCH  25  26
ATOM     26  C   UNL     1       1.673  -5.674   1.724  0.00  0.00    +0.224 C 
ATOM     27  O   UNL     1       1.264  -5.552   0.588  0.00  0.00    -0.275 OA
ATOM     28  N   UNL     1       1.358  -6.772   2.439  0.00  0.00    -0.308 N 
ATOM     29  H   UNL     1       1.685  -6.870   3.347  0.00  0.00    +0.149 HD
BRANCH  28  30
ATOM     30  C   UNL     1       0.523  -7.819   1.844  0.00  0.00    +0.178 C 
BRANCH  30  31
ATOM     31  C   UNL     1       0.321  -8.929   2.844  0.00  0.00    +0.122 A 
ATOM     32  C   UNL     1      -0.681  -9.010   3.737  0.00  0.00    +0.046 A 
ATOM     33  C   UNL     1      -0.482 -10.205   4.467  0.00  0.00    +0.041 A 
ATOM     34  C   UNL     1       0.630 -10.781   3.977  0.00  0.00    +0.195 A 
ATOM     35  O   UNL     1       1.109 -10.007   2.989  0.00  0.00    -0.466 OA
ENDBRANCH  30  31
ENDBRANCH  28  30
ENDBRANCH  25  26
ENDBRANCH  24  25
ENDBRANCH  10  24
TORSDOF 8
