REMARK  Name = ZINC37313576
REMARK  7 active torsions:
REMARK  status: ('A' for Active; 'I' for Inactive)
REMARK    1  A    between atoms: C_1  and  C_2
REMARK    2  A    between atoms: C_2  and  C_3
REMARK    3  A    between atoms: C_6  and  N_12
REMARK    4  A    between atoms: C_8  and  N_9
REMARK    5  A    between atoms: N_12  and  C_13
REMARK    6  A    between atoms: C_13  and  C_15
REMARK    7  A    between atoms: C_13  and  C_16
REMARK                            x       y       z     vdW  Elec       q    Type
REMARK                         _______ _______ _______ _____ _____    ______ ____
ROOT
ATOM      1  C   UNL     1       0.708  -0.478  -1.243  0.00  0.00    -0.017 A 
ATOM      2  C   UNL     1      -0.029  -0.903  -2.334  0.00  0.00    +0.007 A 
ATOM      3  C   UNL     1       0.614  -1.360  -3.467  0.00  0.00    +0.023 A 
ATOM      4  C   UNL     1       2.002  -1.394  -3.510  0.00  0.00    +0.030 A 
ATOM      5  C   UNL     1       2.739  -0.966  -2.413  0.00  0.00    +0.056 A 
ATOM      6  C   UNL     1       2.089  -0.505  -1.284  0.00  0.00    +0.131 A 
ENDROOT
BRANCH   6   7
ATOM      7  N   UNL     1       2.873  -0.043  -0.117  0.00  0.00    +0.057 N 
ATOM      8  O   UNL     1       4.078   0.026  -0.187  0.00  0.00    -0.126 OA
ATOM      9  O   UNL     1       2.308   0.264   0.907  0.00  0.00    -0.126 OA
ENDBRANCH   6   7
BRANCH   1  11
ATOM     10  C   UNL     1       0.044   1.550   0.020  0.00  0.00    +0.009 C 
ATOM     11  C   UNL     1       0.002   0.021  -0.008  0.00  0.00    +0.034 C 
ENDBRANCH   1  11
BRANCH   4  12
ATOM     12  N   UNL     1       2.656  -1.856  -4.654  0.00  0.00    -0.337 N 
ATOM     13  H   UNL     1       3.626  -1.879  -4.683  0.00  0.00    +0.147 HD
BRANCH  12  14
ATOM     14  C   UNL     1       1.878  -2.307  -5.811  0.00  0.00    +0.105 C 
ATOM     15  C   UNL     1       1.516  -1.103  -6.683  0.00  0.00    +0.033 C 
BRANCH  14  16
ATOM     16  C   UNL     1       2.696  -3.283  -6.617  0.00  0.00    +0.024 A 
ATOM     17  C   UNL     1       2.321  -4.469  -7.157  0.00  0.00    +0.030 A 
ATOM     18  C   UNL     1       3.251  -5.206  -7.866  0.00  0.00    +0.023 A 
ATOM     19  C   UNL     1       4.510  -4.721  -8.001  0.00  0.00    +0.046 A 
ATOM     20  S   UNL     1       4.407  -3.175  -7.114  0.00  0.00    -0.099 S 
ATOM     21 BR   UNL     1       0.553  -5.106  -6.943  0.00  0.00    -0.049 Br
ENDBRANCH  14  16
ENDBRANCH  12  14
ENDBRANCH   4  12
TORSDOF 5
