REMARK  Name = ZINC37997332
REMARK  11 active torsions:
REMARK  status: ('A' for Active; 'I' for Inactive)
REMARK    1  A    between atoms: C_1  and  C_2
REMARK    2  A    between atoms: C_2  and  C_3
REMARK    3  A    between atoms: C_3  and  C_5
REMARK    4  A    between atoms: C_3  and  N_6
REMARK    5  A    between atoms: C_7  and  C_9
REMARK    6  A    between atoms: C_9  and  C_10
REMARK    7  A    between atoms: C_10  and  N_11
REMARK    8  A    between atoms: N_11  and  C_12
REMARK    9  A    between atoms: C_12  and  C_13
REMARK   10  A    between atoms: C_16  and  O_20
REMARK   11  A    between atoms: O_20  and  C_21
REMARK                            x       y       z     vdW  Elec       q    Type
REMARK                         _______ _______ _______ _____ _____    ______ ____
ROOT
ATOM      1  N   UNL     1      -6.325   0.793  -3.559  0.00  0.00    +0.382 N 
ATOM      2  H   UNL     1      -5.999   1.702  -3.850  0.00  0.00    -0.085 HD
ATOM      3  H   UNL     1      -6.117   0.116  -4.278  0.00  0.00    -0.085 HD
ENDROOT
BRANCH   1   4
ATOM      4  C   UNL     1      -5.651   0.406  -2.312  0.00  0.00    -0.073 C 
BRANCH   4   5
ATOM      5  C   UNL     1      -4.140   0.357  -2.544  0.00  0.00    +0.077 C 
BRANCH   5   7
ATOM      6  N   UNL     1      -2.105  -0.148  -1.230  0.00  0.00    -0.313 N 
ATOM      7  C   UNL     1      -3.448  -0.040  -1.265  0.00  0.00    +0.211 C 
ATOM      8  O   UNL     1      -4.100  -0.261  -0.267  0.00  0.00    -0.276 OA
ATOM      9  H   UNL     1      -1.584   0.029  -2.029  0.00  0.00    +0.149 HD
BRANCH   6  10
ATOM     10  C   UNL     1      -1.433  -0.534   0.013  0.00  0.00    +0.070 C 
ATOM     11  C   UNL     1      -1.413  -2.059   0.130  0.00  0.00    +0.028 C 
BRANCH  10  13
ATOM     12  C   UNL     1      -0.019   1.526   0.010  0.00  0.00    +0.005 C 
ATOM     13  C   UNL     1       0.002  -0.004   0.002  0.00  0.00    +0.018 C 
ENDBRANCH  10  13
ENDBRANCH   6  10
ENDBRANCH   5   7
ENDBRANCH   4   5
ENDBRANCH   1   4
BRANCH   1  14
ATOM     14  C   UNL     1      -7.777   0.840  -3.337  0.00  0.00    -0.047 C 
BRANCH  14  15
ATOM     15  C   UNL     1      -8.468   1.237  -4.616  0.00  0.00    -0.062 A 
ATOM     16  C   UNL     1      -8.694   2.572  -4.893  0.00  0.00    +0.020 A 
ATOM     17  C   UNL     1      -9.328   2.939  -6.065  0.00  0.00    +0.061 A 
ATOM     18  C   UNL     1      -9.738   1.965  -6.965  0.00  0.00    +0.148 A 
ATOM     19  C   UNL     1      -9.509   0.625  -6.684  0.00  0.00    +0.061 A 
ATOM     20  C   UNL     1      -8.870   0.265  -5.513  0.00  0.00    +0.020 A 
ATOM     21 BR   UNL     1     -10.066  -0.706  -7.907  0.00  0.00    -0.046 Br
ATOM     22 BR   UNL     1      -9.638   4.766  -6.442  0.00  0.00    -0.046 Br
BRANCH  18  23
ATOM     23  O   UNL     1     -10.362   2.322  -8.118  0.00  0.00    -0.493 OA
ATOM     24  C   UNL     1      -9.534   2.562  -9.257  0.00  0.00    +0.277 C 
ENDBRANCH  18  23
ENDBRANCH  14  15
ENDBRANCH   1  14
TORSDOF 8
