REMARK  Name = ZINC63861667
REMARK  12 active torsions:
REMARK  status: ('A' for Active; 'I' for Inactive)
REMARK    1  A    between atoms: C_1  and  C_2
REMARK    2  A    between atoms: C_2  and  N_3
REMARK    3  A    between atoms: N_3  and  C_4
REMARK    4  A    between atoms: N_3  and  C_6
REMARK    5  A    between atoms: C_4  and  C_5
REMARK    6  A    between atoms: C_6  and  C_7
REMARK    7  A    between atoms: C_6  and  C_21
REMARK    8  A    between atoms: C_7  and  N_8
REMARK    9  A    between atoms: C_9  and  C_11
REMARK   10  A    between atoms: C_12  and  C_20
REMARK   11  A    between atoms: C_14  and  S_16
REMARK   12  A    between atoms: S_16  and  N_19
REMARK                            x       y       z     vdW  Elec       q    Type
REMARK                         _______ _______ _______ _____ _____    ______ ____
ROOT
ATOM      1  N   UNL     1       0.191   0.890   1.810  0.00  0.00    -0.312 N 
ATOM      2  C   UNL     1      -0.275   1.820   2.668  0.00  0.00    +0.251 C 
ATOM      3  O   UNL     1       0.179   1.891   3.795  0.00  0.00    -0.270 OA
ATOM      4  H   UNL     1      -0.118   0.880   0.891  0.00  0.00    +0.149 HD
ENDROOT
BRANCH   2   5
ATOM      5  C   UNL     1      -1.328   2.747   2.243  0.00  0.00    +0.079 A 
ATOM      6  C   UNL     1      -1.873   3.824   2.926  0.00  0.00    -0.029 A 
ATOM      7  C   UNL     1      -2.858   4.515   2.262  0.00  0.00    +0.040 A 
ATOM      8  C   UNL     1      -3.224   4.112   1.020  0.00  0.00    +0.143 A 
ATOM      9  S   UNL     1      -2.238   2.788   0.710  0.00  0.00    -0.064 S 
ATOM     10  C   UNL     1      -1.413   4.212   4.308  0.00  0.00    +0.045 C 
BRANCH   8  11
ATOM     11  S   UNL     1      -4.448   4.819  -0.031  0.00  0.00    +0.062 S 
ATOM     12  O   UNL     1      -4.863   3.792  -0.920  0.00  0.00    -0.153 OA
ATOM     13  O   UNL     1      -5.359   5.509   0.814  0.00  0.00    -0.153 OA
BRANCH  11  14
ATOM     14  N   UNL     1      -3.695   5.969  -0.954  0.00  0.00    -0.203 NA
ATOM     15  H   UNL     1      -4.022   6.166  -1.846  0.00  0.00    +0.144 HD
ATOM     16  H   UNL     1      -2.927   6.446  -0.604  0.00  0.00    +0.144 HD
ENDBRANCH  11  14
ENDBRANCH   8  11
ENDBRANCH   2   5
BRANCH   1  17
ATOM     17  C   UNL     1       1.165  -0.104   2.267  0.00  0.00    +0.094 C 
BRANCH  17  18
ATOM     18  C   UNL     1       1.620  -0.955   1.079  0.00  0.00    -0.020 C 
BRANCH  18  19
ATOM     19  C   UNL     1       2.498  -2.077   1.572  0.00  0.00    -0.059 A 
ATOM     20  C   UNL     1       2.369  -2.536   2.869  0.00  0.00    +0.002 A 
ATOM     21  C   UNL     1       3.173  -3.565   3.321  0.00  0.00    +0.000 A 
ATOM     22  C   UNL     1       4.107  -4.135   2.475  0.00  0.00    +0.000 A 
ATOM     23  C   UNL     1       4.235  -3.676   1.178  0.00  0.00    +0.000 A 
ATOM     24  C   UNL     1       3.427  -2.650   0.725  0.00  0.00    +0.002 A 
ENDBRANCH  18  19
BRANCH  18  25
ATOM     25  N   UNL     1       0.445  -1.515   0.399  0.00  0.00    +0.385 N 
ATOM     26  H   UNL     1      -0.182  -0.768   0.141  0.00  0.00    -0.081 HD
BRANCH  25  28
ATOM     27  C   UNL     1       1.467  -1.238  -1.810  0.00  0.00    -0.017 C 
ATOM     28  C   UNL     1       0.874  -2.232  -0.809  0.00  0.00    -0.081 C 
ENDBRANCH  25  28
BRANCH  25  29
ATOM     29  C   UNL     1      -0.247  -2.445   1.301  0.00  0.00    -0.081 C 
ATOM     30  C   UNL     1      -1.274  -1.677   2.135  0.00  0.00    -0.017 C 
ENDBRANCH  25  29
ENDBRANCH  18  25
ENDBRANCH  17  18
ENDBRANCH   1  17
TORSDOF 9
