REMARK  Name = ZINC37624782
REMARK  10 active torsions:
REMARK  status: ('A' for Active; 'I' for Inactive)
REMARK    1  A    between atoms: C_1  and  C_2
REMARK    2  A    between atoms: C_3  and  C_17
REMARK    3  A    between atoms: C_4  and  C_16
REMARK    4  A    between atoms: C_7  and  C_8
REMARK    5  A    between atoms: C_8  and  C_10
REMARK    6  A    between atoms: C_17  and  C_18
REMARK    7  A    between atoms: C_19  and  C_33
REMARK    8  A    between atoms: C_20  and  C_25
REMARK    9  A    between atoms: C_23  and  C_24
REMARK   10  A    between atoms: C_25  and  C_27
REMARK                            x       y       z     vdW  Elec       q    Type
REMARK                         _______ _______ _______ _____ _____    ______ ____
ROOT
ATOM      1  C   UNL     1      -0.421  -1.430  -0.798  0.00  0.00    +0.074 C 
ENDROOT
BRANCH   1   4
ATOM      2  C   UNL     1      -1.249  -0.045   1.941  0.00  0.00    +0.046 C 
ATOM      3  C   UNL     1      -1.232  -1.525   1.658  0.00  0.00    -0.018 A 
ATOM      4  C   UNL     1      -0.869  -2.136   0.456  0.00  0.00    -0.019 A 
ATOM      5  C   UNL     1      -0.991  -3.477   0.617  0.00  0.00    +0.017 A 
ATOM      6  N   UNL     1      -1.418  -3.731   1.878  0.00  0.00    -0.355 N 
ATOM      7  H   UNL     1      -1.586  -4.610   2.252  0.00  0.00    +0.166 HD
ATOM      8  C   UNL     1      -1.568  -2.533   2.541  0.00  0.00    +0.091 A 
ATOM      9  C   UNL     1      -0.699  -4.515  -0.435  0.00  0.00    +0.063 C 
BRANCH   8  10
ATOM     10  C   UNL     1      -2.006  -2.361   3.928  0.00  0.00    +0.209 C 
ATOM     11  O   UNL     1      -2.220  -1.244   4.364  0.00  0.00    -0.285 OA
BRANCH  10  12
ATOM     12  C   UNL     1      -2.188  -3.542   4.798  0.00  0.00    +0.024 A 
ATOM     13  C   UNL     1      -1.439  -4.699   4.576  0.00  0.00    +0.012 A 
ATOM     14  C   UNL     1      -1.613  -5.797   5.392  0.00  0.00    +0.001 A 
ATOM     15  C   UNL     1      -2.528  -5.754   6.429  0.00  0.00    +0.000 A 
ATOM     16  C   UNL     1      -3.274  -4.611   6.655  0.00  0.00    +0.001 A 
ATOM     17  C   UNL     1      -3.105  -3.503   5.851  0.00  0.00    +0.012 A 
ENDBRANCH  10  12
ENDBRANCH   8  10
ENDBRANCH   1   4
BRANCH   1  18
ATOM     18  C   UNL     1       1.082  -1.312  -0.798  0.00  0.00    -0.019 A 
ATOM     19  C   UNL     1       1.975  -2.189  -1.418  0.00  0.00    -0.018 A 
ATOM     20  C   UNL     1       3.248  -1.712  -1.172  0.00  0.00    +0.091 A 
ATOM     21  N   UNL     1       3.123  -0.567  -0.417  0.00  0.00    -0.355 N 
ATOM     22  H   UNL     1       3.855  -0.018  -0.096  0.00  0.00    +0.166 HD
ATOM     23  C   UNL     1       1.805  -0.332  -0.202  0.00  0.00    +0.017 A 
ATOM     24  C   UNL     1       1.237   0.827   0.575  0.00  0.00    +0.063 C 
ATOM     25  C   UNL     1       1.618  -3.423  -2.206  0.00  0.00    +0.046 C 
BRANCH  20  26
ATOM     26  C   UNL     1       4.502  -2.314  -1.629  0.00  0.00    +0.209 C 
ATOM     27  O   UNL     1       4.479  -3.272  -2.380  0.00  0.00    -0.285 OA
BRANCH  26  28
ATOM     28  C   UNL     1       5.797  -1.758  -1.180  0.00  0.00    +0.024 A 
ATOM     29  C   UNL     1       5.875  -1.040   0.015  0.00  0.00    +0.012 A 
ATOM     30  C   UNL     1       7.085  -0.525   0.429  0.00  0.00    +0.001 A 
ATOM     31  C   UNL     1       8.221  -0.718  -0.337  0.00  0.00    +0.000 A 
ATOM     32  C   UNL     1       8.151  -1.428  -1.522  0.00  0.00    +0.001 A 
ATOM     33  C   UNL     1       6.948  -1.954  -1.945  0.00  0.00    +0.012 A 
ENDBRANCH  26  28
ENDBRANCH  20  26
ENDBRANCH   1  18
TORSDOF 6
