REMARK  Name = ZINC16476743
REMARK  3 active torsions:
REMARK  status: ('A' for Active; 'I' for Inactive)
REMARK    1  A    between atoms: C_4  and  C_7
REMARK    2  A    between atoms: N_9  and  N_10
REMARK    3  A    between atoms: C_11  and  C_12
REMARK                            x       y       z     vdW  Elec       q    Type
REMARK                         _______ _______ _______ _____ _____    ______ ____
ROOT
ATOM      1  C   UNL     1      -0.149   1.237  -0.855  0.00  0.00    +0.263 C 
ATOM      2  O   UNL     1      -0.046   0.052  -0.601  0.00  0.00    -0.268 OA
ATOM      3  N   UNL     1      -1.327   1.865  -0.668  0.00  0.00    -0.203 N 
ATOM      4  H   UNL     1      -1.410   2.811  -0.870  0.00  0.00    +0.178 HD
ENDROOT
BRANCH   1   8
ATOM      5  C   UNL     1       3.194   3.390  -2.344  0.00  0.00    +0.000 A 
ATOM      6  C   UNL     1       3.316   2.042  -2.057  0.00  0.00    +0.001 A 
ATOM      7  C   UNL     1       2.234   1.337  -1.573  0.00  0.00    +0.013 A 
ATOM      8  C   UNL     1       1.014   1.986  -1.373  0.00  0.00    +0.038 A 
ATOM      9  C   UNL     1       0.897   3.345  -1.670  0.00  0.00    +0.013 A 
ATOM     10  C   UNL     1       1.988   4.040  -2.148  0.00  0.00    +0.001 A 
ENDBRANCH   1   8
BRANCH   3  11
ATOM     11  N   UNL     1      -2.432   1.154  -0.182  0.00  0.00    -0.187 NA
ATOM     12  C   UNL     1      -3.527   1.784   0.127  0.00  0.00    +0.148 C 
BRANCH  12  13
ATOM     13  C   UNL     1      -3.552   3.250   0.135  0.00  0.00    +0.072 A 
ATOM     14  C   UNL     1      -4.602   4.090   0.327  0.00  0.00    +0.125 A 
ATOM     15  N   UNL     1      -4.368   5.424   0.288  0.00  0.00    -0.307 N 
ATOM     16  H   UNL     1      -5.095   6.051   0.421  0.00  0.00    +0.170 HD
ATOM     17  C   UNL     1      -3.114   5.873   0.062  0.00  0.00    +0.290 A 
ATOM     18  O   UNL     1      -2.718   7.023  -0.006  0.00  0.00    -0.260 OA
ATOM     19  S   UNL     1      -2.208   4.402  -0.097  0.00  0.00    -0.024 S 
ATOM     20 CL   UNL     1      -6.199   3.472   0.614  0.00  0.00    -0.063 Cl
ENDBRANCH  12  13
ENDBRANCH   3  11
TORSDOF 3
