REMARK  Name = ZINC65918711
REMARK  10 active torsions:
REMARK  status: ('A' for Active; 'I' for Inactive)
REMARK    1  A    between atoms: C_1  and  C_2
REMARK    2  A    between atoms: C_2  and  C_3
REMARK    3  A    between atoms: C_2  and  C_4
REMARK    4  A    between atoms: C_4  and  C_5
REMARK    5  A    between atoms: C_5  and  S_6
REMARK    6  A    between atoms: S_6  and  C_7
REMARK    7  A    between atoms: C_10  and  C_16
REMARK    8  A    between atoms: C_12  and  N_13
REMARK    9  A    between atoms: N_18  and  N_19
REMARK   10  A    between atoms: N_22  and  C_23
REMARK                            x       y       z     vdW  Elec       q    Type
REMARK                         _______ _______ _______ _____ _____    ______ ____
ROOT
ATOM      1  C   UNL     1      -2.929  -4.430  -0.269  0.00  0.00    +0.038 A 
ATOM      2  C   UNL     1      -1.656  -4.986  -0.362  0.00  0.00    +0.018 A 
ATOM      3  C   UNL     1      -1.504  -6.338  -0.486  0.00  0.00    +0.014 A 
ATOM      4  C   UNL     1      -2.628  -7.169  -0.520  0.00  0.00    +0.040 A 
ATOM      5  C   UNL     1      -3.908  -6.613  -0.426  0.00  0.00    +0.047 A 
ATOM      6  C   UNL     1      -4.054  -5.251  -0.295  0.00  0.00    +0.140 A 
ENDROOT
BRANCH   4   7
ATOM      7  C   UNL     1      -2.464  -8.628  -0.655  0.00  0.00    +0.260 C 
ATOM      8  O   UNL     1      -3.442  -9.350  -0.685  0.00  0.00    -0.269 OA
ATOM      9  N   UNL     1      -1.230  -9.162  -0.747  0.00  0.00    -0.229 N 
ATOM     10  H   UNL     1      -0.450  -8.586  -0.723  0.00  0.00    +0.173 HD
BRANCH   9  11
ATOM     11  N   UNL     1      -1.074 -10.549  -0.875  0.00  0.00    -0.218 N 
ATOM     12  C   UNL     1       0.160 -11.082  -0.966  0.00  0.00    +0.316 C 
ATOM     13  O   UNL     1       0.295 -12.286  -1.078  0.00  0.00    -0.251 OA
ATOM     14  N   UNL     1       1.244 -10.283  -0.934  0.00  0.00    -0.295 N 
ATOM     15  H   UNL     1      -1.855 -11.124  -0.898  0.00  0.00    +0.174 HD
ATOM     16  H   UNL     1       1.136  -9.323  -0.845  0.00  0.00    +0.151 HD
BRANCH  14  17
ATOM     17  C   UNL     1       2.586 -10.863  -1.033  0.00  0.00    +0.074 C 
ATOM     18  C   UNL     1       3.099 -11.250   0.369  0.00  0.00    +0.022 C 
ATOM     19  C   UNL     1       4.611 -10.917   0.326  0.00  0.00    +0.002 C 
ATOM     20  C   UNL     1       4.649  -9.611  -0.505  0.00  0.00    +0.002 C 
ATOM     21  C   UNL     1       3.571  -9.821  -1.589  0.00  0.00    +0.022 C 
ENDBRANCH  14  17
ENDBRANCH   9  11
ENDBRANCH   4   7
BRANCH   6  22
ATOM     22  N   UNL     1      -5.407  -4.658  -0.190  0.00  0.00    +0.058 N 
ATOM     23  O   UNL     1      -6.383  -5.371  -0.214  0.00  0.00    -0.126 OA
ATOM     24  O   UNL     1      -5.535  -3.461  -0.081  0.00  0.00    -0.126 OA
ENDBRANCH   6  22
BRANCH   1  25
ATOM     25  S   UNL     1      -3.118  -2.686  -0.108  0.00  0.00    -0.123 S 
BRANCH  25  26
ATOM     26  C   UNL     1      -1.416  -2.058  -0.121  0.00  0.00    +0.075 C 
BRANCH  26  27
ATOM     27  C   UNL     1      -1.433  -0.534   0.013  0.00  0.00    +0.014 C 
BRANCH  27  29
ATOM     28  C   UNL     1      -0.019   1.526   0.010  0.00  0.00    +0.007 C 
ATOM     29  C   UNL     1       0.002  -0.004   0.002  0.00  0.00    -0.016 C 
ATOM     30  C   UNL     1       0.742  -0.511   1.242  0.00  0.00    +0.007 C 
ENDBRANCH  27  29
ENDBRANCH  26  27
ENDBRANCH  25  26
ENDBRANCH   1  25
TORSDOF 8
