REMARK  Name = ZINC14463859
REMARK  3 active torsions:
REMARK  status: ('A' for Active; 'I' for Inactive)
REMARK    1  A    between atoms: C_1  and  C_2
REMARK    2  A    between atoms: C_5  and  O_28
REMARK    3  A    between atoms: C_15  and  C_18
REMARK                            x       y       z     vdW  Elec       q    Type
REMARK                         _______ _______ _______ _____ _____    ______ ____
ROOT
ATOM      1  C   UNL     1       4.036   2.880  -1.410  0.00  0.00    +0.044 C 
ATOM      2  C   UNL     1       3.128   2.390  -0.311  0.00  0.00    -0.045 A 
ATOM      3  C   UNL     1       3.565   2.419   0.997  0.00  0.00    +0.007 A 
ATOM      4  C   UNL     1       2.740   1.972   2.013  0.00  0.00    +0.047 A 
ATOM      5  C   UNL     1       1.477   1.495   1.710  0.00  0.00    +0.138 A 
ATOM      6  C   UNL     1       1.034   1.465   0.385  0.00  0.00    +0.074 A 
ATOM      7  C   UNL     1       1.861   1.916  -0.627  0.00  0.00    -0.013 A 
ATOM      8  C   UNL     1       1.448   1.921  -2.069  0.00  0.00    +0.049 C 
ATOM      9  C   UNL     1       1.191   3.332  -2.545  0.00  0.00    -0.023 C 
ATOM     10  C   UNL     1       0.152   3.365  -3.341  0.00  0.00    -0.030 C 
ATOM     11  C   UNL     1      -0.430   1.976  -3.515  0.00  0.00    +0.033 C 
ATOM     12  C   UNL     1       0.098   1.202  -2.275  0.00  0.00    +0.029 C 
ATOM     13  C   UNL     1      -0.822   1.524  -1.095  0.00  0.00    +0.106 C 
ATOM     14  N   UNL     1      -0.249   0.972   0.133  0.00  0.00    -0.334 N 
ATOM     15  H   UNL     1      -0.251  -0.037   0.111  0.00  0.00    +0.147 HD
ENDROOT
BRANCH  13  16
ATOM     16  C   UNL     1      -0.958   3.019  -0.958  0.00  0.00    -0.019 A 
ATOM     17  C   UNL     1      -0.072   3.720  -0.197  0.00  0.00    +0.006 A 
ATOM     18  C   UNL     1      -0.178   5.103  -0.064  0.00  0.00    +0.001 A 
ATOM     19  C   UNL     1      -1.177   5.792  -0.681  0.00  0.00    +0.008 A 
ATOM     20  C   UNL     1      -2.113   5.102  -1.469  0.00  0.00    -0.018 A 
ATOM     21  C   UNL     1      -2.002   3.696  -1.610  0.00  0.00    -0.013 A 
ATOM     22  C   UNL     1      -2.939   3.006  -2.398  0.00  0.00    +0.009 A 
ATOM     23  C   UNL     1      -3.938   3.695  -3.014  0.00  0.00    +0.001 A 
ATOM     24  C   UNL     1      -4.047   5.078  -2.876  0.00  0.00    +0.001 A 
ATOM     25  C   UNL     1      -3.159   5.779  -2.120  0.00  0.00    +0.008 A 
ENDBRANCH  13  16
BRANCH   5  26
ATOM     26  O   UNL     1       0.663   1.054   2.707  0.00  0.00    -0.505 OA
ATOM     27  H   UNL     1       0.758   0.112   2.903  0.00  0.00    +0.292 HD
ENDBRANCH   5  26
TORSDOF 2
