REMARK  Name = ZINC27902593
REMARK  13 active torsions:
REMARK  status: ('A' for Active; 'I' for Inactive)
REMARK    1  A    between atoms: C_1  and  C_2
REMARK    2  A    between atoms: C_2  and  O_3
REMARK    3  A    between atoms: O_3  and  C_4
REMARK    4  A    between atoms: C_4  and  C_6
REMARK    5  A    between atoms: C_7  and  C_30
REMARK    6  A    between atoms: C_10  and  N_11
REMARK    7  A    between atoms: C_12  and  C_14
REMARK    8  A    between atoms: C_14  and  C_16
REMARK    9  A    between atoms: C_14  and  N_17
REMARK   10  A    between atoms: N_20  and  C_23
REMARK   11  A    between atoms: C_23  and  C_24
REMARK   12  A    between atoms: N_26  and  C_27
REMARK   13  A    between atoms: C_27  and  C_28
REMARK                            x       y       z     vdW  Elec       q    Type
REMARK                         _______ _______ _______ _____ _____    ______ ____
ROOT
ATOM      1  N   UNL     1      -1.169   4.961   0.040  0.00  0.00    -0.278 N 
ATOM      2  C   UNL     1      -2.509   5.109   0.053  0.00  0.00    +0.235 C 
ATOM      3  O   UNL     1      -3.227   4.133   0.055  0.00  0.00    -0.274 OA
ATOM      4  H   UNL     1      -0.517   5.847   0.038  0.00  0.00    +0.155 HD
ENDROOT
BRANCH   1   9
ATOM      5  C   UNL     1       0.732   3.337   0.013  0.00  0.00    +0.091 A 
ATOM      6  C   UNL     1       1.031   1.924   0.003  0.00  0.00    -0.021 A 
ATOM      7  C   UNL     1      -0.013   1.076   0.008  0.00  0.00    +0.051 A 
ATOM      8  S   UNL     1      -1.424   2.161   0.019  0.00  0.00    -0.081 S 
ATOM      9  C   UNL     1      -0.613   3.691   0.028  0.00  0.00    +0.086 A 
BRANCH   6  10
ATOM     10  C   UNL     1       2.452   1.422  -0.014  0.00  0.00    +0.020 C 
ATOM     11  C   UNL     1       2.668  -0.077  -0.228  0.00  0.00    +0.009 C 
ATOM     12  C   UNL     1       2.903   0.541   1.152  0.00  0.00    +0.009 C 
ENDBRANCH   6  10
BRANCH   5  13
ATOM     13  C   UNL     1       1.793   4.347   0.008  0.00  0.00    +0.342 C 
ATOM     14  O   UNL     1       2.223   4.772  -1.048  0.00  0.00    -0.245 OA
BRANCH  13  15
ATOM     15  O   UNL     1       2.293   4.806   1.173  0.00  0.00    -0.461 OA
BRANCH  15  17
ATOM     16  C   UNL     1       3.780   6.202   2.504  0.00  0.00    +0.048 C 
ATOM     17  C   UNL     1       3.342   5.806   1.092  0.00  0.00    +0.229 C 
ENDBRANCH  15  17
ENDBRANCH  13  15
ENDBRANCH   5  13
ENDBRANCH   1   9
BRANCH   2  18
ATOM     18  C   UNL     1      -3.113   6.490   0.067  0.00  0.00    +0.140 C 
ATOM     19  C   UNL     1      -2.669   7.253  -1.183  0.00  0.00    +0.034 C 
BRANCH  18  20
ATOM     20  N   UNL     1      -4.578   6.383   0.080  0.00  0.00    -0.295 NA
ATOM     21  C   UNL     1      -5.067   5.691  -1.121  0.00  0.00    +0.066 C 
ATOM     22  C   UNL     1      -6.586   5.530  -1.031  0.00  0.00    -0.063 C 
ATOM     23  N   UNL     1      -7.210   6.854  -0.899  0.00  0.00    +0.387 N 
ATOM     24  C   UNL     1      -6.721   7.545   0.303  0.00  0.00    -0.063 C 
ATOM     25  C   UNL     1      -5.202   7.707   0.213  0.00  0.00    +0.066 C 
ATOM     26  H   UNL     1      -6.924   7.454  -1.776  0.00  0.00    -0.081 HD
BRANCH  23  27
ATOM     27  C   UNL     1      -8.675   6.747  -0.885  0.00  0.00    +0.019 C 
BRANCH  27  28
ATOM     28  C   UNL     1      -9.155   6.261  -2.228  0.00  0.00    +0.197 C 
ATOM     29  O   UNL     1      -8.356   6.027  -3.110  0.00  0.00    -0.278 OA
ATOM     30  N   UNL     1     -10.473   6.086  -2.450  0.00  0.00    -0.313 N 
ATOM     31  H   UNL     1     -11.198   6.298  -1.650  0.00  0.00    +0.149 HD
BRANCH  30  32
ATOM     32  C   UNL     1     -10.940   5.613  -3.756  0.00  0.00    +0.131 C 
BRANCH  32  33
ATOM     33  C   UNL     1     -12.443   5.503  -3.742  0.00  0.00    -0.016 C 
ATOM     34  C   UNL     1     -13.154   6.129  -4.647  0.00  0.00    +0.005 C 
ENDBRANCH  32  33
ENDBRANCH  30  32
ENDBRANCH  27  28
ENDBRANCH  23  27
ENDBRANCH  18  20
ENDBRANCH   2  18
TORSDOF 11
