REMARK  Name = ZINC06321011
REMARK  10 active torsions:
REMARK  status: ('A' for Active; 'I' for Inactive)
REMARK    1  A    between atoms: C_1  and  C_2
REMARK    2  A    between atoms: C_6  and  C_15
REMARK    3  A    between atoms: C_13  and  C_14
REMARK    4  A    between atoms: C_15  and  C_17
REMARK    5  A    between atoms: C_15  and  N_73
REMARK    6  A    between atoms: N_21  and  C_22
REMARK    7  A    between atoms: C_28  and  C_29
REMARK    8  A    between atoms: C_28  and  N_73
REMARK    9  A    between atoms: C_35  and  C_36
REMARK   10  A    between atoms: C_35  and  N_73
REMARK                            x       y       z     vdW  Elec       q    Type
REMARK                         _______ _______ _______ _____ _____    ______ ____
ROOT
ATOM      1  C   UNL     1      -1.329   2.405   2.169  0.00  0.00    +0.040 C 
ENDROOT
BRANCH   1   7
ATOM      2  C   UNL     1       4.759   6.694   2.563  0.00  0.00    +0.044 C 
ATOM      3  C   UNL     1       3.273   6.536   2.365  0.00  0.00    -0.047 A 
ATOM      4  C   UNL     1       2.711   5.292   2.426  0.00  0.00    +0.013 A 
ATOM      5  C   UNL     1       1.333   5.145   2.242  0.00  0.00    -0.001 A 
ATOM      6  C   UNL     1       0.697   3.827   2.301  0.00  0.00    +0.017 A 
ATOM      7  C   UNL     1      -0.643   3.746   2.115  0.00  0.00    +0.011 A 
ATOM      8  C   UNL     1      -1.399   4.912   1.866  0.00  0.00    +0.251 A 
ATOM      9  O   UNL     1      -2.602   4.815   1.697  0.00  0.00    -0.268 OA
ATOM     10  N   UNL     1      -0.825   6.127   1.815  0.00  0.00    -0.322 N 
ATOM     11  H   UNL     1      -1.374   6.908   1.645  0.00  0.00    +0.169 HD
ATOM     12  C   UNL     1       0.533   6.277   1.996  0.00  0.00    +0.049 A 
ATOM     13  C   UNL     1       1.128   7.533   1.938  0.00  0.00    +0.030 A 
ATOM     14  C   UNL     1       2.489   7.655   2.123  0.00  0.00    -0.046 A 
ATOM     15  C   UNL     1       3.131   9.017   2.060  0.00  0.00    +0.044 C 
ENDBRANCH   1   7
BRANCH   1  16
ATOM     16  C   UNL     1      -2.482   2.468   3.137  0.00  0.00    +0.143 A 
ATOM     17  N   UNL     1      -3.699   2.881   2.879  0.00  0.00    -0.115 NA
ATOM     18  N   UNL     1      -4.391   2.781   3.961  0.00  0.00    -0.023 NA
ATOM     19  N   UNL     1      -3.644   2.322   4.905  0.00  0.00    -0.044 NA
ATOM     20  N   UNL     1      -2.460   2.117   4.436  0.00  0.00    -0.227 N 
BRANCH  20  21
ATOM     21  C   UNL     1      -1.308   1.598   5.179  0.00  0.00    +0.111 C 
ATOM     22  C   UNL     1      -1.637   0.207   5.723  0.00  0.00    +0.027 C 
ATOM     23  C   UNL     1      -0.434  -0.335   6.498  0.00  0.00    +0.002 C 
ATOM     24  C   UNL     1      -0.112   0.605   7.662  0.00  0.00    +0.000 C 
ATOM     25  C   UNL     1       0.216   1.997   7.117  0.00  0.00    +0.002 C 
ATOM     26  C   UNL     1      -0.986   2.538   6.342  0.00  0.00    +0.027 C 
ENDBRANCH  20  21
ENDBRANCH   1  16
BRANCH   1  27
ATOM     27  N   UNL     1      -1.853   2.073   0.827  0.00  0.00    +0.397 N 
ATOM     28  H   UNL     1      -2.692   2.637   0.648  0.00  0.00    -0.079 HD
BRANCH  27  29
ATOM     29  C   UNL     1      -0.839   2.381  -0.202  0.00  0.00    -0.041 C 
BRANCH  29  30
ATOM     30  C   UNL     1      -1.101   3.767  -0.733  0.00  0.00    -0.064 A 
ATOM     31  C   UNL     1      -2.344   4.087  -1.247  0.00  0.00    +0.002 A 
ATOM     32  C   UNL     1      -2.586   5.360  -1.729  0.00  0.00    +0.000 A 
ATOM     33  C   UNL     1      -1.582   6.310  -1.706  0.00  0.00    +0.000 A 
ATOM     34  C   UNL     1      -0.337   5.988  -1.197  0.00  0.00    +0.000 A 
ATOM     35  C   UNL     1      -0.097   4.717  -0.710  0.00  0.00    +0.002 A 
ENDBRANCH  29  30
ENDBRANCH  27  29
BRANCH  27  36
ATOM     36  C   UNL     1      -2.216   0.641   0.767  0.00  0.00    -0.001 C 
BRANCH  36  37
ATOM     37  C   UNL     1      -3.400   0.401   1.668  0.00  0.00    +0.089 A 
ATOM     38  C   UNL     1      -4.693   0.499   1.310  0.00  0.00    +0.042 A 
ATOM     39  C   UNL     1      -5.460   0.186   2.456  0.00  0.00    +0.041 A 
ATOM     40  C   UNL     1      -4.590  -0.084   3.445  0.00  0.00    +0.195 A 
ATOM     41  O   UNL     1      -3.344   0.049   2.962  0.00  0.00    -0.470 OA
ENDBRANCH  36  37
ENDBRANCH  27  36
ENDBRANCH   1  27
TORSDOF 8
