REMARK  Name = ZINC04091837
REMARK  8 active torsions:
REMARK  status: ('A' for Active; 'I' for Inactive)
REMARK    1  A    between atoms: C_1  and  C_2
REMARK    2  A    between atoms: C_2  and  N_3
REMARK    3  A    between atoms: N_3  and  C_4
REMARK    4  A    between atoms: N_3  and  C_6
REMARK    5  A    between atoms: C_4  and  C_5
REMARK    6  A    between atoms: C_9  and  C_12
REMARK    7  A    between atoms: C_23  and  C_24
REMARK    8  A    between atoms: C_23  and  N_62
REMARK                            x       y       z     vdW  Elec       q    Type
REMARK                         _______ _______ _______ _____ _____    ______ ____
ROOT
ATOM      1  C   UNL     1       2.452   3.935  -0.000  0.00  0.00    +0.190 C 
ATOM      2  N   UNL     1       2.245   5.222  -0.688  0.00  0.00    -0.316 N 
ATOM      3  C   UNL     1       2.315   5.207  -2.057  0.00  0.00    +0.080 A 
ATOM      4  C   UNL     1       3.014   4.225  -2.775  0.00  0.00    +0.068 A 
ATOM      5  C   UNL     1       2.991   4.364  -4.221  0.00  0.00    -0.027 A 
ATOM      6  C   UNL     1       2.294   5.421  -4.698  0.00  0.00    -0.021 A 
ATOM      7  S   UNL     1       1.665   6.241  -3.258  0.00  0.00    -0.080 S 
ATOM      8  C   UNL     1       2.113   5.791  -6.136  0.00  0.00    -0.035 C 
ATOM      9  C   UNL     1       3.078   3.614  -6.578  0.00  0.00    -0.073 C 
ATOM     10  C   UNL     1       3.685   3.411  -5.187  0.00  0.00    +0.018 C 
ATOM     11  C   UNL     1       3.689   3.160  -1.999  0.00  0.00    +0.248 C 
ATOM     12  O   UNL     1       4.405   2.338  -2.540  0.00  0.00    -0.270 OA
ATOM     13  N   UNL     1       3.476   3.137  -0.666  0.00  0.00    -0.289 N 
ATOM     14  H   UNL     1       2.069   6.040  -0.196  0.00  0.00    +0.149 HD
ATOM     15  H   UNL     1       4.035   2.560  -0.122  0.00  0.00    +0.151 HD
ATOM     16  N   UNL     1       3.123   5.049  -6.928  0.00  0.00    +0.386 N 
ATOM     17  H   UNL     1       4.056   5.417  -6.708  0.00  0.00    -0.081 HD
ENDROOT
BRANCH   1  21
ATOM     18  C   UNL     1      -1.224   1.755   0.017  0.00  0.00    +0.030 A 
ATOM     19  C   UNL     1      -0.013   1.076   0.008  0.00  0.00    +0.023 A 
ATOM     20  C   UNL     1       1.173   1.783   0.000  0.00  0.00    +0.009 A 
ATOM     21  C   UNL     1       1.156   3.166   0.008  0.00  0.00    -0.009 A 
ATOM     22  C   UNL     1      -0.049   3.845   0.024  0.00  0.00    +0.009 A 
ATOM     23  C   UNL     1      -1.239   3.144   0.031  0.00  0.00    +0.023 A 
BRANCH  18  24
ATOM     24  N   UNL     1      -2.426   1.042   0.019  0.00  0.00    -0.330 N 
BRANCH  24  26
ATOM     25  C   UNL     1      -4.154   2.018  -1.410  0.00  0.00    +0.024 C 
ATOM     26  C   UNL     1      -3.703   1.760   0.029  0.00  0.00    +0.102 C 
ENDBRANCH  24  26
BRANCH  24  27
ATOM     27  C   UNL     1      -2.409  -0.422   0.011  0.00  0.00    +0.102 C 
ATOM     28  C   UNL     1      -2.396  -0.940   1.451  0.00  0.00    +0.024 C 
ENDBRANCH  24  27
ENDBRANCH  18  24
ENDBRANCH   1  21
BRANCH  16  29
ATOM     29  C   UNL     1       2.865   5.226  -8.373  0.00  0.00    -0.043 C 
BRANCH  29  30
ATOM     30  C   UNL     1       3.135   6.662  -8.744  0.00  0.00    -0.064 A 
ATOM     31  C   UNL     1       2.113   7.591  -8.697  0.00  0.00    +0.002 A 
ATOM     32  C   UNL     1       2.361   8.909  -9.033  0.00  0.00    +0.000 A 
ATOM     33  C   UNL     1       3.630   9.295  -9.425  0.00  0.00    +0.000 A 
ATOM     34  C   UNL     1       4.650   8.364  -9.476  0.00  0.00    +0.000 A 
ATOM     35  C   UNL     1       4.403   7.047  -9.136  0.00  0.00    +0.002 A 
ENDBRANCH  29  30
ENDBRANCH  16  29
TORSDOF 6
