REMARK  Name = ZINC07006540
REMARK  7 active torsions:
REMARK  status: ('A' for Active; 'I' for Inactive)
REMARK    1  A    between atoms: C_3  and  S_22
REMARK    2  A    between atoms: C_6  and  C_7
REMARK    3  A    between atoms: C_7  and  C_8
REMARK    4  A    between atoms: C_8  and  N_9
REMARK    5  A    between atoms: C_10  and  C_12
REMARK    6  A    between atoms: C_15  and  C_18
REMARK    7  A    between atoms: S_22  and  N_25
REMARK                            x       y       z     vdW  Elec       q    Type
REMARK                         _______ _______ _______ _____ _____    ______ ____
ROOT
ATOM      1  C   UNL     1       2.456  -4.277  -0.043  0.00  0.00    +0.109 C 
ENDROOT
BRANCH   1   2
ATOM      2  N   UNL     1       2.429  -2.812  -0.036  0.00  0.00    -0.311 N 
ATOM      3  C   UNL     1       1.250  -2.160  -0.021  0.00  0.00    +0.244 C 
ATOM      4  O   UNL     1       0.208  -2.788  -0.014  0.00  0.00    -0.270 OA
ATOM      5  H   UNL     1       3.260  -2.312  -0.041  0.00  0.00    +0.149 HD
BRANCH   3   6
ATOM      6  C   UNL     1       1.222  -0.682  -0.013  0.00  0.00    +0.037 A 
ATOM      7  C   UNL     1       0.002  -0.004   0.002  0.00  0.00    +0.013 A 
ATOM      8  C   UNL     1      -0.017   1.375   0.010  0.00  0.00    +0.013 A 
ATOM      9  C   UNL     1       1.170   2.086   0.002  0.00  0.00    +0.055 A 
ATOM     10  C   UNL     1       2.383   1.420  -0.013  0.00  0.00    +0.013 A 
ATOM     11  C   UNL     1       2.416   0.041  -0.021  0.00  0.00    +0.013 A 
BRANCH   9  12
ATOM     12  C   UNL     1       1.142   3.593   0.010  0.00  0.00    +0.417 C 
ATOM     13  F   UNL     1       1.146   4.053   1.331  0.00  0.00    -0.166 F 
ATOM     14  F   UNL     1       2.269   4.084  -0.658  0.00  0.00    -0.166 F 
ATOM     15  F   UNL     1      -0.015   4.041  -0.636  0.00  0.00    -0.166 F 
ENDBRANCH   9  12
ENDBRANCH   3   6
ENDBRANCH   1   2
BRANCH   1  16
ATOM     16  C   UNL     1       3.908  -4.760  -0.060  0.00  0.00    +0.054 C 
BRANCH  16  22
ATOM     17  C   UNL     1       3.966  -6.964   1.126  0.00  0.00    +0.005 A 
ATOM     18  C   UNL     1       3.988  -8.346   1.119  0.00  0.00    +0.029 A 
ATOM     19  C   UNL     1       3.988  -9.031  -0.082  0.00  0.00    +0.105 A 
ATOM     20  C   UNL     1       3.963  -8.334  -1.276  0.00  0.00    +0.029 A 
ATOM     21  C   UNL     1       3.937  -6.952  -1.268  0.00  0.00    +0.005 A 
ATOM     22  C   UNL     1       3.936  -6.267  -0.068  0.00  0.00    -0.046 A 
BRANCH  19  23
ATOM     23  S   UNL     1       4.020 -10.793  -0.091  0.00  0.00    +0.056 S 
ATOM     24  O   UNL     1       3.489 -11.215   1.157  0.00  0.00    -0.153 OA
ATOM     25  O   UNL     1       3.463 -11.202  -1.333  0.00  0.00    -0.153 OA
BRANCH  23  26
ATOM     26  N   UNL     1       5.610 -11.254  -0.110  0.00  0.00    -0.204 NA
ATOM     27  H   UNL     1       6.310 -10.582  -0.114  0.00  0.00    +0.144 HD
ATOM     28  H   UNL     1       5.842 -12.195  -0.117  0.00  0.00    +0.144 HD
ENDBRANCH  23  26
ENDBRANCH  19  23
ENDBRANCH  16  22
ENDBRANCH   1  16
TORSDOF 7
