REMARK  Name = ZINC06640580
REMARK  7 active torsions:
REMARK  status: ('A' for Active; 'I' for Inactive)
REMARK    1  A    between atoms: C_1  and  C_2
REMARK    2  A    between atoms: C_5  and  C_7
REMARK    3  A    between atoms: C_7  and  O_9
REMARK    4  A    between atoms: O_9  and  C_10
REMARK    5  A    between atoms: C_10  and  C_11
REMARK    6  A    between atoms: N_13  and  C_14
REMARK    7  A    between atoms: C_15  and  C_23
REMARK                            x       y       z     vdW  Elec       q    Type
REMARK                         _______ _______ _______ _____ _____    ______ ____
ROOT
ATOM      1  C   UNL     1      -2.941  -2.334   0.018  0.00  0.00    +0.084 A 
ATOM      2  C   UNL     1      -3.374  -3.652   0.009  0.00  0.00    +0.068 A 
ATOM      3  C   UNL     1      -4.807  -3.889   0.026  0.00  0.00    -0.023 A 
ATOM      4  C   UNL     1      -5.573  -2.777   0.039  0.00  0.00    -0.004 A 
ATOM      5  S   UNL     1      -4.421  -1.433   0.036  0.00  0.00    -0.077 S 
ATOM      6  C   UNL     1      -7.069  -2.711   0.052  0.00  0.00    +0.043 C 
ATOM      7  C   UNL     1      -7.618  -4.093  -0.329  0.00  0.00    +0.005 C 
ATOM      8  C   UNL     1      -6.888  -5.158   0.495  0.00  0.00    +0.005 C 
ATOM      9  C   UNL     1      -5.437  -5.276   0.025  0.00  0.00    +0.037 C 
ENDROOT
BRANCH   2  10
ATOM     10  C   UNL     1      -2.420  -4.766  -0.013  0.00  0.00    +0.244 C 
ATOM     11  O   UNL     1      -2.013  -5.239   1.032  0.00  0.00    -0.270 OA
ATOM     12  N   UNL     1      -1.993  -5.265  -1.190  0.00  0.00    -0.325 N 
ATOM     13  H   UNL     1      -2.318  -4.888  -2.022  0.00  0.00    +0.145 HD
ATOM     14  H   UNL     1      -1.362  -6.002  -1.204  0.00  0.00    +0.145 HD
ENDBRANCH   2  10
BRANCH   1  17
ATOM     15  C   UNL     1      -1.412  -0.526   0.013  0.00  0.00    +0.255 C 
ATOM     16  O   UNL     1      -2.344   0.250   0.026  0.00  0.00    -0.272 OA
ATOM     17  N   UNL     1      -1.640  -1.854   0.008  0.00  0.00    -0.277 N 
ATOM     18  H   UNL     1      -0.894  -2.474  -0.003  0.00  0.00    +0.155 HD
BRANCH  15  19
ATOM     19  C   UNL     1       0.002  -0.004   0.002  0.00  0.00    +0.328 C 
BRANCH  19  20
ATOM     20  O   UNL     1      -0.018   1.448   0.010  0.00  0.00    -0.455 OA
BRANCH  20  21
ATOM     21  C   UNL     1       1.170   2.073   0.002  0.00  0.00    +0.311 C 
ATOM     22  O   UNL     1       2.192   1.429  -0.011  0.00  0.00    -0.251 OA
BRANCH  21  26
ATOM     23  C   UNL     1       2.784   5.535   0.781  0.00  0.00    +0.008 C 
ATOM     24  C   UNL     1       2.612   4.233  -0.002  0.00  0.00    +0.000 C 
ATOM     25  C   UNL     1       1.735   4.273  -1.256  0.00  0.00    +0.019 C 
ATOM     26  C   UNL     1       1.228   3.579   0.010  0.00  0.00    +0.101 C 
ENDBRANCH  21  26
ENDBRANCH  20  21
ENDBRANCH  19  20
ENDBRANCH  15  19
ENDBRANCH   1  17
TORSDOF 6
