REMARK  Name = ZINC02193909
REMARK  2 active torsions:
REMARK  status: ('A' for Active; 'I' for Inactive)
REMARK    1  A    between atoms: C_6  and  C_7
REMARK    2  A    between atoms: C_10  and  C_17
REMARK                            x       y       z     vdW  Elec       q    Type
REMARK                         _______ _______ _______ _____ _____    ______ ____
ROOT
ATOM      1  C   UNL     1      -1.293  -0.775   0.011  0.00  0.00    +0.148 C 
ATOM      2  C   UNL     1      -1.374  -1.667  -1.234  0.00  0.00    +0.088 C 
ATOM      3  C   UNL     1      -2.400  -2.750  -1.060  0.00  0.00    +0.055 C 
ATOM      4  N   UNL     1      -2.647  -3.308   0.095  0.00  0.00    -0.214 NA
ATOM      5  C   UNL     1      -2.002  -2.841   1.197  0.00  0.00    +0.270 A 
ATOM      6  N   UNL     1      -1.346  -1.637   1.188  0.00  0.00    -0.202 N 
ATOM      7  N   UNL     1      -0.815  -1.489   2.465  0.00  0.00    -0.042 NA
ATOM      8  N   UNL     1      -1.172  -2.535   3.137  0.00  0.00    -0.021 NA
ATOM      9  N   UNL     1      -1.874  -3.331   2.402  0.00  0.00    -0.088 NA
ENDROOT
BRANCH   1  15
ATOM     10  C   UNL     1      -0.017   1.378   0.010  0.00  0.00    +0.007 A 
ATOM     11  C   UNL     1       1.171   2.086   0.002  0.00  0.00    +0.020 A 
ATOM     12  C   UNL     1       2.378   1.410  -0.013  0.00  0.00    +0.041 A 
ATOM     13  C   UNL     1       2.396   0.027  -0.021  0.00  0.00    +0.020 A 
ATOM     14  C   UNL     1       1.208  -0.679  -0.013  0.00  0.00    +0.007 A 
ATOM     15  C   UNL     1       0.002  -0.004   0.002  0.00  0.00    -0.022 A 
ATOM     16 CL   UNL     1       3.870   2.298  -0.023  0.00  0.00    -0.084 Cl
ENDBRANCH   1  15
BRANCH   3  17
ATOM     17  C   UNL     1      -3.159  -3.199  -2.237  0.00  0.00    -0.003 A 
ATOM     18  C   UNL     1      -2.916  -2.627  -3.490  0.00  0.00    +0.011 A 
ATOM     19  C   UNL     1      -3.631  -3.053  -4.589  0.00  0.00    +0.016 A 
ATOM     20  C   UNL     1      -4.587  -4.046  -4.455  0.00  0.00    +0.018 A 
ATOM     21  C   UNL     1      -4.833  -4.618  -3.217  0.00  0.00    +0.016 A 
ATOM     22  C   UNL     1      -4.122  -4.205  -2.111  0.00  0.00    +0.011 A 
ATOM     23 BR   UNL     1      -5.563  -4.623  -5.969  0.00  0.00    -0.050 Br
ENDBRANCH   3  17
TORSDOF 2
