REMARK  Name = ZINC27383400
REMARK  10 active torsions:
REMARK  status: ('A' for Active; 'I' for Inactive)
REMARK    1  A    between atoms: C_1  and  C_2
REMARK    2  A    between atoms: C_2  and  O_3
REMARK    3  A    between atoms: O_3  and  C_4
REMARK    4  A    between atoms: C_4  and  C_6
REMARK    5  A    between atoms: C_7  and  C_32
REMARK    6  A    between atoms: C_12  and  C_16
REMARK    7  A    between atoms: C_16  and  C_18
REMARK    8  A    between atoms: C_16  and  N_19
REMARK    9  A    between atoms: N_22  and  C_25
REMARK   10  A    between atoms: C_29  and  C_31
REMARK                            x       y       z     vdW  Elec       q    Type
REMARK                         _______ _______ _______ _____ _____    ______ ____
ROOT
ATOM      1  C   UNL     1      -7.666   0.749   6.620  0.00  0.00    +0.102 A 
ATOM      2  C   UNL     1      -8.341  -0.144   5.839  0.00  0.00    -0.015 A 
ATOM      3  C   UNL     1      -7.784  -0.571   4.632  0.00  0.00    +0.076 A 
ATOM      4  C   UNL     1      -8.328  -1.521   3.634  0.00  0.00    +0.282 A 
ATOM      5  O   UNL     1      -9.409  -2.056   3.805  0.00  0.00    -0.265 OA
ATOM      6  N   UNL     1      -7.595  -1.779   2.533  0.00  0.00    -0.197 NA
ATOM      7  C   UNL     1      -6.391  -1.189   2.333  0.00  0.00    +0.098 A 
ATOM      8  N   UNL     1      -5.881  -0.351   3.194  0.00  0.00    -0.339 N 
ATOM      9  C   UNL     1      -6.521  -0.024   4.309  0.00  0.00    +0.092 A 
ATOM     10  S   UNL     1      -6.176   1.045   5.684  0.00  0.00    -0.064 S 
ATOM     11  C   UNL     1      -9.685  -0.666   6.277  0.00  0.00    +0.046 C 
ATOM     12  H   UNL     1      -4.897   0.102   3.003  0.00  0.00    +0.167 HD
ENDROOT
BRANCH   1  13
ATOM     13  C   UNL     1      -8.066   1.321   7.908  0.00  0.00    +0.346 C 
ATOM     14  O   UNL     1      -9.128   1.006   8.410  0.00  0.00    -0.244 OA
BRANCH  13  15
ATOM     15  O   UNL     1      -7.255   2.196   8.537  0.00  0.00    -0.461 OA
BRANCH  15  17
ATOM     16  C   UNL     1      -6.671   3.692  10.368  0.00  0.00    +0.048 C 
ATOM     17  C   UNL     1      -7.715   2.723   9.810  0.00  0.00    +0.229 C 
ENDBRANCH  15  17
ENDBRANCH  13  15
ENDBRANCH   1  13
BRANCH   7  18
ATOM     18  C   UNL     1      -5.616  -1.515   1.082  0.00  0.00    -0.004 C 
ATOM     19  C   UNL     1      -6.481  -1.220  -0.145  0.00  0.00    -0.005 C 
BRANCH  18  20
ATOM     20  N   UNL     1      -4.399  -0.695   1.032  0.00  0.00    +0.388 N 
ATOM     21  C   UNL     1      -3.430  -1.127   2.049  0.00  0.00    -0.059 C 
ATOM     22  C   UNL     1      -2.213  -0.200   2.018  0.00  0.00    +0.086 C 
ATOM     23  N   UNL     1      -1.613  -0.228   0.676  0.00  0.00    -0.333 N 
ATOM     24  C   UNL     1      -2.582   0.204  -0.340  0.00  0.00    +0.086 C 
ATOM     25  C   UNL     1      -3.799  -0.723  -0.309  0.00  0.00    -0.059 C 
ATOM     26  H   UNL     1      -4.683   0.344   1.255  0.00  0.00    -0.081 HD
BRANCH  23  27
ATOM     27  C   UNL     1      -0.455   0.552   0.629  0.00  0.00    +0.030 A 
ATOM     28  C   UNL     1      -0.022   1.224   1.765  0.00  0.00    +0.023 A 
ATOM     29  C   UNL     1       1.126   1.991   1.716  0.00  0.00    +0.002 A 
ATOM     30  C   UNL     1       1.841   2.094   0.537  0.00  0.00    +0.003 A 
ATOM     31  C   UNL     1       1.409   1.430  -0.597  0.00  0.00    -0.049 A 
ATOM     32  C   UNL     1       0.262   0.662  -0.555  0.00  0.00    +0.026 A 
ATOM     33  C   UNL     1       2.192   1.545  -1.880  0.00  0.00    +0.044 C 
ENDBRANCH  23  27
ENDBRANCH  18  20
ENDBRANCH   7  18
TORSDOF 6
