REMARK  Name = ZINC36142660
REMARK  7 active torsions:
REMARK  status: ('A' for Active; 'I' for Inactive)
REMARK    1  A    between atoms: C_1  and  C_2
REMARK    2  A    between atoms: C_2  and  C_3
REMARK    3  A    between atoms: C_7  and  N_9
REMARK    4  A    between atoms: C_11  and  C_16
REMARK    5  A    between atoms: C_19  and  C_22
REMARK    6  A    between atoms: C_22  and  C_23
REMARK    7  A    between atoms: C_22  and  C_24
REMARK                            x       y       z     vdW  Elec       q    Type
REMARK                         _______ _______ _______ _____ _____    ______ ____
ROOT
ATOM      1  C   UNL     1       0.707  -0.490  -1.238  0.00  0.00    -0.045 A 
ATOM      2  C   UNL     1      -0.011  -0.717  -2.392  0.00  0.00    +0.018 A 
ATOM      3  C   UNL     1       0.646  -1.169  -3.539  0.00  0.00    +0.061 A 
ATOM      4  C   UNL     1       2.030  -1.394  -3.520  0.00  0.00    +0.152 A 
ATOM      5  C   UNL     1       2.740  -1.156  -2.344  0.00  0.00    +0.068 A 
ATOM      6  C   UNL     1       2.077  -0.702  -1.215  0.00  0.00    +0.030 A 
ATOM      7  O   UNL     1       2.676  -1.843  -4.622  0.00  0.00    -0.481 OA
ATOM      8  C   UNL     1       2.079  -1.632  -5.901  0.00  0.00    +0.211 C 
ATOM      9  C   UNL     1       0.637  -2.162  -5.883  0.00  0.00    +0.129 C 
ATOM     10  C   UNL     1      -0.101  -1.413  -4.787  0.00  0.00    +0.171 C 
ATOM     11  O   UNL     1      -1.245  -1.037  -4.929  0.00  0.00    -0.292 OA
ENDROOT
BRANCH   8  12
ATOM     12  C   UNL     1       2.870  -2.366  -6.953  0.00  0.00    -0.007 A 
ATOM     13  C   UNL     1       3.367  -3.629  -6.689  0.00  0.00    +0.007 A 
ATOM     14  C   UNL     1       4.093  -4.301  -7.654  0.00  0.00    +0.004 A 
ATOM     15  C   UNL     1       4.323  -3.712  -8.883  0.00  0.00    -0.045 A 
ATOM     16  C   UNL     1       3.826  -2.449  -9.147  0.00  0.00    +0.004 A 
ATOM     17  C   UNL     1       3.096  -1.778  -8.184  0.00  0.00    +0.007 A 
BRANCH  15  18
ATOM     18  C   UNL     1       5.116  -4.444  -9.934  0.00  0.00    +0.013 C 
ATOM     19  C   UNL     1       4.250  -4.642 -11.180  0.00  0.00    +0.012 C 
ATOM     20  C   UNL     1       6.357  -3.627 -10.299  0.00  0.00    +0.012 C 
ENDBRANCH  15  18
ENDBRANCH   8  12
BRANCH   5  21
ATOM     21  N   UNL     1       4.123  -1.371  -2.305  0.00  0.00    -0.355 N 
ATOM     22  H   UNL     1       4.587  -1.685  -3.096  0.00  0.00    +0.142 HD
ATOM     23  H   UNL     1       4.616  -1.205  -1.486  0.00  0.00    +0.142 HD
ENDBRANCH   5  21
BRANCH   1  25
ATOM     24  C   UNL     1      -0.019   1.526   0.010  0.00  0.00    +0.009 C 
ATOM     25  C   UNL     1       0.002  -0.004   0.002  0.00  0.00    +0.032 C 
ENDBRANCH   1  25
TORSDOF 4
