REMARK  Name = ZINC09336049
REMARK  6 active torsions:
REMARK  status: ('A' for Active; 'I' for Inactive)
REMARK    1  A    between atoms: C_1  and  C_2
REMARK    2  A    between atoms: N_11  and  C_15
REMARK    3  A    between atoms: C_15  and  C_16
REMARK    4  A    between atoms: C_18  and  C_21
REMARK    5  A    between atoms: C_26  and  O_27
REMARK    6  A    between atoms: O_27  and  C_28
REMARK                            x       y       z     vdW  Elec       q    Type
REMARK                         _______ _______ _______ _____ _____    ______ ____
ROOT
ATOM      1  C   UNL     1       2.644  -4.282   4.225  0.00  0.00    +0.010 C 
ATOM      2  C   UNL     1       3.828  -5.216   4.486  0.00  0.00    +0.018 C 
ATOM      3  C   UNL     1       3.640  -5.913   5.836  0.00  0.00    +0.006 C 
ATOM      4  C   UNL     1       4.814  -6.862   6.086  0.00  0.00    +0.000 C 
ATOM      5  C   UNL     1       4.864  -7.918   4.980  0.00  0.00    +0.003 C 
ATOM      6  C   UNL     1       5.056  -7.228   3.627  0.00  0.00    +0.035 C 
ATOM      7  C   UNL     1       3.903  -6.262   3.379  0.00  0.00    +0.115 C 
ATOM      8  C   UNL     1       4.056  -5.599   2.030  0.00  0.00    +0.247 C 
ATOM      9  O   UNL     1       4.968  -4.891   1.659  0.00  0.00    -0.273 OA
ATOM     10  N   UNL     1       2.963  -5.959   1.325  0.00  0.00    -0.217 N 
ATOM     11  C   UNL     1       2.157  -6.755   2.038  0.00  0.00    +0.310 C 
ATOM     12  O   UNL     1       1.113  -7.213   1.616  0.00  0.00    -0.252 OA
ATOM     13  N   UNL     1       2.633  -6.993   3.275  0.00  0.00    -0.285 N 
ATOM     14  H   UNL     1       2.220  -7.539   3.962  0.00  0.00    +0.151 HD
ENDROOT
BRANCH  10  15
ATOM     15  C   UNL     1       2.695  -5.536  -0.052  0.00  0.00    +0.195 C 
BRANCH  15  16
ATOM     16  C   UNL     1       1.907  -4.251  -0.038  0.00  0.00    +0.156 A 
ATOM     17  C   UNL     1       2.410  -2.996  -0.037  0.00  0.00    +0.077 A 
ATOM     18  C   UNL     1       1.255  -2.164  -0.021  0.00  0.00    +0.117 A 
ATOM     19  N   UNL     1       0.225  -2.973  -0.009  0.00  0.00    -0.078 NA
ATOM     20  O   UNL     1       0.572  -4.131  -0.024  0.00  0.00    -0.357 OA
BRANCH  18  21
ATOM     21  C   UNL     1       1.225  -0.681  -0.013  0.00  0.00    +0.045 A 
ATOM     22  C   UNL     1       2.415   0.043  -0.021  0.00  0.00    +0.014 A 
ATOM     23  C   UNL     1       2.382   1.422  -0.013  0.00  0.00    +0.001 A 
ATOM     24  C   UNL     1       1.169   2.090   0.002  0.00  0.00    +0.004 A 
ATOM     25  C   UNL     1      -0.017   1.382   0.010  0.00  0.00    +0.046 A 
ATOM     26  C   UNL     1       0.002  -0.004   0.002  0.00  0.00    +0.129 A 
BRANCH  26  27
ATOM     27  O   UNL     1      -1.163  -0.702   0.010  0.00  0.00    -0.494 OA
ATOM     28  C   UNL     1      -2.374   0.058   0.026  0.00  0.00    +0.277 C 
ENDBRANCH  26  27
ENDBRANCH  18  21
ENDBRANCH  15  16
ENDBRANCH  10  15
TORSDOF 4
