REMARK  Name = ZINC62977224
REMARK  13 active torsions:
REMARK  status: ('A' for Active; 'I' for Inactive)
REMARK    1  A    between atoms: C_1  and  C_2
REMARK    2  A    between atoms: C_2  and  N_3
REMARK    3  A    between atoms: N_3  and  C_4
REMARK    4  A    between atoms: N_3  and  C_6
REMARK    5  A    between atoms: C_4  and  C_5
REMARK    6  A    between atoms: C_9  and  C_12
REMARK    7  A    between atoms: C_17  and  C_39
REMARK    8  A    between atoms: C_19  and  O_38
REMARK    9  A    between atoms: C_20  and  C_23
REMARK   10  A    between atoms: C_23  and  N_24
REMARK   11  A    between atoms: N_27  and  C_30
REMARK   12  A    between atoms: C_33  and  O_36
REMARK   13  A    between atoms: O_36  and  C_37
REMARK                            x       y       z     vdW  Elec       q    Type
REMARK                         _______ _______ _______ _____ _____    ______ ____
ROOT
ATOM      1  C   UNL     1      -1.318  -6.126   0.449  0.00  0.00    +0.058 C 
ATOM      2  C   UNL     1      -1.820  -6.735   1.552  0.00  0.00    +0.176 C 
ATOM      3  C   UNL     1      -2.512  -6.075   2.671  0.00  0.00    +0.232 C 
ATOM      4  O   UNL     1      -2.753  -4.888   2.803  0.00  0.00    -0.283 OA
ATOM      5  C   UNL     1      -2.849  -7.173   3.595  0.00  0.00    +0.071 A 
ATOM      6  C   UNL     1      -3.502  -7.217   4.828  0.00  0.00    -0.033 A 
ATOM      7  C   UNL     1      -3.672  -8.412   5.466  0.00  0.00    +0.050 A 
ATOM      8  C   UNL     1      -3.196  -9.587   4.890  0.00  0.00    +0.122 A 
ATOM      9  C   UNL     1      -2.546  -9.559   3.667  0.00  0.00    +0.020 A 
ATOM     10  C   UNL     1      -2.365  -8.351   3.004  0.00  0.00    +0.145 A 
ATOM     11  O   UNL     1      -1.780  -8.061   1.821  0.00  0.00    -0.451 OA
ATOM     12  C   UNL     1      -4.018  -5.947   5.454  0.00  0.00    +0.045 C 
ENDROOT
BRANCH   1  16
ATOM     13  C   UNL     1      -1.202  -1.893   0.234  0.00  0.00    +0.013 A 
ATOM     14  C   UNL     1      -1.488  -2.632  -0.901  0.00  0.00    +0.022 A 
ATOM     15  C   UNL     1      -1.528  -4.009  -0.840  0.00  0.00    +0.010 A 
ATOM     16  C   UNL     1      -1.277  -4.658   0.374  0.00  0.00    -0.021 A 
ATOM     17  C   UNL     1      -0.989  -3.904   1.517  0.00  0.00    +0.010 A 
ATOM     18  C   UNL     1      -0.947  -2.528   1.437  0.00  0.00    +0.022 A 
BRANCH  13  19
ATOM     19  N   UNL     1      -1.163  -0.497   0.163  0.00  0.00    -0.394 NA
ATOM     20  H   UNL     1      -0.938  -0.120   1.071  0.00  0.00    +0.126 HD
BRANCH  19  22
ATOM     21  C   UNL     1      -0.011   1.441  -0.794  0.00  0.00    +0.022 C 
ATOM     22  C   UNL     1      -0.140  -0.084  -0.807  0.00  0.00    +0.081 C 
ENDBRANCH  19  22
BRANCH  19  23
ATOM     23  C   UNL     1      -2.475   0.008  -0.265  0.00  0.00    +0.081 C 
ATOM     24  C   UNL     1      -3.519  -0.315   0.806  0.00  0.00    +0.022 C 
ENDBRANCH  19  23
ENDBRANCH  13  19
ENDBRANCH   1  16
BRANCH   8  25
ATOM     25  O   UNL     1      -3.369 -10.770   5.533  0.00  0.00    -0.506 OA
ATOM     26  H   UNL     1      -4.192 -11.224   5.306  0.00  0.00    +0.292 HD
ENDBRANCH   8  25
BRANCH   9  27
ATOM     27  C   UNL     1      -2.035 -10.838   3.055  0.00  0.00    -0.035 C 
BRANCH  27  28
ATOM     28  N   UNL     1      -3.081 -11.428   2.209  0.00  0.00    +0.385 N 
ATOM     29  C   UNL     1      -4.225 -11.814   3.045  0.00  0.00    -0.059 C 
ATOM     30  C   UNL     1      -5.361 -12.323   2.151  0.00  0.00    +0.086 C 
ATOM     31  N   UNL     1      -4.837 -13.404   1.302  0.00  0.00    -0.333 N 
ATOM     32  C   UNL     1      -3.596 -13.156   0.551  0.00  0.00    +0.086 C 
ATOM     33  C   UNL     1      -2.544 -12.608   1.520  0.00  0.00    -0.059 C 
ATOM     34  H   UNL     1      -3.382 -10.749   1.526  0.00  0.00    -0.081 HD
BRANCH  31  35
ATOM     35  C   UNL     1      -5.500 -14.633   1.210  0.00  0.00    +0.030 A 
ATOM     36  C   UNL     1      -6.732 -14.805   1.827  0.00  0.00    +0.027 A 
ATOM     37  C   UNL     1      -7.386 -16.018   1.736  0.00  0.00    +0.047 A 
ATOM     38  C   UNL     1      -6.813 -17.064   1.029  0.00  0.00    +0.120 A 
ATOM     39  C   UNL     1      -5.582 -16.893   0.413  0.00  0.00    +0.047 A 
ATOM     40  C   UNL     1      -4.929 -15.679   0.498  0.00  0.00    +0.027 A 
BRANCH  38  41
ATOM     41  O   UNL     1      -7.457 -18.258   0.939  0.00  0.00    -0.495 OA
ATOM     42  C   UNL     1      -6.808 -19.292   0.196  0.00  0.00    +0.277 C 
ENDBRANCH  38  41
ENDBRANCH  31  35
ENDBRANCH  27  28
ENDBRANCH   9  27
TORSDOF 9
