REMARK  Name = ZINC20714853
REMARK  9 active torsions:
REMARK  status: ('A' for Active; 'I' for Inactive)
REMARK    1  A    between atoms: C_1  and  C_2
REMARK    2  A    between atoms: C_2  and  C_3
REMARK    3  A    between atoms: C_3  and  N_4
REMARK    4  A    between atoms: N_4  and  C_5
REMARK    5  A    between atoms: C_5  and  C_6
REMARK    6  A    between atoms: C_6  and  C_7
REMARK    7  A    between atoms: C_8  and  C_10
REMARK    8  A    between atoms: C_23  and  C_26
REMARK    9  A    between atoms: C_31  and  C_32
REMARK                            x       y       z     vdW  Elec       q    Type
REMARK                         _______ _______ _______ _____ _____    ______ ____
ROOT
ATOM      1  C   UNL     1       1.028  -0.225   1.341  0.00  0.00    +0.037 A 
ATOM      2  C   UNL     1       1.197   1.161   1.265  0.00  0.00    +0.015 A 
ATOM      3  C   UNL     1       2.442   1.713   1.448  0.00  0.00    +0.024 A 
ATOM      4  C   UNL     1       3.544   0.901   1.710  0.00  0.00    +0.031 A 
ATOM      5  C   UNL     1       3.371  -0.488   1.800  0.00  0.00    -0.019 A 
ATOM      6  C   UNL     1       2.129  -1.042   1.610  0.00  0.00    +0.019 A 
ATOM      7  C   UNL     1       4.562  -1.304   2.122  0.00  0.00    +0.049 C 
ATOM      8  C   UNL     1       4.697  -2.740   1.729  0.00  0.00    -0.023 C 
ATOM      9  C   UNL     1       5.974  -3.009   1.490  0.00  0.00    -0.030 C 
ATOM     10  C   UNL     1       6.821  -1.751   1.696  0.00  0.00    +0.033 C 
ATOM     11  C   UNL     1       5.794  -0.642   1.435  0.00  0.00    +0.029 C 
ATOM     12  C   UNL     1       5.999   0.677   2.158  0.00  0.00    +0.105 C 
ATOM     13  N   UNL     1       4.800   1.489   1.857  0.00  0.00    -0.336 N 
ATOM     14  H   UNL     1       4.888   2.580   1.744  0.00  0.00    +0.147 HD
ENDROOT
BRANCH  12  15
ATOM     15  C   UNL     1       7.236   1.366   1.644  0.00  0.00    -0.024 A 
ATOM     16  C   UNL     1       7.157   2.198   0.542  0.00  0.00    +0.006 A 
ATOM     17  C   UNL     1       8.292   2.830   0.071  0.00  0.00    +0.000 A 
ATOM     18  C   UNL     1       9.507   2.630   0.700  0.00  0.00    +0.000 A 
ATOM     19  C   UNL     1       9.586   1.798   1.800  0.00  0.00    +0.004 A 
ATOM     20  C   UNL     1       8.450   1.170   2.276  0.00  0.00    -0.045 A 
ATOM     21  C   UNL     1       8.535   0.268   3.480  0.00  0.00    +0.044 C 
ENDBRANCH  12  15
BRANCH   1  23
ATOM     22  N   UNL     1      -1.377  -0.311   1.777  0.00  0.00    -0.298 N 
ATOM     23  C   UNL     1      -0.306  -0.821   1.137  0.00  0.00    +0.247 C 
ATOM     24  O   UNL     1      -0.439  -1.773   0.393  0.00  0.00    -0.270 OA
BRANCH  22  25
ATOM     25  C   UNL     1      -2.676  -0.983   1.682  0.00  0.00    +0.108 C 
BRANCH  25  27
ATOM     26  C   UNL     1      -4.210  -2.621   2.779  0.00  0.00    +0.005 C 
ATOM     27  C   UNL     1      -2.854  -1.919   2.878  0.00  0.00    +0.016 C 
ENDBRANCH  25  27
ENDBRANCH  22  25
BRANCH  22  28
ATOM     28  C   UNL     1      -1.243   0.916   2.567  0.00  0.00    +0.108 C 
BRANCH  28  29
ATOM     29  C   UNL     1      -1.724   2.110   1.740  0.00  0.00    +0.016 C 
ATOM     30  C   UNL     1      -1.439   3.406   2.503  0.00  0.00    +0.005 C 
ENDBRANCH  28  29
ENDBRANCH  22  28
ENDBRANCH   1  23
TORSDOF 6
