REMARK  Name = ZINC40003865
REMARK  18 active torsions:
REMARK  status: ('A' for Active; 'I' for Inactive)
REMARK    1  A    between atoms: C_1  and  C_2
REMARK    2  A    between atoms: C_2  and  C_3
REMARK    3  A    between atoms: C_3  and  C_4
REMARK    4  A    between atoms: C_4  and  C_5
REMARK    5  A    between atoms: C_5  and  O_6
REMARK    6  A    between atoms: O_6  and  C_7
REMARK    7  A    between atoms: C_11  and  C_13
REMARK    8  A    between atoms: C_15  and  C_28
REMARK    9  A    between atoms: N_19  and  C_20
REMARK   10  A    between atoms: C_20  and  C_21
REMARK   11  A    between atoms: C_21  and  N_22
REMARK   12  A    between atoms: N_22  and  C_23
REMARK   13  A    between atoms: N_22  and  C_25
REMARK   14  A    between atoms: C_23  and  C_24
REMARK   15  A    between atoms: C_25  and  C_26
REMARK   16  A    between atoms: C_28  and  C_30
REMARK   17  A    between atoms: C_31  and  C_40
REMARK   18  A    between atoms: C_38  and  C_39
REMARK                            x       y       z     vdW  Elec       q    Type
REMARK                         _______ _______ _______ _____ _____    ______ ____
ROOT
ATOM      1  C   UNL     1       2.498  -9.245   4.963  0.00  0.00    +0.145 C 
ATOM      2  C   UNL     1       1.266  -9.534   5.787  0.00  0.00    +0.078 C 
ATOM      3  C   UNL     1       1.644 -10.380   6.772  0.00  0.00    +0.249 C 
ATOM      4  C   UNL     1       3.085 -10.668   6.638  0.00  0.00    +0.288 C 
ATOM      5  O   UNL     1       3.721 -11.397   7.374  0.00  0.00    -0.266 OA
ATOM      6  N   UNL     1       3.591 -10.007   5.580  0.00  0.00    -0.285 N 
ATOM      7  O   UNL     1       0.830 -10.883   7.730  0.00  0.00    -0.282 OA
ENDROOT
BRANCH   1  12
ATOM      8  C   UNL     1       2.968  -5.655   3.882  0.00  0.00    +0.121 A 
ATOM      9  C   UNL     1       3.386  -5.064   5.066  0.00  0.00    +0.045 A 
ATOM     10  C   UNL     1       3.515  -5.828   6.210  0.00  0.00    +0.004 A 
ATOM     11  C   UNL     1       3.228  -7.181   6.176  0.00  0.00    +0.006 A 
ATOM     12  C   UNL     1       2.811  -7.771   4.997  0.00  0.00    -0.019 A 
ATOM     13  C   UNL     1       2.675  -7.010   3.852  0.00  0.00    +0.051 A 
BRANCH   8  14
ATOM     14  O   UNL     1       2.840  -4.905   2.756  0.00  0.00    -0.492 OA
BRANCH  14  15
ATOM     15  C   UNL     1       3.159  -3.516   2.861  0.00  0.00    +0.229 C 
BRANCH  15  16
ATOM     16  C   UNL     1       2.956  -2.842   1.503  0.00  0.00    +0.041 C 
BRANCH  16  17
ATOM     17  C   UNL     1       3.297  -1.355   1.616  0.00  0.00    +0.003 C 
BRANCH  17  19
ATOM     18  C   UNL     1       3.436   0.806   0.370  0.00  0.00    +0.004 C 
ATOM     19  C   UNL     1       3.095  -0.681   0.257  0.00  0.00    -0.003 C 
ENDBRANCH  17  19
ENDBRANCH  16  17
ENDBRANCH  15  16
ENDBRANCH  14  15
ENDBRANCH   8  14
ENDBRANCH   1  12
BRANCH   2  20
ATOM     20  C   UNL     1      -0.084  -9.000   5.562  0.00  0.00    +0.213 C 
ATOM     21  O   UNL     1      -0.350  -7.857   5.893  0.00  0.00    -0.285 OA
BRANCH  20  22
ATOM     22  C   UNL     1      -1.076  -9.813   4.961  0.00  0.00    +0.116 A 
ATOM     23  C   UNL     1      -0.900 -11.084   4.427  0.00  0.00    +0.068 A 
ATOM     24  N   UNL     1      -2.066 -11.502   3.965  0.00  0.00    -0.232 NA
ATOM     25  C   UNL     1      -2.995 -10.568   4.170  0.00  0.00    +0.141 A 
ATOM     26  N   UNL     1      -2.414  -9.502   4.795  0.00  0.00    -0.296 N 
ATOM     27  C   UNL     1      -3.148  -8.407   5.127  0.00  0.00    +0.093 A 
ATOM     28  C   UNL     1      -4.471  -8.353   4.847  0.00  0.00    +0.018 A 
ATOM     29  C   UNL     1      -5.098  -9.431   4.209  0.00  0.00    +0.008 A 
ATOM     30  C   UNL     1      -4.367 -10.530   3.866  0.00  0.00    -0.008 A 
ATOM     31  C   UNL     1      -5.027 -11.700   3.182  0.00  0.00    +0.047 C 
ATOM     32  C   UNL     1       0.395 -11.852   4.383  0.00  0.00    +0.068 C 
ENDBRANCH  20  22
ENDBRANCH   2  20
BRANCH   6  33
ATOM     33  C   UNL     1       4.983 -10.041   5.125  0.00  0.00    +0.090 C 
BRANCH  33  34
ATOM     34  C   UNL     1       5.773  -8.928   5.815  0.00  0.00    -0.060 C 
BRANCH  34  35
ATOM     35  N   UNL     1       7.169  -8.962   5.359  0.00  0.00    +0.380 N 
ATOM     36  H   UNL     1       7.551  -9.883   5.514  0.00  0.00    -0.082 HD
BRANCH  35  37
ATOM     37  C   UNL     1       7.223  -8.645   3.925  0.00  0.00    -0.082 C 
ATOM     38  C   UNL     1       8.652  -8.837   3.414  0.00  0.00    -0.017 C 
ENDBRANCH  35  37
BRANCH  35  39
ATOM     39  C   UNL     1       7.954  -7.973   6.109  0.00  0.00    -0.082 C 
ATOM     40  C   UNL     1       8.009  -8.377   7.583  0.00  0.00    -0.017 C 
ENDBRANCH  35  39
ENDBRANCH  34  35
ENDBRANCH  33  34
ENDBRANCH   6  33
TORSDOF 13
