REMARK  Name = ZINC03453966
REMARK  10 active torsions:
REMARK  status: ('A' for Active; 'I' for Inactive)
REMARK    1  A    between atoms: C_1  and  C_2
REMARK    2  A    between atoms: C_2  and  C_3
REMARK    3  A    between atoms: C_3  and  C_27
REMARK    4  A    between atoms: N_6  and  C_10
REMARK    5  A    between atoms: C_10  and  C_11
REMARK    6  A    between atoms: C_11  and  C_13
REMARK    7  A    between atoms: C_15  and  C_26
REMARK    8  A    between atoms: N_16  and  C_19
REMARK    9  A    between atoms: C_17  and  C_18
REMARK   10  A    between atoms: C_19  and  C_20
REMARK                            x       y       z     vdW  Elec       q    Type
REMARK                         _______ _______ _______ _____ _____    ______ ____
ROOT
ATOM      1  C   UNL     1       5.171   1.377  -8.593  0.00  0.00    +0.138 C 
ATOM      2  C   UNL     1       5.380   1.212  -7.100  0.00  0.00    +0.251 C 
ATOM      3  O   UNL     1       6.264   1.697  -6.426  0.00  0.00    -0.272 OA
ATOM      4  N   UNL     1       4.378   0.415  -6.678  0.00  0.00    -0.216 N 
ATOM      5  C   UNL     1       3.577   0.054  -7.687  0.00  0.00    +0.310 C 
ATOM      6  O   UNL     1       2.607  -0.666  -7.555  0.00  0.00    -0.252 OA
ATOM      7  N   UNL     1       3.963   0.580  -8.864  0.00  0.00    -0.281 N 
ATOM      8  H   UNL     1       3.532   0.454  -9.724  0.00  0.00    +0.152 HD
ENDROOT
BRANCH   1   9
ATOM      9  C   UNL     1       4.939   2.826  -8.938  0.00  0.00    -0.015 A 
ATOM     10  C   UNL     1       6.010   3.641  -9.253  0.00  0.00    +0.006 A 
ATOM     11  C   UNL     1       5.796   4.969  -9.575  0.00  0.00    +0.000 A 
ATOM     12  C   UNL     1       4.513   5.483  -9.572  0.00  0.00    +0.000 A 
ATOM     13  C   UNL     1       3.443   4.668  -9.252  0.00  0.00    +0.000 A 
ATOM     14  C   UNL     1       3.656   3.340  -8.935  0.00  0.00    +0.006 A 
ENDBRANCH   1   9
BRANCH   1  16
ATOM     15  C   UNL     1       6.476  -0.683  -9.137  0.00  0.00    +0.007 C 
ATOM     16  C   UNL     1       6.370   0.826  -9.368  0.00  0.00    +0.037 C 
ENDBRANCH   1  16
BRANCH   4  17
ATOM     17  C   UNL     1       4.193  -0.008  -5.288  0.00  0.00    +0.197 C 
BRANCH  17  18
ATOM     18  C   UNL     1       3.322   0.990  -4.571  0.00  0.00    +0.183 C 
ATOM     19  O   UNL     1       2.896   1.960  -5.163  0.00  0.00    -0.290 OA
BRANCH  18  20
ATOM     20  C   UNL     1       2.987   0.790  -3.159  0.00  0.00    +0.040 A 
ATOM     21  C   UNL     1       3.414  -0.321  -2.298  0.00  0.00    +0.034 A 
ATOM     22  C   UNL     1       2.878  -0.089  -1.088  0.00  0.00    +0.017 A 
ATOM     23  N   UNL     1       2.150   1.065  -1.135  0.00  0.00    -0.345 N 
ATOM     24  C   UNL     1       2.206   1.607  -2.364  0.00  0.00    +0.026 A 
ATOM     25  C   UNL     1       1.533   2.883  -2.799  0.00  0.00    +0.064 C 
ATOM     26  C   UNL     1       3.050  -0.964   0.126  0.00  0.00    +0.063 C 
BRANCH  23  27
ATOM     27  C   UNL     1       1.415   1.635  -0.003  0.00  0.00    +0.153 C 
BRANCH  27  28
ATOM     28  C   UNL     1      -0.013   1.086   0.008  0.00  0.00    +0.138 C 
ATOM     29  C   UNL     1      -0.780   1.606   1.249  0.00  0.00    +0.035 C 
ATOM     30  C   UNL     1      -2.249   1.504   0.749  0.00  0.00    +0.031 C 
ATOM     31  C   UNL     1      -2.107   1.829  -0.754  0.00  0.00    +0.160 C 
ATOM     32  O   UNL     1      -0.746   1.581  -1.124  0.00  0.00    -0.375 OA
ENDBRANCH  27  28
ENDBRANCH  23  27
ENDBRANCH  18  20
ENDBRANCH  17  18
ENDBRANCH   4  17
TORSDOF 7
