REMARK  Name = ZINC13246658
REMARK  5 active torsions:
REMARK  status: ('A' for Active; 'I' for Inactive)
REMARK    1  A    between atoms: C_4  and  C_22
REMARK    2  A    between atoms: C_6  and  S_7
REMARK    3  A    between atoms: S_7  and  N_10
REMARK    4  A    between atoms: C_13  and  C_16
REMARK    5  A    between atoms: C_16  and  N_17
REMARK                            x       y       z     vdW  Elec       q    Type
REMARK                         _______ _______ _______ _____ _____    ______ ____
ROOT
ATOM      1  N   UNL     1      -1.950  -1.145  -1.567  0.00  0.00    -0.103 NA
ATOM      2  C   UNL     1      -3.052  -1.795  -1.850  0.00  0.00    +0.191 A 
ATOM      3  N   UNL     1      -3.591  -2.107  -3.079  0.00  0.00    -0.338 N 
ATOM      4  C   UNL     1      -4.764  -2.801  -3.118  0.00  0.00    +0.008 A 
ATOM      5  C   UNL     1      -5.367  -3.163  -1.985  0.00  0.00    +0.068 A 
ATOM      6  S   UNL     1      -4.254  -2.521  -0.746  0.00  0.00    -0.057 S 
ATOM      7  H   UNL     1      -3.146  -1.839  -3.898  0.00  0.00    +0.167 HD
ENDROOT
BRANCH   1   8
ATOM      8  S   UNL     1      -1.513  -0.903   0.012  0.00  0.00    +0.101 S 
ATOM      9  O   UNL     1      -1.222  -2.184   0.553  0.00  0.00    -0.146 OA
ATOM     10  O   UNL     1      -2.492  -0.042   0.577  0.00  0.00    -0.146 OA
BRANCH   8  16
ATOM     11  C   UNL     1      -0.017   1.380   0.010  0.00  0.00    +0.030 A 
ATOM     12  C   UNL     1       1.167   2.095   0.002  0.00  0.00    +0.023 A 
ATOM     13  C   UNL     1       2.378   1.431  -0.013  0.00  0.00    +0.055 A 
ATOM     14  C   UNL     1       2.404   0.033  -0.021  0.00  0.00    +0.083 A 
ATOM     15  C   UNL     1       1.203  -0.681  -0.013  0.00  0.00    +0.045 A 
ATOM     16  C   UNL     1       0.002  -0.004   0.002  0.00  0.00    +0.113 A 
ATOM     17 CL   UNL     1       3.864   2.330  -0.024  0.00  0.00    -0.083 Cl
BRANCH  14  18
ATOM     18  C   UNL     1       3.692  -0.684  -0.038  0.00  0.00    +0.388 C 
ATOM     19  O   UNL     1       3.712  -1.907  -0.045  0.00  0.00    -0.241 OA
ATOM     20  O   UNL     1       4.742  -0.056  -0.046  0.00  0.00    -0.241 OA
ENDBRANCH  14  18
ENDBRANCH   8  16
ENDBRANCH   1   8
BRANCH   4  21
ATOM     21  C   UNL     1      -5.382  -3.160  -4.445  0.00  0.00    -0.024 C 
BRANCH  21  22
ATOM     22  N   UNL     1      -5.779  -1.933  -5.148  0.00  0.00    +0.383 N 
ATOM     23  C   UNL     1      -4.575  -1.169  -5.564  0.00  0.00    -0.078 C 
ATOM     24  C   UNL     1      -5.101  -0.280  -6.718  0.00  0.00    -0.020 C 
ATOM     25  C   UNL     1      -6.101  -1.210  -7.443  0.00  0.00    -0.020 C 
ATOM     26  C   UNL     1      -6.495  -2.269  -6.397  0.00  0.00    -0.078 C 
ATOM     27  H   UNL     1      -6.364  -1.365  -4.553  0.00  0.00    -0.081 HD
ENDBRANCH  21  22
ENDBRANCH   4  21
TORSDOF 5
