REMARK  Name = ZINC23084501
REMARK  13 active torsions:
REMARK  status: ('A' for Active; 'I' for Inactive)
REMARK    1  A    between atoms: C_1  and  C_2
REMARK    2  A    between atoms: C_2  and  O_3
REMARK    3  A    between atoms: O_3  and  C_4
REMARK    4  A    between atoms: C_4  and  C_6
REMARK    5  A    between atoms: C_7  and  C_35
REMARK    6  A    between atoms: C_12  and  C_16
REMARK    7  A    between atoms: C_16  and  C_18
REMARK    8  A    between atoms: C_16  and  N_19
REMARK    9  A    between atoms: N_22  and  C_25
REMARK   10  A    between atoms: C_25  and  C_26
REMARK   11  A    between atoms: C_29  and  C_32
REMARK   12  A    between atoms: C_32  and  C_33
REMARK   13  A    between atoms: C_32  and  C_34
REMARK                            x       y       z     vdW  Elec       q    Type
REMARK                         _______ _______ _______ _____ _____    ______ ____
ROOT
ATOM      1  C   UNL     1      -2.723   1.794  -4.897  0.00  0.00    -0.004 C 
ATOM      2  C   UNL     1      -3.029   3.273  -4.650  0.00  0.00    -0.005 C 
ENDROOT
BRANCH   1   9
ATOM      3  C   UNL     1       1.897   0.439  -8.998  0.00  0.00    +0.102 A 
ATOM      4  C   UNL     1       0.778   1.165  -9.288  0.00  0.00    -0.015 A 
ATOM      5  C   UNL     1      -0.175   1.399  -8.295  0.00  0.00    +0.076 A 
ATOM      6  C   UNL     1      -1.449   2.149  -8.378  0.00  0.00    +0.282 A 
ATOM      7  O   UNL     1      -1.800   2.671  -9.421  0.00  0.00    -0.265 OA
ATOM      8  N   UNL     1      -2.213   2.234  -7.272  0.00  0.00    -0.197 NA
ATOM      9  C   UNL     1      -1.830   1.661  -6.104  0.00  0.00    +0.098 A 
ATOM     10  N   UNL     1      -0.714   0.993  -5.997  0.00  0.00    -0.339 N 
ATOM     11  C   UNL     1       0.109   0.843  -7.026  0.00  0.00    +0.092 A 
ATOM     12  S   UNL     1       1.669   0.034  -7.275  0.00  0.00    -0.064 S 
ATOM     13  C   UNL     1       0.572   1.713 -10.677  0.00  0.00    +0.046 C 
ATOM     14  H   UNL     1      -0.437   0.537  -5.035  0.00  0.00    +0.167 HD
BRANCH   3  15
ATOM     15  C   UNL     1       3.009   0.081  -9.882  0.00  0.00    +0.346 C 
ATOM     16  O   UNL     1       3.003   0.443 -11.043  0.00  0.00    -0.244 OA
BRANCH  15  17
ATOM     17  O   UNL     1       4.038  -0.651  -9.409  0.00  0.00    -0.461 OA
BRANCH  17  19
ATOM     18  C   UNL     1       6.175  -1.797  -9.628  0.00  0.00    +0.048 C 
ATOM     19  C   UNL     1       5.105  -0.968 -10.341  0.00  0.00    +0.229 C 
ENDBRANCH  17  19
ENDBRANCH  15  17
ENDBRANCH   3  15
ENDBRANCH   1   9
BRANCH   1  20
ATOM     20  N   UNL     1      -2.043   1.233  -3.722  0.00  0.00    +0.388 N 
ATOM     21  C   UNL     1      -0.845   2.012  -3.384  0.00  0.00    -0.062 C 
ATOM     22  C   UNL     1      -0.124   1.350  -2.207  0.00  0.00    +0.066 C 
ATOM     23  N   UNL     1      -1.038   1.270  -1.058  0.00  0.00    -0.302 NA
ATOM     24  C   UNL     1      -2.237   0.491  -1.397  0.00  0.00    +0.066 C 
ATOM     25  C   UNL     1      -2.957   1.153  -2.574  0.00  0.00    -0.062 C 
ATOM     26  H   UNL     1      -1.724   0.211  -3.974  0.00  0.00    -0.081 HD
BRANCH  23  27
ATOM     27  C   UNL     1      -0.359   0.709   0.117  0.00  0.00    +0.119 C 
BRANCH  27  28
ATOM     28  C   UNL     1      -1.239   0.867   1.329  0.00  0.00    -0.033 A 
ATOM     29  C   UNL     1      -1.142   2.003   2.111  0.00  0.00    +0.005 A 
ATOM     30  C   UNL     1      -1.952   2.151   3.220  0.00  0.00    +0.004 A 
ATOM     31  C   UNL     1      -2.855   1.158   3.554  0.00  0.00    -0.045 A 
ATOM     32  C   UNL     1      -2.949   0.019   2.776  0.00  0.00    +0.004 A 
ATOM     33  C   UNL     1      -2.141  -0.126   1.663  0.00  0.00    +0.005 A 
BRANCH  31  34
ATOM     34  C   UNL     1      -3.736   1.317   4.766  0.00  0.00    +0.013 C 
ATOM     35  C   UNL     1      -2.864   1.459   6.016  0.00  0.00    +0.012 C 
ATOM     36  C   UNL     1      -4.604   2.567   4.605  0.00  0.00    +0.012 C 
ENDBRANCH  31  34
ENDBRANCH  27  28
ENDBRANCH  23  27
ENDBRANCH   1  20
TORSDOF 8
