REMARK  Name = ZINC59366484
REMARK  0 active torsions:
REMARK  status: ('A' for Active; 'I' for Inactive)
REMARK                            x       y       z     vdW  Elec       q    Type
REMARK                         _______ _______ _______ _____ _____    ______ ____
ROOT
ATOM      1  C   UNL     1      -0.013   1.086   0.008  0.00  0.00    +0.312 C 
ATOM      2  C   UNL     1      -0.730   1.579   1.267  0.00  0.00    +0.287 C 
ATOM      3  C   UNL     1      -0.468   3.054   1.441  0.00  0.00    +0.273 C 
ATOM      4  O   UNL     1      -1.325   3.771   1.910  0.00  0.00    -0.271 OA
ATOM      5  N   UNL     1       0.718   3.573   1.075  0.00  0.00    -0.237 N 
ATOM      6  C   UNL     1       1.649   2.815   0.472  0.00  0.00    +0.308 C 
ATOM      7  O   UNL     1       2.779   3.246   0.353  0.00  0.00    -0.252 OA
ATOM      8  N   UNL     1       1.361   1.592  -0.002  0.00  0.00    -0.266 N 
ATOM      9  F   UNL     1      -2.106   1.361   1.136  0.00  0.00    -0.215 F 
ATOM     10 BR   UNL     1      -0.054   0.602   2.833  0.00  0.00    -0.033 Br
ATOM     11  F   UNL     1      -0.689   1.549  -1.126  0.00  0.00    -0.220 F 
ATOM     12  H   UNL     1       0.904   4.509   1.249  0.00  0.00    +0.159 HD
ATOM     13  H   UNL     1       2.073   1.037  -0.357  0.00  0.00    +0.153 HD
ENDROOT
TORSDOF 0
