REMARK  Name = ZINC00803655
REMARK  13 active torsions:
REMARK  status: ('A' for Active; 'I' for Inactive)
REMARK    1  A    between atoms: C_1  and  C_2
REMARK    2  A    between atoms: C_2  and  O_3
REMARK    3  A    between atoms: O_3  and  C_4
REMARK    4  A    between atoms: C_6  and  C_14
REMARK    5  A    between atoms: C_9  and  O_10
REMARK    6  A    between atoms: O_10  and  C_11
REMARK    7  A    between atoms: C_11  and  C_12
REMARK    8  A    between atoms: C_11  and  C_13
REMARK    9  A    between atoms: N_19  and  C_33
REMARK   10  A    between atoms: C_23  and  C_31
REMARK   11  A    between atoms: C_24  and  N_30
REMARK   12  A    between atoms: C_25  and  C_26
REMARK   13  A    between atoms: C_25  and  C_28
REMARK                            x       y       z     vdW  Elec       q    Type
REMARK                         _______ _______ _______ _____ _____    ______ ____
ROOT
ATOM      1  C   UNL     1       2.447  -2.961   0.181  0.00  0.00    +0.068 C 
ATOM      2  C   UNL     1       2.576  -3.807  -1.087  0.00  0.00    +0.044 C 
ATOM      3  C   UNL     1       2.804  -2.952  -2.314  0.00  0.00    +0.093 C 
ATOM      4  N   UNL     1       1.568  -2.742  -3.073  0.00  0.00    -0.301 NA
ATOM      5  C   UNL     1       1.020  -4.035  -3.520  0.00  0.00    +0.111 C 
ATOM      6  C   UNL     1       0.661  -4.830  -2.290  0.00  0.00    -0.007 C 
ATOM      7  C   UNL     1       1.368  -4.694  -1.183  0.00  0.00    -0.026 C 
ATOM      8  C   UNL     1       0.943  -5.395   0.054  0.00  0.00    +0.074 C 
ATOM      9  C   UNL     1       1.448  -4.997   1.250  0.00  0.00    +0.054 C 
ATOM     10  C   UNL     1       2.447  -3.886   1.399  0.00  0.00    +0.188 C 
ATOM     11  C   UNL     1       1.798  -1.845  -4.214  0.00  0.00    +0.105 C 
ENDROOT
BRANCH   1  14
ATOM     12  C   UNL     1      -0.076  -0.246  -0.550  0.00  0.00    +0.162 A 
ATOM     13  C   UNL     1       1.107  -0.966  -0.516  0.00  0.00    +0.053 A 
ATOM     14  C   UNL     1       1.157  -2.183   0.139  0.00  0.00    -0.037 A 
ATOM     15  C   UNL     1       0.025  -2.689   0.750  0.00  0.00    +0.008 A 
ATOM     16  C   UNL     1      -1.160  -1.979   0.714  0.00  0.00    +0.050 A 
ATOM     17  C   UNL     1      -1.215  -0.756   0.065  0.00  0.00    +0.162 A 
BRANCH  12  18
ATOM     18  O   UNL     1      -0.125   0.954  -1.188  0.00  0.00    -0.489 OA
BRANCH  18  20
ATOM     19  C   UNL     1       0.834   2.771  -2.461  0.00  0.00    +0.048 C 
ATOM     20  C   UNL     1       1.082   1.415  -1.797  0.00  0.00    +0.226 C 
ENDBRANCH  18  20
ENDBRANCH  12  18
BRANCH  17  21
ATOM     21  O   UNL     1      -2.381  -0.055   0.030  0.00  0.00    -0.486 OA
BRANCH  21  22
ATOM     22  C   UNL     1      -3.541  -0.698   0.561  0.00  0.00    +0.167 C 
ATOM     23  C   UNL     1      -3.715  -0.304   2.029  0.00  0.00    +0.051 C 
ATOM     24  C   UNL     1      -4.774  -0.264  -0.234  0.00  0.00    +0.051 C 
ENDBRANCH  21  22
ENDBRANCH  17  21
ENDBRANCH   1  14
BRANCH   9  25
ATOM     25  N   UNL     1       1.025  -5.641   2.378  0.00  0.00    -0.358 N 
ATOM     26  H   UNL     1       1.416  -5.342   3.362  0.00  0.00    +0.142 HD
ATOM     27  H   UNL     1       0.293  -6.459   2.303  0.00  0.00    +0.142 HD
ENDBRANCH   9  25
BRANCH  10  28
ATOM     28  C   UNL     1       3.790  -4.466   1.561  0.00  0.00    +0.091 C 
ATOM     29  N   UNL     1       4.826  -4.914   1.685  0.00  0.00    -0.194 NA
ENDBRANCH  10  28
BRANCH  10  30
ATOM     30  C   UNL     1       2.119  -3.099   2.599  0.00  0.00    +0.091 C 
ATOM     31  N   UNL     1       1.865  -2.492   3.525  0.00  0.00    -0.194 NA
ENDBRANCH  10  30
BRANCH   8  32
ATOM     32  C   UNL     1       0.010  -6.479  -0.012  0.00  0.00    +0.101 C 
ATOM     33  N   UNL     1      -0.731  -7.339  -0.065  0.00  0.00    -0.191 NA
ENDBRANCH   8  32
TORSDOF 9
