REMARK  Name = ZINC66502942
REMARK  14 active torsions:
REMARK  status: ('A' for Active; 'I' for Inactive)
REMARK    1  A    between atoms: C_1  and  C_2
REMARK    2  A    between atoms: C_2  and  C_3
REMARK    3  A    between atoms: C_3  and  C_4
REMARK    4  A    between atoms: C_4  and  C_5
REMARK    5  A    between atoms: C_7  and  C_10
REMARK    6  A    between atoms: C_10  and  S_11
REMARK    7  A    between atoms: S_11  and  C_14
REMARK    8  A    between atoms: C_14  and  C_16
REMARK    9  A    between atoms: C_14  and  C_17
REMARK   10  A    between atoms: N_19  and  C_20
REMARK   11  A    between atoms: N_19  and  C_23
REMARK   12  A    between atoms: C_20  and  C_21
REMARK   13  A    between atoms: C_21  and  C_22
REMARK   14  A    between atoms: C_23  and  C_24
REMARK                            x       y       z     vdW  Elec       q    Type
REMARK                         _______ _______ _______ _____ _____    ______ ____
ROOT
ATOM      1  S   UNL     1       1.287  -5.417   5.968  0.00  0.00    -0.013 S 
ATOM      2  O   UNL     1       0.060  -5.656   5.291  0.00  0.00    -0.173 OA
ATOM      3  O   UNL     1       2.449  -6.126   5.561  0.00  0.00    -0.173 OA
ENDROOT
BRANCH   1   4
ATOM      4  C   UNL     1       1.030  -5.704   7.740  0.00  0.00    +0.213 C 
ATOM      5  C   UNL     1       2.251  -5.211   8.519  0.00  0.00    +0.042 C 
BRANCH   4   6
ATOM      6  C   UNL     1       0.839  -7.178   7.988  0.00  0.00    +0.240 C 
ATOM      7  O   UNL     1       1.300  -7.989   7.212  0.00  0.00    -0.274 OA
ATOM      8  N   UNL     1       0.155  -7.597   9.072  0.00  0.00    -0.300 N 
BRANCH   8   9
ATOM      9  C   UNL     1      -0.031  -9.030   9.312  0.00  0.00    +0.107 C 
BRANCH   9  10
ATOM     10  C   UNL     1       1.129  -9.560  10.157  0.00  0.00    +0.016 C 
ATOM     11  C   UNL     1       0.935 -11.057  10.408  0.00  0.00    +0.005 C 
ENDBRANCH   9  10
ENDBRANCH   8   9
BRANCH   8  12
ATOM     12  C   UNL     1      -0.402  -6.618  10.009  0.00  0.00    +0.111 C 
BRANCH  12  13
ATOM     13  C   UNL     1      -1.821  -6.246   9.575  0.00  0.00    +0.006 C 
ATOM     14  C   UNL     1      -2.076  -4.795   9.164  0.00  0.00    +0.005 C 
ATOM     15  C   UNL     1      -2.621  -5.321  10.493  0.00  0.00    +0.005 C 
ENDBRANCH  12  13
ENDBRANCH   8  12
ENDBRANCH   4   6
ENDBRANCH   1   4
BRANCH   1  16
ATOM     16  C   UNL     1       1.645  -3.640   5.897  0.00  0.00    +0.246 C 
BRANCH  16  19
ATOM     17  C   UNL     1       1.492  -2.540   2.454  0.00  0.00    +0.227 A 
ATOM     18  N   UNL     1       0.951  -2.813   3.609  0.00  0.00    -0.194 NA
ATOM     19  C   UNL     1       1.887  -3.233   4.467  0.00  0.00    +0.193 A 
ATOM     20  N   UNL     1       3.042  -3.231   3.865  0.00  0.00    -0.060 NA
ATOM     21  O   UNL     1       2.805  -2.785   2.538  0.00  0.00    -0.338 OA
BRANCH  17  22
ATOM     22  C   UNL     1       0.763  -2.041   1.233  0.00  0.00    +0.099 C 
BRANCH  22  23
ATOM     23  C   UNL     1       0.742  -0.511   1.242  0.00  0.00    +0.009 C 
BRANCH  23  25
ATOM     24  C   UNL     1      -0.019   1.526   0.010  0.00  0.00    +0.004 C 
ATOM     25  C   UNL     1       0.002  -0.004   0.002  0.00  0.00    -0.003 C 
ENDBRANCH  23  25
ENDBRANCH  22  23
ENDBRANCH  17  22
ENDBRANCH  16  19
ENDBRANCH   1  16
TORSDOF 11
