REMARK  Name = ZINC00904070
REMARK  6 active torsions:
REMARK  status: ('A' for Active; 'I' for Inactive)
REMARK    1  A    between atoms: C_4  and  C_7
REMARK    2  A    between atoms: C_7  and  N_59
REMARK    3  A    between atoms: N_10  and  C_13
REMARK    4  A    between atoms: C_16  and  N_19
REMARK    5  A    between atoms: C_20  and  C_21
REMARK    6  A    between atoms: C_30  and  O_31
REMARK                            x       y       z     vdW  Elec       q    Type
REMARK                         _______ _______ _______ _____ _____    ______ ____
ROOT
ATOM      1  C   UNL     1      -7.324   1.052   0.082  0.00  0.00    +0.030 A 
ATOM      2  C   UNL     1      -7.102  -0.018  -0.778  0.00  0.00    +0.025 A 
ATOM      3  C   UNL     1      -5.876  -0.646  -0.797  0.00  0.00    +0.029 A 
ATOM      4  C   UNL     1      -4.855  -0.207   0.050  0.00  0.00    +0.064 A 
ATOM      5  C   UNL     1      -5.083   0.865   0.917  0.00  0.00    +0.029 A 
ATOM      6  C   UNL     1      -6.310   1.492   0.926  0.00  0.00    +0.025 A 
ENDROOT
BRANCH   1   9
ATOM      7  C   UNL     1      -9.987   3.400   1.120  0.00  0.00    -0.059 C 
ATOM      8  C   UNL     1      -8.586   2.784   1.075  0.00  0.00    +0.086 C 
ATOM      9  N   UNL     1      -8.568   1.686   0.099  0.00  0.00    -0.333 N 
ATOM     10  C   UNL     1      -8.930   2.170  -1.241  0.00  0.00    +0.086 C 
ATOM     11  C   UNL     1     -10.330   2.786  -1.196  0.00  0.00    -0.059 C 
ATOM     12  N   UNL     1     -10.329   3.903  -0.228  0.00  0.00    +0.384 N 
ATOM     13  H   UNL     1      -9.626   4.593  -0.515  0.00  0.00    -0.081 HD
BRANCH  12  14
ATOM     14  C   UNL     1     -11.657   4.551  -0.203  0.00  0.00    -0.043 C 
BRANCH  14  18
ATOM     15  C   UNL     1     -12.304   6.516  -3.940  0.00  0.00    +0.000 A 
ATOM     16  C   UNL     1     -12.711   5.207  -3.768  0.00  0.00    +0.000 A 
ATOM     17  C   UNL     1     -12.501   4.571  -2.559  0.00  0.00    +0.002 A 
ATOM     18  C   UNL     1     -11.885   5.245  -1.521  0.00  0.00    -0.064 A 
ATOM     19  C   UNL     1     -11.483   6.556  -1.691  0.00  0.00    +0.002 A 
ATOM     20  C   UNL     1     -11.688   7.191  -2.902  0.00  0.00    +0.000 A 
ENDBRANCH  14  18
ENDBRANCH  12  14
ENDBRANCH   1   9
BRANCH   4  21
ATOM     21  N   UNL     1      -3.637  -0.829   0.035  0.00  0.00    -0.255 NA
ATOM     22  C   UNL     1      -2.541  -0.118   0.027  0.00  0.00    +0.123 C 
BRANCH  22  23
ATOM     23  C   UNL     1      -1.236  -0.784   0.011  0.00  0.00    +0.042 A 
ATOM     24  C   UNL     1       0.002  -0.004   0.002  0.00  0.00    -0.006 A 
ATOM     25  C   UNL     1      -0.017   1.395   0.010  0.00  0.00    +0.009 A 
ATOM     26  C   UNL     1       1.159   2.085   0.002  0.00  0.00    +0.001 A 
ATOM     27  C   UNL     1       2.380   1.416  -0.015  0.00  0.00    +0.001 A 
ATOM     28  C   UNL     1       2.434   0.056  -0.022  0.00  0.00    +0.008 A 
ATOM     29  C   UNL     1       1.242  -0.688  -0.013  0.00  0.00    -0.017 A 
ATOM     30  C   UNL     1       1.259  -2.094  -0.020  0.00  0.00    +0.012 A 
ATOM     31  C   UNL     1       0.101  -2.805  -0.012  0.00  0.00    +0.046 A 
ATOM     32  C   UNL     1      -1.146  -2.179   0.003  0.00  0.00    +0.126 A 
BRANCH  32  33
ATOM     33  O   UNL     1      -2.276  -2.927   0.011  0.00  0.00    -0.506 OA
ATOM     34  H   UNL     1      -2.613  -3.140  -0.871  0.00  0.00    +0.292 HD
ENDBRANCH  32  33
ENDBRANCH  22  23
ENDBRANCH   4  21
TORSDOF 6
