REMARK  Name = ZINC39324804
REMARK  9 active torsions:
REMARK  status: ('A' for Active; 'I' for Inactive)
REMARK    1  A    between atoms: C_1  and  C_2
REMARK    2  A    between atoms: C_7  and  C_14
REMARK    3  A    between atoms: C_14  and  N_15
REMARK    4  A    between atoms: N_15  and  C_16
REMARK    5  A    between atoms: N_15  and  S_25
REMARK    6  A    between atoms: C_16  and  C_17
REMARK    7  A    between atoms: C_20  and  O_23
REMARK    8  A    between atoms: O_23  and  C_24
REMARK    9  A    between atoms: S_25  and  C_28
REMARK                            x       y       z     vdW  Elec       q    Type
REMARK                         _______ _______ _______ _____ _____    ______ ____
ROOT
ATOM      1  N   UNL     1      -1.151  -6.501   2.760  0.00  0.00    -0.171 NA
ENDROOT
BRANCH   1   2
ATOM      2  S   UNL     1      -0.370  -7.961   2.810  0.00  0.00    +0.063 S 
ATOM      3  O   UNL     1      -0.905  -8.670   3.919  0.00  0.00    -0.153 OA
ATOM      4  O   UNL     1      -0.397  -8.481   1.488  0.00  0.00    -0.153 OA
BRANCH   2   5
ATOM      5  C   UNL     1       1.320  -7.635   3.188  0.00  0.00    +0.134 A 
ATOM      6  C   UNL     1       1.846  -8.066   4.358  0.00  0.00    +0.031 A 
ATOM      7  C   UNL     1       3.179  -7.826   4.691  0.00  0.00    +0.004 A 
ATOM      8  C   UNL     1       4.005  -7.151   3.858  0.00  0.00    +0.031 A 
ATOM      9  C   UNL     1       3.522  -6.668   2.611  0.00  0.00    +0.102 A 
ATOM     10  C   UNL     1       2.130  -6.924   2.261  0.00  0.00    +0.126 A 
ATOM     11  N   UNL     1       1.790  -6.431   1.070  0.00  0.00    -0.189 NA
ATOM     12  S   UNL     1       3.120  -5.736   0.491  0.00  0.00    +0.117 S 
ATOM     13  N   UNL     1       4.183  -5.990   1.672  0.00  0.00    -0.191 NA
ENDBRANCH   2   5
ENDBRANCH   1   2
BRANCH   1  14
ATOM     14  C   UNL     1      -1.371  -5.832   1.475  0.00  0.00    +0.126 C 
BRANCH  14  21
ATOM     15  C   UNL     1      -4.524  -8.254  -4.881  0.00  0.00    +0.044 C 
ATOM     16  C   UNL     1      -4.122  -7.485  -3.649  0.00  0.00    -0.049 A 
ATOM     17  C   UNL     1      -3.968  -6.102  -3.744  0.00  0.00    +0.004 A 
ATOM     18  C   UNL     1      -3.607  -5.355  -2.669  0.00  0.00    +0.010 A 
ATOM     19  C   UNL     1      -3.379  -6.025  -1.388  0.00  0.00    -0.007 A 
ATOM     20  C   UNL     1      -3.017  -5.316  -0.282  0.00  0.00    -0.003 C 
ATOM     21  C   UNL     1      -2.802  -6.093   1.002  0.00  0.00    +0.114 C 
ATOM     22  C   UNL     1      -3.008  -7.590   0.952  0.00  0.00    +0.225 C 
ATOM     23  O   UNL     1      -2.849  -8.262   1.953  0.00  0.00    -0.275 OA
ATOM     24  N   UNL     1      -3.361  -8.165  -0.185  0.00  0.00    -0.284 N 
ATOM     25  C   UNL     1      -3.550  -7.487  -1.317  0.00  0.00    +0.041 A 
ATOM     26  C   UNL     1      -3.931  -8.166  -2.489  0.00  0.00    +0.027 A 
ATOM     27  H   UNL     1      -3.487  -9.127  -0.197  0.00  0.00    +0.155 HD
ENDBRANCH  14  21
ENDBRANCH   1  14
BRANCH   1  28
ATOM     28  C   UNL     1      -1.622  -5.880   4.000  0.00  0.00    +0.144 C 
BRANCH  28  29
ATOM     29  C   UNL     1      -3.058  -6.269   4.242  0.00  0.00    -0.031 A 
ATOM     30  C   UNL     1      -4.080  -5.491   3.730  0.00  0.00    +0.008 A 
ATOM     31  C   UNL     1      -5.396  -5.845   3.951  0.00  0.00    +0.046 A 
ATOM     32  C   UNL     1      -5.693  -6.982   4.689  0.00  0.00    +0.120 A 
ATOM     33  C   UNL     1      -4.666  -7.761   5.201  0.00  0.00    +0.046 A 
ATOM     34  C   UNL     1      -3.351  -7.406   4.973  0.00  0.00    +0.008 A 
BRANCH  32  35
ATOM     35  O   UNL     1      -6.988  -7.332   4.908  0.00  0.00    -0.495 OA
ATOM     36  C   UNL     1      -7.218  -8.516   5.676  0.00  0.00    +0.277 C 
ENDBRANCH  32  35
ENDBRANCH  28  29
ENDBRANCH   1  28
TORSDOF 7
