REMARK  Name = ZINC02153143
REMARK  11 active torsions:
REMARK  status: ('A' for Active; 'I' for Inactive)
REMARK    1  A    between atoms: C_1  and  C_2
REMARK    2  A    between atoms: C_2  and  C_3
REMARK    3  A    between atoms: C_3  and  C_4
REMARK    4  A    between atoms: C_4  and  N_5
REMARK    5  A    between atoms: C_6  and  C_23
REMARK    6  A    between atoms: C_8  and  O_22
REMARK    7  A    between atoms: C_16  and  C_18
REMARK    8  A    between atoms: C_18  and  C_19
REMARK    9  A    between atoms: C_18  and  C_20
REMARK   10  A    between atoms: C_18  and  C_21
REMARK   11  A    between atoms: C_27  and  C_29
REMARK                            x       y       z     vdW  Elec       q    Type
REMARK                         _______ _______ _______ _____ _____    ______ ____
ROOT
ATOM      1  N   UNL     1      -2.787  -2.571   0.015  0.00  0.00    -0.274 N 
ATOM      2  C   UNL     1      -3.598  -2.859  -1.177  0.00  0.00    +0.155 C 
ATOM      3  C   UNL     1      -4.937  -3.358  -0.601  0.00  0.00    +0.238 C 
ATOM      4  N   UNL     1      -4.739  -3.298   0.854  0.00  0.00    -0.204 N 
ATOM      5  C   UNL     1      -3.503  -2.850   1.112  0.00  0.00    +0.313 C 
ATOM      6  O   UNL     1      -3.071  -2.708   2.240  0.00  0.00    -0.252 OA
ATOM      7  C   UNL     1      -5.682  -3.655   1.812  0.00  0.00    +0.194 A 
ATOM      8  N   UNL     1      -6.916  -4.102   1.653  0.00  0.00    -0.125 NA
ATOM      9  N   UNL     1      -7.654  -4.388   2.637  0.00  0.00    -0.144 NA
ATOM     10  C   UNL     1      -7.216  -4.237   3.871  0.00  0.00    +0.109 A 
ATOM     11  S   UNL     1      -5.566  -3.627   3.547  0.00  0.00    -0.034 S 
ENDROOT
BRANCH   2  12
ATOM     12  C   UNL     1      -2.948  -3.933  -2.012  0.00  0.00    -0.023 A 
ATOM     13  C   UNL     1      -2.342  -5.013  -1.398  0.00  0.00    +0.007 A 
ATOM     14  C   UNL     1      -1.751  -6.001  -2.163  0.00  0.00    +0.020 A 
ATOM     15  C   UNL     1      -1.756  -5.902  -3.543  0.00  0.00    +0.044 A 
ATOM     16  C   UNL     1      -2.357  -4.818  -4.157  0.00  0.00    -0.032 A 
ATOM     17  C   UNL     1      -2.953  -3.834  -3.391  0.00  0.00    +0.010 A 
ATOM     18  C   UNL     1      -2.362  -4.710  -5.660  0.00  0.00    +0.045 C 
ATOM     19 CL   UNL     1      -1.007  -7.139  -4.504  0.00  0.00    -0.083 Cl
ENDBRANCH   2  12
BRANCH  10  20
ATOM     20  C   UNL     1      -7.909  -4.503   5.182  0.00  0.00    +0.013 C 
ATOM     21  C   UNL     1      -8.302  -5.980   5.261  0.00  0.00    +0.018 C 
ATOM     22  C   UNL     1      -6.964  -4.165   6.336  0.00  0.00    +0.018 C 
ATOM     23  C   UNL     1      -9.166  -3.636   5.280  0.00  0.00    +0.018 C 
ENDBRANCH  10  20
BRANCH   3  24
ATOM     24  O   UNL     1      -5.193  -4.701  -1.018  0.00  0.00    -0.372 OA
ATOM     25  H   UNL     1      -6.024  -5.065  -0.683  0.00  0.00    +0.212 HD
ENDBRANCH   3  24
BRANCH   1  26
ATOM     26  C   UNL     1      -1.413  -2.063   0.004  0.00  0.00    +0.110 C 
BRANCH  26  27
ATOM     27  C   UNL     1      -1.433  -0.534   0.013  0.00  0.00    +0.019 C 
BRANCH  27  29
ATOM     28  C   UNL     1      -0.019   1.526   0.010  0.00  0.00    +0.004 C 
ATOM     29  C   UNL     1       0.002  -0.004   0.002  0.00  0.00    -0.002 C 
ENDBRANCH  27  29
ENDBRANCH  26  27
ENDBRANCH   1  26
TORSDOF 6
