REMARK  Name = ZINC39665665
REMARK  10 active torsions:
REMARK  status: ('A' for Active; 'I' for Inactive)
REMARK    1  A    between atoms: C_1  and  C_2
REMARK    2  A    between atoms: C_2  and  C_4
REMARK    3  A    between atoms: C_2  and  O_29
REMARK    4  A    between atoms: C_4  and  N_5
REMARK    5  A    between atoms: C_6  and  C_8
REMARK    6  A    between atoms: C_19  and  C_21
REMARK    7  A    between atoms: C_21  and  C_22
REMARK    8  A    between atoms: O_29  and  C_30
REMARK    9  A    between atoms: C_33  and  O_36
REMARK   10  A    between atoms: O_36  and  C_37
REMARK                            x       y       z     vdW  Elec       q    Type
REMARK                         _______ _______ _______ _____ _____    ______ ____
ROOT
ATOM      1  C   UNL     1      -3.010  -4.378  -0.095  0.00  0.00    +0.100 C 
ATOM      2  C   UNL     1      -2.598  -5.002   1.257  0.00  0.00    +0.121 C 
ATOM      3  N   UNL     1      -3.870  -5.161   2.000  0.00  0.00    -0.300 N 
ATOM      4  C   UNL     1      -4.845  -5.599   0.972  0.00  0.00    +0.115 C 
ATOM      5  C   UNL     1      -4.484  -4.774  -0.280  0.00  0.00    -0.004 C 
ATOM      6  C   UNL     1      -5.361  -3.528  -0.360  0.00  0.00    -0.010 C 
ATOM      7  C   UNL     1      -6.814  -3.946  -0.601  0.00  0.00    -0.082 C 
ATOM      8  N   UNL     1      -6.904  -4.713  -1.849  0.00  0.00    +0.379 N 
ATOM      9  C   UNL     1      -6.132  -5.956  -1.730  0.00  0.00    -0.082 C 
ATOM     10  C   UNL     1      -4.650  -5.622  -1.537  0.00  0.00    -0.010 C 
ATOM     11  C   UNL     1      -4.092  -4.954   3.313  0.00  0.00    +0.220 C 
ATOM     12  O   UNL     1      -5.199  -5.129   3.776  0.00  0.00    -0.275 OA
ATOM     13  H   UNL     1      -7.870  -4.935  -2.037  0.00  0.00    -0.086 HD
ATOM     14  H   UNL     1      -6.535  -4.160  -2.609  0.00  0.00    -0.086 HD
ENDROOT
BRANCH   1  16
ATOM     15  N   UNL     1      -2.608  -2.186  -1.169  0.00  0.00    -0.312 N 
ATOM     16  C   UNL     1      -2.873  -2.878  -0.043  0.00  0.00    +0.218 C 
ATOM     17  O   UNL     1      -2.999  -2.293   1.012  0.00  0.00    -0.275 OA
ATOM     18  H   UNL     1      -2.507  -2.654  -2.013  0.00  0.00    +0.149 HD
BRANCH  15  19
ATOM     19  C   UNL     1      -2.475  -0.728  -1.119  0.00  0.00    +0.148 C 
BRANCH  19  21
ATOM     20  C   UNL     1      -1.915   1.311  -2.450  0.00  0.00    +0.053 C 
ATOM     21  C   UNL     1      -2.178  -0.195  -2.522  0.00  0.00    +0.187 C 
BRANCH  21  22
ATOM     22  O   UNL     1      -3.299  -0.443  -3.373  0.00  0.00    -0.488 OA
BRANCH  22  23
ATOM     23  C   UNL     1      -3.056  -0.514  -4.709  0.00  0.00    +0.121 A 
ATOM     24  C   UNL     1      -4.077  -0.857  -5.582  0.00  0.00    +0.049 A 
ATOM     25  C   UNL     1      -3.831  -0.929  -6.940  0.00  0.00    +0.049 A 
ATOM     26  C   UNL     1      -2.562  -0.658  -7.429  0.00  0.00    +0.120 A 
ATOM     27  C   UNL     1      -1.540  -0.314  -6.556  0.00  0.00    +0.049 A 
ATOM     28  C   UNL     1      -1.788  -0.238  -5.199  0.00  0.00    +0.049 A 
BRANCH  26  29
ATOM     29  O   UNL     1      -2.318  -0.730  -8.765  0.00  0.00    -0.495 OA
ATOM     30  C   UNL     1      -0.989  -0.439  -9.199  0.00  0.00    +0.277 C 
ENDBRANCH  26  29
ENDBRANCH  22  23
ENDBRANCH  21  22
ENDBRANCH  19  21
ENDBRANCH  15  19
ENDBRANCH   1  16
BRANCH  11  31
ATOM     31  C   UNL     1      -2.963  -4.506   4.206  0.00  0.00    +0.131 C 
BRANCH  31  32
ATOM     32  C   UNL     1      -3.471  -4.349   5.616  0.00  0.00    -0.039 A 
ATOM     33  C   UNL     1      -3.984  -3.135   6.035  0.00  0.00    +0.005 A 
ATOM     34  C   UNL     1      -4.449  -2.991   7.328  0.00  0.00    +0.020 A 
ATOM     35  C   UNL     1      -4.402  -4.061   8.204  0.00  0.00    +0.041 A 
ATOM     36  C   UNL     1      -3.889  -5.275   7.784  0.00  0.00    +0.020 A 
ATOM     37  C   UNL     1      -3.429  -5.420   6.489  0.00  0.00    +0.005 A 
ATOM     38 CL   UNL     1      -4.986  -3.880   9.828  0.00  0.00    -0.084 Cl
ENDBRANCH  31  32
ENDBRANCH  11  31
TORSDOF 8
