REMARK  Name = ZINC28402837
REMARK  8 active torsions:
REMARK  status: ('A' for Active; 'I' for Inactive)
REMARK    1  A    between atoms: C_1  and  C_2
REMARK    2  A    between atoms: C_2  and  C_3
REMARK    3  A    between atoms: C_6  and  C_9
REMARK    4  A    between atoms: C_9  and  C_11
REMARK    5  A    between atoms: C_9  and  N_28
REMARK    6  A    between atoms: C_11  and  N_12
REMARK    7  A    between atoms: C_13  and  C_15
REMARK    8  A    between atoms: C_22  and  C_26
REMARK                            x       y       z     vdW  Elec       q    Type
REMARK                         _______ _______ _______ _____ _____    ______ ____
ROOT
ATOM      1  C   UNL     1      -1.413   3.539   0.725  0.00  0.00    +0.094 C 
ENDROOT
BRANCH   1   2
ATOM      2  N   UNL     1      -1.480   2.076   0.759  0.00  0.00    -0.310 N 
ATOM      3  C   UNL     1      -0.480   1.369   1.322  0.00  0.00    +0.279 C 
ATOM      4  O   UNL     1       0.479   1.945   1.796  0.00  0.00    -0.267 OA
ATOM      5  H   UNL     1      -2.345   1.555   0.325  0.00  0.00    +0.149 HD
BRANCH   3   6
ATOM      6  C   UNL     1      -0.547  -0.111   1.356  0.00  0.00    +0.193 A 
ATOM      7  C   UNL     1       0.478  -0.796   1.918  0.00  0.00    +0.103 A 
ATOM      8  C   UNL     1       0.409  -2.265   1.958  0.00  0.00    +0.193 A 
ATOM      9  O   UNL     1       1.300  -2.932   2.455  0.00  0.00    -0.287 OA
ATOM     10  C   UNL     1      -0.785  -2.892   1.361  0.00  0.00    +0.065 A 
ATOM     11  C   UNL     1      -0.943  -4.277   1.342  0.00  0.00    +0.035 A 
ATOM     12  C   UNL     1      -2.074  -4.825   0.775  0.00  0.00    +0.045 A 
ATOM     13  C   UNL     1      -3.050  -4.002   0.227  0.00  0.00    -0.029 A 
ATOM     14  C   UNL     1      -2.905  -2.632   0.239  0.00  0.00    +0.051 A 
ATOM     15  C   UNL     1      -1.771  -2.058   0.806  0.00  0.00    +0.140 A 
ATOM     16  O   UNL     1      -1.617  -0.720   0.825  0.00  0.00    -0.450 OA
ATOM     17  C   UNL     1      -4.281  -4.615  -0.389  0.00  0.00    +0.045 C 
ATOM     18 CL   UNL     1      -2.280  -6.548   0.747  0.00  0.00    -0.083 Cl
ENDBRANCH   3   6
ENDBRANCH   1   2
BRANCH   1  19
ATOM     19  C   UNL     1      -2.663   4.091   0.037  0.00  0.00    -0.020 C 
BRANCH  19  20
ATOM     20  N   UNL     1      -2.801   3.480  -1.292  0.00  0.00    +0.385 N 
ATOM     21  C   UNL     1      -1.653   3.812  -2.145  0.00  0.00    -0.078 C 
ATOM     22  C   UNL     1      -1.757   3.044  -3.465  0.00  0.00    -0.019 C 
ATOM     23  C   UNL     1      -3.065   3.421  -4.167  0.00  0.00    -0.004 C 
ATOM     24  C   UNL     1      -4.242   3.110  -3.238  0.00  0.00    -0.019 C 
ATOM     25  C   UNL     1      -4.065   3.876  -1.925  0.00  0.00    -0.078 C 
ATOM     26  H   UNL     1      -2.818   2.388  -1.163  0.00  0.00    -0.081 HD
ENDBRANCH  19  20
BRANCH  19  30
ATOM     27  C   UNL     1      -2.311   8.328  -0.375  0.00  0.00    -0.048 A 
ATOM     28  C   UNL     1      -1.280   7.505  -0.789  0.00  0.00    +0.004 A 
ATOM     29  C   UNL     1      -1.394   6.134  -0.655  0.00  0.00    +0.002 A 
ATOM     30  C   UNL     1      -2.539   5.586  -0.108  0.00  0.00    -0.059 A 
ATOM     31  C   UNL     1      -3.572   6.408   0.301  0.00  0.00    +0.002 A 
ATOM     32  C   UNL     1      -3.456   7.780   0.173  0.00  0.00    +0.004 A 
BRANCH  27  34
ATOM     33  C   UNL     1      -2.736  10.250  -1.883  0.00  0.00    +0.009 C 
ATOM     34  C   UNL     1      -2.187   9.823  -0.520  0.00  0.00    +0.032 C 
ENDBRANCH  27  34
ENDBRANCH  19  30
ENDBRANCH   1  19
TORSDOF 6
