REMARK  Name = ZINC63637687
REMARK  4 active torsions:
REMARK  status: ('A' for Active; 'I' for Inactive)
REMARK    1  A    between atoms: C_3  and  C_6
REMARK    2  A    between atoms: C_11  and  C_23
REMARK    3  A    between atoms: C_26  and  O_29
REMARK    4  A    between atoms: O_29  and  C_30
REMARK                            x       y       z     vdW  Elec       q    Type
REMARK                         _______ _______ _______ _____ _____    ______ ____
ROOT
ATOM      1  C   UNL     1       3.761   1.845  -0.024  0.00  0.00    +0.039 C 
ATOM      2  C   UNL     1       4.506   1.324   1.206  0.00  0.00    +0.060 C 
ATOM      3  C   UNL     1       5.938   1.803   1.173  0.00  0.00    +0.017 C 
ATOM      4  C   UNL     1       6.574   2.008   0.003  0.00  0.00    +0.021 C 
ATOM      5  C   UNL     1       8.002   2.497  -0.062  0.00  0.00    +0.073 C 
ATOM      6  C   UNL     1       8.726   2.205   1.254  0.00  0.00    +0.148 C 
ATOM      7  C   UNL     1       7.799   2.599   2.379  0.00  0.00    +0.106 C 
ATOM      8  N   UNL     1       8.138   3.457   3.290  0.00  0.00    -0.151 NA
ATOM      9  C   UNL     1       9.326   4.078   3.289  0.00  0.00    +0.331 C 
ATOM     10  O   UNL     1       9.591   4.854   4.189  0.00  0.00    -0.250 OA
ATOM     11  N   UNL     1      10.231   3.865   2.321  0.00  0.00    -0.238 N 
ATOM     12  C   UNL     1      10.004   2.988   1.323  0.00  0.00    +0.231 C 
ATOM     13  O   UNL     1      10.844   2.829   0.463  0.00  0.00    -0.275 OA
ATOM     14  N   UNL     1       6.564   2.010   2.382  0.00  0.00    -0.307 N 
ATOM     15  C   UNL     1       5.919   1.777  -1.224  0.00  0.00    +0.162 C 
ATOM     16  O   UNL     1       6.529   1.939  -2.263  0.00  0.00    -0.292 OA
ATOM     17  C   UNL     1       4.483   1.336  -1.276  0.00  0.00    +0.088 C 
ATOM     18  H   UNL     1      11.070   4.352   2.340  0.00  0.00    +0.159 HD
ATOM     19  H   UNL     1       6.141   1.745   3.214  0.00  0.00    +0.153 HD
ENDROOT
BRANCH   5  20
ATOM     20  C   UNL     1       8.009   3.984  -0.311  0.00  0.00    -0.038 A 
ATOM     21  C   UNL     1       7.406   4.838   0.595  0.00  0.00    +0.008 A 
ATOM     22  C   UNL     1       7.410   6.200   0.369  0.00  0.00    +0.046 A 
ATOM     23  C   UNL     1       8.021   6.712  -0.767  0.00  0.00    +0.130 A 
ATOM     24  C   UNL     1       8.625   5.854  -1.673  0.00  0.00    +0.046 A 
ATOM     25  C   UNL     1       8.623   4.492  -1.440  0.00  0.00    +0.008 A 
BRANCH  23  26
ATOM     26  O   UNL     1       8.026   8.053  -0.991  0.00  0.00    -0.406 OA
BRANCH  26  27
ATOM     27  C   UNL     1       8.673   8.508  -2.181  0.00  0.00    +0.575 C 
ATOM     28  F   UNL     1       8.048   7.943  -3.298  0.00  0.00    -0.133 F 
ATOM     29  F   UNL     1       8.586   9.903  -2.255  0.00  0.00    -0.133 F 
ATOM     30  F   UNL     1      10.018   8.126  -2.156  0.00  0.00    -0.133 F 
ENDBRANCH  26  27
ENDBRANCH  23  26
ENDBRANCH   5  20
BRANCH   1  33
ATOM     31  C   UNL     1      -0.016   1.351   0.009  0.00  0.00    +0.008 A 
ATOM     32  C   UNL     1       1.183   2.038   0.002  0.00  0.00    +0.011 A 
ATOM     33  C   UNL     1       2.343   1.336  -0.013  0.00  0.00    -0.006 A 
ATOM     34  S   UNL     1       1.754  -0.349  -0.017  0.00  0.00    -0.101 S 
ATOM     35  C   UNL     1       0.002  -0.004   0.002  0.00  0.00    +0.045 A 
ENDBRANCH   1  33
TORSDOF 4
