REMARK  Name = ZINC36242315
REMARK  13 active torsions:
REMARK  status: ('A' for Active; 'I' for Inactive)
REMARK    1  A    between atoms: C_1  and  C_2
REMARK    2  A    between atoms: C_2  and  C_3
REMARK    3  A    between atoms: C_2  and  C_4
REMARK    4  A    between atoms: C_2  and  O_27
REMARK    5  A    between atoms: C_8  and  C_19
REMARK    6  A    between atoms: C_10  and  C_13
REMARK    7  A    between atoms: C_19  and  C_20
REMARK    8  A    between atoms: C_21  and  C_22
REMARK    9  A    between atoms: C_22  and  C_23
REMARK   10  A    between atoms: C_23  and  C_24
REMARK   11  A    between atoms: O_27  and  C_28
REMARK   12  A    between atoms: C_33  and  S_34
REMARK   13  A    between atoms: S_34  and  C_35
REMARK                            x       y       z     vdW  Elec       q    Type
REMARK                         _______ _______ _______ _____ _____    ______ ____
ROOT
ATOM      1  C   UNL     1      -0.775  -0.450  -0.364  0.00  0.00    +0.294 C 
ATOM      2  O   UNL     1      -1.504   0.089  -1.469  0.00  0.00    -0.347 OA
ATOM      3  C   UNL     1      -2.800  -0.490  -1.644  0.00  0.00    +0.169 C 
ATOM      4  C   UNL     1      -2.647  -2.003  -1.832  0.00  0.00    +0.052 C 
ATOM      5  C   UNL     1      -1.851  -2.571  -0.652  0.00  0.00    +0.158 C 
ATOM      6  O   UNL     1      -0.615  -1.860  -0.541  0.00  0.00    -0.339 OA
ENDROOT
BRANCH   5   7
ATOM      7  C   UNL     1      -2.646  -2.409   0.618  0.00  0.00    -0.000 A 
ATOM      8  C   UNL     1      -4.017  -2.615   0.620  0.00  0.00    +0.009 A 
ATOM      9  C   UNL     1      -4.707  -2.454   1.811  0.00  0.00    +0.020 A 
ATOM     10  C   UNL     1      -4.011  -2.095   2.950  0.00  0.00    +0.111 A 
ATOM     11  N   UNL     1      -2.706  -1.906   2.911  0.00  0.00    -0.263 NA
ATOM     12  C   UNL     1      -2.017  -2.056   1.797  0.00  0.00    +0.116 A 
ENDBRANCH   5   7
BRANCH   1  14
ATOM     13  C   UNL     1       0.431   1.709  -0.009  0.00  0.00    +0.061 C 
ATOM     14  C   UNL     1       0.601   0.214  -0.286  0.00  0.00    +0.155 C 
ATOM     15  C   UNL     1       1.413  -0.425   0.842  0.00  0.00    +0.061 C 
BRANCH  14  16
ATOM     16  O   UNL     1       1.287   0.035  -1.527  0.00  0.00    -0.480 OA
BRANCH  16  17
ATOM     17  C   UNL     1       2.539   0.556  -1.621  0.00  0.00    +0.135 A 
ATOM     18  C   UNL     1       3.081   1.257  -0.557  0.00  0.00    +0.047 A 
ATOM     19  C   UNL     1       4.356   1.786  -0.654  0.00  0.00    +0.004 A 
ATOM     20  C   UNL     1       5.093   1.616  -1.812  0.00  0.00    +0.001 A 
ATOM     21  C   UNL     1       4.560   0.918  -2.878  0.00  0.00    +0.018 A 
ATOM     22  C   UNL     1       3.284   0.379  -2.787  0.00  0.00    +0.049 A 
BRANCH  22  23
ATOM     23  S   UNL     1       2.604  -0.518  -4.142  0.00  0.00    -0.125 S 
ATOM     24  C   UNL     1       3.914  -0.479  -5.396  0.00  0.00    +0.090 C 
ENDBRANCH  22  23
ENDBRANCH  16  17
ENDBRANCH  14  16
ENDBRANCH   1  14
BRANCH   4  25
ATOM     25  C   UNL     1      -1.903  -2.285  -3.139  0.00  0.00    +0.035 C 
BRANCH  25  26
ATOM     26  C   UNL     1      -2.785  -1.924  -4.307  0.00  0.00    -0.031 C 
ATOM     27  C   UNL     1      -3.126  -2.841  -5.178  0.00  0.00    -0.030 C 
BRANCH  27  28
ATOM     28  C   UNL     1      -2.738  -4.279  -4.950  0.00  0.00    +0.038 C 
BRANCH  28  29
ATOM     29  C   UNL     1      -3.988  -5.160  -5.008  0.00  0.00    +0.129 C 
BRANCH  29  30
ATOM     30  C   UNL     1      -3.616  -6.582  -4.674  0.00  0.00    +0.356 C 
ATOM     31  O   UNL     1      -2.480  -6.848  -4.319  0.00  0.00    -0.246 OA
ATOM     32  O   UNL     1      -4.451  -7.466  -4.759  0.00  0.00    -0.246 OA
ENDBRANCH  29  30
ENDBRANCH  28  29
ENDBRANCH  27  28
ENDBRANCH  25  26
ENDBRANCH   4  25
TORSDOF 10
