REMARK  Name = ZINC20042134
REMARK  14 active torsions:
REMARK  status: ('A' for Active; 'I' for Inactive)
REMARK    1  A    between atoms: C_1  and  C_2
REMARK    2  A    between atoms: C_2  and  C_3
REMARK    3  A    between atoms: C_3  and  C_4
REMARK    4  A    between atoms: C_4  and  C_5
REMARK    5  A    between atoms: C_8  and  N_11
REMARK    6  A    between atoms: C_12  and  S_16
REMARK    7  A    between atoms: S_16  and  C_17
REMARK    8  A    between atoms: C_17  and  C_18
REMARK    9  A    between atoms: N_20  and  C_21
REMARK   10  A    between atoms: C_22  and  C_34
REMARK   11  A    between atoms: C_23  and  C_33
REMARK   12  A    between atoms: C_24  and  C_32
REMARK   13  A    between atoms: N_25  and  C_26
REMARK   14  A    between atoms: C_26  and  C_27
REMARK                            x       y       z     vdW  Elec       q    Type
REMARK                         _______ _______ _______ _____ _____    ______ ____
ROOT
ATOM      1  C   UNL     1       0.015   5.883   1.398  0.00  0.00    +0.229 C 
ATOM      2  O   UNL     1       0.766   6.526   2.102  0.00  0.00    -0.275 OA
ATOM      3  N   UNL     1      -0.714   6.502   0.449  0.00  0.00    -0.270 N 
ATOM      4  H   UNL     1      -1.334   5.911  -0.241  0.00  0.00    +0.156 HD
ENDROOT
BRANCH   3   5
ATOM      5  C   UNL     1      -0.683   7.885   0.343  0.00  0.00    +0.124 A 
ATOM      6  C   UNL     1       0.354   8.640  -0.186  0.00  0.00    +0.095 A 
ATOM      7  C   UNL     1      -0.073  10.041  -0.083  0.00  0.00    -0.011 A 
ATOM      8  C   UNL     1      -1.292  10.032   0.480  0.00  0.00    +0.022 A 
ATOM      9  N   UNL     1      -1.665   8.739   0.732  0.00  0.00    -0.324 N 
ATOM     10  C   UNL     1      -2.123  11.253   0.780  0.00  0.00    +0.064 C 
ATOM     11  C   UNL     1       0.706  11.254  -0.523  0.00  0.00    +0.047 C 
BRANCH   6  12
ATOM     12  C   UNL     1       1.589   8.153  -0.723  0.00  0.00    +0.103 C 
ATOM     13  N   UNL     1       2.569   7.766  -1.148  0.00  0.00    -0.191 NA
ENDBRANCH   6  12
BRANCH   9  14
ATOM     14  C   UNL     1      -2.936   8.335   1.338  0.00  0.00    +0.197 C 
BRANCH  14  15
ATOM     15  C   UNL     1      -2.750   8.150   2.822  0.00  0.00    +0.124 A 
ATOM     16  C   UNL     1      -2.903   9.104   3.758  0.00  0.00    +0.046 A 
ATOM     17  C   UNL     1      -2.635   8.498   5.007  0.00  0.00    +0.041 A 
ATOM     18  C   UNL     1      -2.325   7.212   4.758  0.00  0.00    +0.195 A 
ATOM     19  O   UNL     1      -2.397   7.008   3.433  0.00  0.00    -0.466 OA
ENDBRANCH  14  15
ENDBRANCH   9  14
ENDBRANCH   3   5
BRANCH   1  20
ATOM     20  C   UNL     1      -0.101   4.392   1.585  0.00  0.00    +0.173 C 
BRANCH  20  21
ATOM     21  S   UNL     1       0.995   3.865   2.926  0.00  0.00    -0.075 S 
BRANCH  21  23
ATOM     22  N   UNL     1       1.222   1.207   3.747  0.00  0.00    -0.187 N 
ATOM     23  C   UNL     1       0.666   2.134   2.926  0.00  0.00    +0.214 A 
ATOM     24  N   UNL     1      -0.165   1.495   2.131  0.00  0.00    -0.101 NA
ATOM     25  N   UNL     1      -0.166   0.239   2.397  0.00  0.00    -0.022 NA
ATOM     26  N   UNL     1       0.647  -0.017   3.364  0.00  0.00    -0.038 NA
BRANCH  22  30
ATOM     27  C   UNL     1       4.033   1.852   6.758  0.00  0.00    -0.047 A 
ATOM     28  C   UNL     1       3.061   0.882   6.918  0.00  0.00    +0.006 A 
ATOM     29  C   UNL     1       2.128   0.666   5.922  0.00  0.00    +0.028 A 
ATOM     30  C   UNL     1       2.168   1.424   4.760  0.00  0.00    +0.070 A 
ATOM     31  C   UNL     1       3.149   2.393   4.599  0.00  0.00    +0.028 A 
ATOM     32  C   UNL     1       4.075   2.609   5.601  0.00  0.00    +0.006 A 
BRANCH  27  33
ATOM     33  C   UNL     1       5.050   2.085   7.846  0.00  0.00    +0.035 C 
BRANCH  33  34
ATOM     34  C   UNL     1       6.266   1.189   7.607  0.00  0.00    +0.004 C 
BRANCH  34  36
ATOM     35  C   UNL     1       8.515   0.529   8.473  0.00  0.00    +0.004 C 
ATOM     36  C   UNL     1       7.298   1.425   8.712  0.00  0.00    -0.003 C 
ENDBRANCH  34  36
ENDBRANCH  33  34
ENDBRANCH  27  33
ENDBRANCH  22  30
ENDBRANCH  21  23
ENDBRANCH  20  21
ENDBRANCH   1  20
TORSDOF 11
