REMARK  Name = ZINC24080785
REMARK  15 active torsions:
REMARK  status: ('A' for Active; 'I' for Inactive)
REMARK    1  A    between atoms: C_1  and  C_2
REMARK    2  A    between atoms: C_2  and  O_3
REMARK    3  A    between atoms: O_3  and  C_4
REMARK    4  A    between atoms: C_7  and  C_11
REMARK    5  A    between atoms: C_8  and  C_10
REMARK    6  A    between atoms: C_11  and  C_13
REMARK    7  A    between atoms: N_17  and  C_33
REMARK    8  A    between atoms: C_18  and  C_20
REMARK    9  A    between atoms: C_24  and  O_26
REMARK   10  A    between atoms: O_26  and  C_27
REMARK   11  A    between atoms: C_33  and  C_34
REMARK   12  A    between atoms: C_34  and  C_35
REMARK   13  A    between atoms: C_35  and  N_36
REMARK   14  A    between atoms: N_36  and  C_37
REMARK   15  A    between atoms: N_36  and  C_38
REMARK                            x       y       z     vdW  Elec       q    Type
REMARK                         _______ _______ _______ _____ _____    ______ ____
ROOT
ATOM      1  C   UNL     1      -2.192  -6.126  -1.415  0.00  0.00    +0.076 C 
ATOM      2  C   UNL     1      -2.175  -6.082  -0.063  0.00  0.00    +0.249 C 
ATOM      3  C   UNL     1      -2.463  -4.702   0.382  0.00  0.00    +0.288 C 
ATOM      4  O   UNL     1      -2.517  -4.339   1.540  0.00  0.00    -0.266 OA
ATOM      5  N   UNL     1      -2.654  -3.906  -0.686  0.00  0.00    -0.284 N 
ATOM      6  C   UNL     1      -2.507  -4.728  -1.893  0.00  0.00    +0.145 C 
ATOM      7  O   UNL     1      -1.933  -7.133   0.753  0.00  0.00    -0.282 OA
ENDROOT
BRANCH   6   8
ATOM      8  C   UNL     1      -1.376  -4.206  -2.741  0.00  0.00    -0.019 A 
ATOM      9  C   UNL     1      -0.146  -3.944  -2.167  0.00  0.00    +0.006 A 
ATOM     10  C   UNL     1       0.894  -3.466  -2.942  0.00  0.00    +0.004 A 
ATOM     11  C   UNL     1       0.707  -3.249  -4.293  0.00  0.00    +0.046 A 
ATOM     12  C   UNL     1      -0.527  -3.510  -4.872  0.00  0.00    +0.129 A 
ATOM     13  C   UNL     1      -1.568  -3.995  -4.093  0.00  0.00    +0.052 A 
BRANCH  12  14
ATOM     14  O   UNL     1      -0.714  -3.297  -6.201  0.00  0.00    -0.456 OA
BRANCH  14  15
ATOM     15  C   UNL     1      -1.414  -2.195  -6.579  0.00  0.00    +0.128 A 
ATOM     16  C   UNL     1      -1.722  -1.992  -7.916  0.00  0.00    +0.046 A 
ATOM     17  C   UNL     1      -2.438  -0.874  -8.296  0.00  0.00    +0.004 A 
ATOM     18  C   UNL     1      -2.838   0.048  -7.346  0.00  0.00    +0.000 A 
ATOM     19  C   UNL     1      -2.527  -0.149  -6.014  0.00  0.00    +0.004 A 
ATOM     20  C   UNL     1      -1.816  -1.268  -5.628  0.00  0.00    +0.046 A 
ENDBRANCH  14  15
ENDBRANCH  12  14
ENDBRANCH   6   8
BRANCH   1  21
ATOM     21  C   UNL     1      -1.956  -7.305  -2.254  0.00  0.00    +0.195 C 
ATOM     22  O   UNL     1      -1.617  -8.357  -1.745  0.00  0.00    -0.287 OA
BRANCH  21  26
ATOM     23  C   UNL     1      -2.455  -7.049  -6.464  0.00  0.00    +0.121 A 
ATOM     24  C   UNL     1      -1.176  -7.087  -5.918  0.00  0.00    +0.046 A 
ATOM     25  C   UNL     1      -1.010  -7.169  -4.555  0.00  0.00    +0.015 A 
ATOM     26  C   UNL     1      -2.129  -7.216  -3.717  0.00  0.00    +0.025 A 
ATOM     27  C   UNL     1      -3.413  -7.184  -4.271  0.00  0.00    -0.036 A 
ATOM     28  C   UNL     1      -3.570  -7.095  -5.636  0.00  0.00    +0.049 A 
ATOM     29  C   UNL     1      -4.623  -7.240  -3.374  0.00  0.00    +0.044 C 
BRANCH  23  30
ATOM     30  O   UNL     1      -2.614  -6.967  -7.809  0.00  0.00    -0.492 OA
BRANCH  30  32
ATOM     31  C   UNL     1      -1.803  -6.833 -10.082  0.00  0.00    +0.048 C 
ATOM     32  C   UNL     1      -1.426  -6.924  -8.602  0.00  0.00    +0.225 C 
ENDBRANCH  30  32
ENDBRANCH  23  30
ENDBRANCH  21  26
ENDBRANCH   1  21
BRANCH   5  33
ATOM     33  C   UNL     1      -2.961  -2.474  -0.651  0.00  0.00    +0.107 C 
BRANCH  33  34
ATOM     34  C   UNL     1      -1.658  -1.673  -0.666  0.00  0.00    +0.000 C 
BRANCH  34  35
ATOM     35  C   UNL     1      -1.978  -0.177  -0.629  0.00  0.00    -0.078 C 
BRANCH  35  36
ATOM     36  N   UNL     1      -0.727   0.592  -0.643  0.00  0.00    +0.376 N 
ATOM     37  C   UNL     1      -0.991   2.023  -0.847  0.00  0.00    -0.097 C 
ATOM     38  C   UNL     1       0.043   0.369   0.588  0.00  0.00    -0.097 C 
ATOM     39  H   UNL     1      -0.121   0.237  -1.490  0.00  0.00    -0.083 HD
ENDBRANCH  35  36
ENDBRANCH  34  35
ENDBRANCH  33  34
ENDBRANCH   5  33
TORSDOF 11
