REMARK  Name = ZINC01674924
REMARK  3 active torsions:
REMARK  status: ('A' for Active; 'I' for Inactive)
REMARK    1  A    between atoms: C_1  and  C_2
REMARK    2  A    between atoms: C_2  and  C_3
REMARK    3  A    between atoms: C_3  and  C_10
REMARK                            x       y       z     vdW  Elec       q    Type
REMARK                         _______ _______ _______ _____ _____    ______ ____
ROOT
ATOM      1  C   UNL     1      -2.514   0.979   0.019  0.00  0.00    +0.137 C 
ATOM      2  C   UNL     1      -2.942   0.654  -1.398  0.00  0.00    +0.248 C 
ATOM      3  O   UNL     1      -3.209   1.441  -2.281  0.00  0.00    -0.273 OA
ATOM      4  N   UNL     1      -2.963  -0.695  -1.469  0.00  0.00    -0.238 N 
ATOM      5  C   UNL     1      -2.613  -1.257  -0.306  0.00  0.00    +0.307 C 
ATOM      6  O   UNL     1      -2.560  -2.457  -0.124  0.00  0.00    -0.252 OA
ATOM      7  N   UNL     1      -2.328  -0.344   0.640  0.00  0.00    -0.281 N 
ATOM      8  H   UNL     1      -3.203  -1.195  -2.265  0.00  0.00    +0.159 HD
ATOM      9  H   UNL     1      -2.054  -0.522   1.553  0.00  0.00    +0.152 HD
ENDROOT
BRANCH   1  10
ATOM     10  C   UNL     1      -1.219   1.750   0.017  0.00  0.00    -0.015 A 
ATOM     11  C   UNL     1      -0.013   1.076   0.008  0.00  0.00    +0.007 A 
ATOM     12  C   UNL     1       1.175   1.783   0.000  0.00  0.00    +0.020 A 
ATOM     13  C   UNL     1       1.156   3.166   0.008  0.00  0.00    +0.041 A 
ATOM     14  C   UNL     1      -0.052   3.841   0.023  0.00  0.00    +0.020 A 
ATOM     15  C   UNL     1      -1.239   3.133   0.031  0.00  0.00    +0.007 A 
ATOM     16 CL   UNL     1       2.647   4.055  -0.002  0.00  0.00    -0.084 Cl
ENDBRANCH   1  10
BRANCH   1  18
ATOM     17  C   UNL     1      -4.872   0.911   0.841  0.00  0.00    +0.007 C 
ATOM     18  C   UNL     1      -3.607   1.766   0.745  0.00  0.00    +0.037 C 
ENDBRANCH   1  18
TORSDOF 2
