REMARK  Name = ZINC33959545
REMARK  13 active torsions:
REMARK  status: ('A' for Active; 'I' for Inactive)
REMARK    1  A    between atoms: C_1  and  N_2
REMARK    2  A    between atoms: N_2  and  C_3
REMARK    3  A    between atoms: N_2  and  C_4
REMARK    4  A    between atoms: C_7  and  C_10
REMARK    5  A    between atoms: N_11  and  N_12
REMARK    6  A    between atoms: C_13  and  C_15
REMARK    7  A    between atoms: C_15  and  C_17
REMARK    8  A    between atoms: C_15  and  N_30
REMARK    9  A    between atoms: C_17  and  C_18
REMARK   10  A    between atoms: C_18  and  C_19
REMARK   11  A    between atoms: C_19  and  C_20
REMARK   12  A    between atoms: C_20  and  N_21
REMARK   13  A    between atoms: C_22  and  C_24
REMARK                            x       y       z     vdW  Elec       q    Type
REMARK                         _______ _______ _______ _____ _____    ______ ____
ROOT
ATOM      1  C   UNL     1      -0.141  -3.110  -9.828  0.00  0.00    +0.021 C 
ENDROOT
BRANCH   1   2
ATOM      2  N   UNL     1      -0.587  -2.303 -10.971  0.00  0.00    +0.387 N 
ATOM      3  C   UNL     1      -2.001  -1.948 -10.796  0.00  0.00    -0.078 C 
ATOM      4  C   UNL     1      -2.449  -1.040 -11.943  0.00  0.00    -0.019 C 
ATOM      5  C   UNL     1      -2.267  -1.778 -13.272  0.00  0.00    -0.004 C 
ATOM      6  C   UNL     1      -0.803  -2.208 -13.410  0.00  0.00    -0.019 C 
ATOM      7  C   UNL     1      -0.416  -3.073 -12.209  0.00  0.00    -0.078 C 
ATOM      8  H   UNL     1      -0.035  -1.459 -11.022  0.00  0.00    -0.081 HD
ENDBRANCH   1   2
BRANCH   1  10
ATOM      9  N   UNL     1      -0.252  -2.890  -7.366  0.00  0.00    -0.208 N 
ATOM     10  C   UNL     1      -0.216  -2.284  -8.569  0.00  0.00    +0.219 C 
ATOM     11  O   UNL     1      -0.244  -1.073  -8.639  0.00  0.00    -0.276 OA
ATOM     12  H   UNL     1      -0.229  -3.858  -7.310  0.00  0.00    +0.177 HD
BRANCH   9  14
ATOM     13  C   UNL     1      -0.356  -2.707  -5.038  0.00  0.00    +0.138 C 
ATOM     14  N   UNL     1      -0.321  -2.123  -6.197  0.00  0.00    -0.188 NA
BRANCH  13  18
ATOM     15  C   UNL     1      -0.567  -0.380  -1.493  0.00  0.00    +0.029 A 
ATOM     16  C   UNL     1      -0.535  -1.768  -1.411  0.00  0.00    +0.024 A 
ATOM     17  C   UNL     1      -0.467  -2.526  -2.559  0.00  0.00    +0.011 A 
ATOM     18  C   UNL     1      -0.429  -1.899  -3.807  0.00  0.00    -0.005 A 
ATOM     19  C   UNL     1      -0.462  -0.504  -3.886  0.00  0.00    +0.011 A 
ATOM     20  C   UNL     1      -0.536   0.248  -2.734  0.00  0.00    +0.024 A 
BRANCH  15  22
ATOM     21  C   UNL     1      -0.676   1.847  -0.413  0.00  0.00    +0.129 C 
ATOM     22  N   UNL     1      -0.636   0.385  -0.329  0.00  0.00    -0.336 N 
ATOM     23  C   UNL     1      -0.669  -0.274   0.979  0.00  0.00    +0.129 C 
ENDBRANCH  15  22
ENDBRANCH  13  18
ENDBRANCH   9  14
ENDBRANCH   1  10
BRANCH   1  24
ATOM     24  C   UNL     1       1.303  -3.562 -10.056  0.00  0.00    -0.006 C 
BRANCH  24  25
ATOM     25  C   UNL     1       1.753  -4.440  -8.886  0.00  0.00    +0.000 C 
BRANCH  25  26
ATOM     26  C   UNL     1       3.147  -5.000  -9.176  0.00  0.00    +0.019 C 
BRANCH  26  27
ATOM     27  C   UNL     1       3.597  -5.878  -8.006  0.00  0.00    +0.104 C 
BRANCH  27  28
ATOM     28  N   UNL     1       4.932  -6.414  -8.283  0.00  0.00    -0.311 N 
ATOM     29  C   UNL     1       5.534  -7.220  -7.386  0.00  0.00    +0.244 C 
ATOM     30  O   UNL     1       4.970  -7.502  -6.347  0.00  0.00    -0.270 OA
ATOM     31  H   UNL     1       5.382  -6.190  -9.113  0.00  0.00    +0.149 HD
BRANCH  29  32
ATOM     32  C   UNL     1       6.881  -7.762  -7.666  0.00  0.00    +0.037 A 
ATOM     33  C   UNL     1       7.534  -7.436  -8.856  0.00  0.00    +0.013 A 
ATOM     34  C   UNL     1       8.791  -7.944  -9.111  0.00  0.00    +0.001 A 
ATOM     35  C   UNL     1       9.404  -8.776  -8.191  0.00  0.00    +0.000 A 
ATOM     36  C   UNL     1       8.762  -9.103  -7.010  0.00  0.00    +0.001 A 
ATOM     37  C   UNL     1       7.507  -8.597  -6.739  0.00  0.00    +0.013 A 
ENDBRANCH  29  32
ENDBRANCH  27  28
ENDBRANCH  26  27
ENDBRANCH  25  26
ENDBRANCH  24  25
ENDBRANCH   1  24
TORSDOF 11
