REMARK  Name = ZINC04925557
REMARK  11 active torsions:
REMARK  status: ('A' for Active; 'I' for Inactive)
REMARK    1  A    between atoms: C_1  and  C_2
REMARK    2  A    between atoms: C_5  and  C_28
REMARK    3  A    between atoms: C_6  and  S_8
REMARK    4  A    between atoms: S_8  and  C_9
REMARK    5  A    between atoms: C_9  and  C_10
REMARK    6  A    between atoms: C_10  and  O_12
REMARK    7  A    between atoms: O_12  and  C_13
REMARK    8  A    between atoms: C_13  and  C_14
REMARK    9  A    between atoms: N_16  and  C_17
REMARK   10  A    between atoms: C_22  and  C_27
REMARK   11  A    between atoms: C_24  and  C_26
REMARK                            x       y       z     vdW  Elec       q    Type
REMARK                         _______ _______ _______ _____ _____    ______ ____
ROOT
ATOM      1  O   UNL     1      -0.018   1.448   0.010  0.00  0.00    -0.455 OA
ENDROOT
BRANCH   1   2
ATOM      2  C   UNL     1       1.170   2.073   0.002  0.00  0.00    +0.318 C 
ATOM      3  O   UNL     1       2.192   1.429  -0.011  0.00  0.00    -0.250 OA
BRANCH   2   4
ATOM      4  C   UNL     1       1.228   3.579   0.010  0.00  0.00    +0.194 C 
BRANCH   4   5
ATOM      5  S   UNL     1       2.961   4.117  -0.004  0.00  0.00    -0.114 S 
BRANCH   5  11
ATOM      6  C   UNL     1       0.202   8.563   0.047  0.00  0.00    +0.044 C 
ATOM      7  C   UNL     1       1.546   7.882   0.030  0.00  0.00    -0.049 A 
ATOM      8  C   UNL     1       2.704   8.639   0.023  0.00  0.00    +0.004 A 
ATOM      9  C   UNL     1       3.940   8.018   0.008  0.00  0.00    +0.005 A 
ATOM     10  C   UNL     1       4.022   6.640  -0.001  0.00  0.00    -0.037 A 
ATOM     11  C   UNL     1       2.861   5.876   0.006  0.00  0.00    +0.012 A 
ATOM     12  C   UNL     1       1.621   6.504   0.016  0.00  0.00    +0.018 A 
ATOM     13  C   UNL     1       5.369   5.964  -0.018  0.00  0.00    +0.045 C 
ENDBRANCH   5  11
ENDBRANCH   4   5
ENDBRANCH   2   4
ENDBRANCH   1   2
BRANCH   1  14
ATOM     14  C   UNL     1       0.002  -0.004   0.002  0.00  0.00    +0.327 C 
BRANCH  14  15
ATOM     15  C   UNL     1      -1.412  -0.526   0.013  0.00  0.00    +0.251 C 
ATOM     16  O   UNL     1      -2.344   0.250   0.026  0.00  0.00    -0.272 OA
ATOM     17  N   UNL     1      -1.640  -1.854   0.008  0.00  0.00    -0.309 N 
ATOM     18  H   UNL     1      -0.894  -2.474  -0.003  0.00  0.00    +0.149 HD
BRANCH  17  19
ATOM     19  C   UNL     1      -3.014  -2.361   0.018  0.00  0.00    +0.076 C 
ATOM     20  C   UNL     1      -3.523  -2.427   1.460  0.00  0.00    +0.022 C 
ATOM     21  C   UNL     1      -4.958  -2.957   1.471  0.00  0.00    +0.002 C 
ATOM     22  C   UNL     1      -4.990  -4.357   0.854  0.00  0.00    +0.003 C 
ATOM     23  C   UNL     1      -4.482  -4.290  -0.588  0.00  0.00    -0.009 C 
ATOM     24  C   UNL     1      -3.046  -3.761  -0.599  0.00  0.00    +0.009 C 
ATOM     25  C   UNL     1      -2.151  -4.697   0.215  0.00  0.00    +0.009 C 
ATOM     26  C   UNL     1      -4.513  -5.690  -1.205  0.00  0.00    +0.008 C 
ENDBRANCH  17  19
ENDBRANCH  14  15
ENDBRANCH   1  14
TORSDOF 7
