REMARK  Name = ZINC65099703
REMARK  3 active torsions:
REMARK  status: ('A' for Active; 'I' for Inactive)
REMARK    1  A    between atoms: C_5  and  N_7
REMARK    2  A    between atoms: C_10  and  C_12
REMARK    3  A    between atoms: C_18  and  C_19
REMARK                            x       y       z     vdW  Elec       q    Type
REMARK                         _______ _______ _______ _____ _____    ______ ____
ROOT
ATOM      1  C   UNL     1       2.925  -5.218  -0.050  0.00  0.00    +0.267 C 
ATOM      2  O   UNL     1       2.502  -6.358  -0.055  0.00  0.00    -0.268 OA
ATOM      3  N   UNL     1       4.254  -4.993  -0.056  0.00  0.00    -0.288 N 
ATOM      4  C   UNL     1       4.901  -3.668  -0.045  0.00  0.00    +0.109 C 
ATOM      5  C   UNL     1       6.306  -3.918   0.556  0.00  0.00    +0.021 C 
ATOM      6  C   UNL     1       6.661  -5.303  -0.046  0.00  0.00    +0.030 C 
ATOM      7  C   UNL     1       5.299  -6.027  -0.068  0.00  0.00    +0.123 C 
ENDROOT
BRANCH   7   8
ATOM      8  C   UNL     1       5.183  -6.858  -1.320  0.00  0.00    +0.037 A 
ATOM      9  C   UNL     1       4.787  -6.414  -2.530  0.00  0.00    +0.024 A 
ATOM     10  C   UNL     1       4.821  -7.510  -3.414  0.00  0.00    +0.019 A 
ATOM     11  C   UNL     1       5.237  -8.583  -2.711  0.00  0.00    +0.083 A 
ATOM     12  N   UNL     1       5.466  -8.188  -1.426  0.00  0.00    -0.363 N 
ATOM     13  H   UNL     1       5.777  -8.759  -0.706  0.00  0.00    +0.165 HD
ENDBRANCH   7   8
BRANCH   1  17
ATOM     14  N   UNL     1       1.237  -2.082  -0.022  0.00  0.00    -0.238 N 
ATOM     15  C   UNL     1       0.136  -2.878  -0.021  0.00  0.00    +0.115 A 
ATOM     16  C   UNL     1       0.571  -4.160  -0.031  0.00  0.00    +0.054 A 
ATOM     17  C   UNL     1       1.984  -4.081  -0.038  0.00  0.00    +0.148 A 
ATOM     18  N   UNL     1       2.301  -2.801  -0.038  0.00  0.00    -0.162 NA
BRANCH  14  23
ATOM     19  C   UNL     1      -0.017   1.377   0.010  0.00  0.00    +0.002 A 
ATOM     20  C   UNL     1       1.170   2.087   0.002  0.00  0.00    +0.002 A 
ATOM     21  C   UNL     1       2.380   1.417  -0.013  0.00  0.00    +0.022 A 
ATOM     22  C   UNL     1       2.406   0.035  -0.021  0.00  0.00    +0.066 A 
ATOM     23  C   UNL     1       1.214  -0.681  -0.014  0.00  0.00    +0.084 A 
ATOM     24  C   UNL     1       0.002  -0.004   0.002  0.00  0.00    +0.029 A 
ATOM     25 CL   UNL     1       3.924  -0.806  -0.042  0.00  0.00    -0.081 Cl
ENDBRANCH  14  23
ENDBRANCH   1  17
TORSDOF 3
