REMARK  Name = ZINC42677812
REMARK  4 active torsions:
REMARK  status: ('A' for Active; 'I' for Inactive)
REMARK    1  A    between atoms: C_6  and  N_22
REMARK    2  A    between atoms: C_7  and  N_9
REMARK    3  A    between atoms: N_9  and  C_10
REMARK    4  A    between atoms: C_15  and  C_18
REMARK                            x       y       z     vdW  Elec       q    Type
REMARK                         _______ _______ _______ _____ _____    ______ ____
ROOT
ATOM      1  N   UNL     1      -0.753  -3.505  -0.011  0.00  0.00    -0.323 N 
ATOM      2  H   UNL     1      -1.716  -3.628  -0.003  0.00  0.00    +0.148 HD
ENDROOT
BRANCH   1   9
ATOM      3  C   UNL     1      -0.017   1.373   0.010  0.00  0.00    +0.102 A 
ATOM      4  C   UNL     1       1.118   2.071   0.003  0.00  0.00    +0.067 A 
ATOM      5  S   UNL     1       2.347   0.775  -0.016  0.00  0.00    -0.058 S 
ATOM      6  C   UNL     1       1.231  -0.608  -0.013  0.00  0.00    +0.181 A 
ATOM      7  N   UNL     1       0.002  -0.004   0.002  0.00  0.00    -0.273 N 
ATOM      8  C   UNL     1      -0.915  -1.059   0.005  0.00  0.00    +0.242 A 
ATOM      9  C   UNL     1      -0.211  -2.210  -0.008  0.00  0.00    +0.170 A 
ATOM     10  N   UNL     1       1.097  -1.904  -0.019  0.00  0.00    -0.204 NA
BRANCH   8  11
ATOM     11  N   UNL     1      -2.397  -0.935   0.019  0.00  0.00    +0.077 N 
ATOM     12  O   UNL     1      -3.009  -0.879  -1.022  0.00  0.00    -0.125 OA
ATOM     13  O   UNL     1      -2.990  -0.890   1.072  0.00  0.00    -0.125 OA
ENDBRANCH   8  11
ENDBRANCH   1   9
BRANCH   1  14
ATOM     14  C   UNL     1       0.134  -4.670  -0.026  0.00  0.00    +0.072 C 
ATOM     15  C   UNL     1       0.556  -5.008   1.405  0.00  0.00    +0.022 C 
ATOM     16  C   UNL     1       1.483  -6.225   1.390  0.00  0.00    +0.002 C 
ATOM     17  C   UNL     1       0.746  -7.420   0.780  0.00  0.00    +0.012 C 
ATOM     18  C   UNL     1       0.324  -7.082  -0.651  0.00  0.00    +0.095 C 
ATOM     19  C   UNL     1      -0.603  -5.864  -0.636  0.00  0.00    +0.034 C 
BRANCH  18  20
ATOM     20  C   UNL     1      -0.413  -8.276  -1.261  0.00  0.00    +0.393 C 
ATOM     21  F   UNL     1      -1.548  -8.564  -0.496  0.00  0.00    -0.170 F 
ATOM     22  F   UNL     1      -0.798  -7.967  -2.570  0.00  0.00    -0.170 F 
ATOM     23  F   UNL     1       0.435  -9.389  -1.276  0.00  0.00    -0.170 F 
ENDBRANCH  18  20
ENDBRANCH   1  14
TORSDOF 4
