REMARK  Name = ZINC08921113
REMARK  19 active torsions:
REMARK  status: ('A' for Active; 'I' for Inactive)
REMARK    1  A    between atoms: C_1  and  C_2
REMARK    2  A    between atoms: C_2  and  N_72
REMARK    3  A    between atoms: C_3  and  C_4
REMARK    4  A    between atoms: C_3  and  N_72
REMARK    5  A    between atoms: C_5  and  C_6
REMARK    6  A    between atoms: C_5  and  N_72
REMARK    7  A    between atoms: C_6  and  N_7
REMARK    8  A    between atoms: C_8  and  C_29
REMARK    9  A    between atoms: C_11  and  C_12
REMARK   10  A    between atoms: C_11  and  O_24
REMARK   11  A    between atoms: C_13  and  C_23
REMARK   12  A    between atoms: C_14  and  C_19
REMARK   13  A    between atoms: C_17  and  C_18
REMARK   14  A    between atoms: C_19  and  O_21
REMARK   15  A    between atoms: O_21  and  C_22
REMARK   16  A    between atoms: C_33  and  O_37
REMARK   17  A    between atoms: C_34  and  O_35
REMARK   18  A    between atoms: O_35  and  C_36
REMARK   19  A    between atoms: O_37  and  C_38
REMARK                            x       y       z     vdW  Elec       q    Type
REMARK                         _______ _______ _______ _____ _____    ______ ____
ROOT
ATOM      1  N   UNL     1       0.617   1.000   1.258  0.00  0.00    -0.285 N 
ATOM      2  C   UNL     1       0.155  -0.211   1.942  0.00  0.00    +0.148 C 
ATOM      3  C   UNL     1      -0.417   0.234   3.269  0.00  0.00    +0.071 C 
ATOM      4  C   UNL     1      -0.970  -0.573   4.247  0.00  0.00    +0.135 C 
ATOM      5  C   UNL     1      -0.273   1.627   3.309  0.00  0.00    +0.249 C 
ATOM      6  O   UNL     1      -0.618   2.354   4.223  0.00  0.00    -0.282 OA
ATOM      7  C   UNL     1       0.378   2.063   2.044  0.00  0.00    +0.288 C 
ATOM      8  O   UNL     1       0.650   3.212   1.763  0.00  0.00    -0.266 OA
ENDROOT
BRANCH   4   9
ATOM      9  C   UNL     1      -1.484   0.024   5.487  0.00  0.00    +0.041 A 
ATOM     10  C   UNL     1      -2.842   0.129   5.871  0.00  0.00    -0.008 A 
ATOM     11  C   UNL     1      -2.866   0.744   7.088  0.00  0.00    +0.128 A 
ATOM     12  N   UNL     1      -1.568   1.027   7.458  0.00  0.00    -0.352 N 
ATOM     13  H   UNL     1      -1.302   1.467   8.280  0.00  0.00    +0.166 HD
ATOM     14  C   UNL     1      -0.731   0.597   6.501  0.00  0.00    +0.024 A 
ATOM     15  C   UNL     1       0.771   0.717   6.524  0.00  0.00    +0.064 C 
ATOM     16  C   UNL     1      -4.035  -0.351   5.085  0.00  0.00    +0.047 C 
BRANCH  11  17
ATOM     17  C   UNL     1      -4.068   1.057   7.867  0.00  0.00    +0.356 C 
ATOM     18  O   UNL     1      -5.166   0.758   7.438  0.00  0.00    -0.243 OA
BRANCH  17  19
ATOM     19  O   UNL     1      -3.957   1.675   9.060  0.00  0.00    -0.463 OA
ATOM     20  C   UNL     1      -5.189   1.953   9.777  0.00  0.00    +0.280 C 
ENDBRANCH  17  19
ENDBRANCH  11  17
ENDBRANCH   4   9
BRANCH   2  21
ATOM     21  C   UNL     1      -0.911  -0.891   1.123  0.00  0.00    +0.023 A 
ATOM     22  C   UNL     1      -2.247  -0.648   1.387  0.00  0.00    +0.009 A 
ATOM     23  C   UNL     1      -3.227  -1.270   0.637  0.00  0.00    +0.004 A 
ATOM     24  C   UNL     1      -2.877  -2.138  -0.381  0.00  0.00    +0.049 A 
ATOM     25  C   UNL     1      -1.541  -2.387  -0.650  0.00  0.00    +0.162 A 
ATOM     26  C   UNL     1      -0.553  -1.756   0.102  0.00  0.00    +0.167 A 
BRANCH  26  27
ATOM     27  O   UNL     1       0.759  -1.993  -0.162  0.00  0.00    -0.491 OA
ATOM     28  C   UNL     1       1.345  -3.147   0.444  0.00  0.00    +0.277 C 
ENDBRANCH  26  27
BRANCH  25  29
ATOM     29  O   UNL     1      -1.195  -3.241  -1.650  0.00  0.00    -0.491 OA
ATOM     30  C   UNL     1      -2.261  -3.847  -2.384  0.00  0.00    +0.277 C 
ENDBRANCH  25  29
ENDBRANCH   2  21
BRANCH   4  31
ATOM     31  O   UNL     1      -1.037  -1.908   4.063  0.00  0.00    -0.506 OA
ATOM     32  H   UNL     1      -1.462  -2.334   4.862  0.00  0.00    +0.292 HD
ENDBRANCH   4  31
BRANCH   1  33
ATOM     33  C   UNL     1       1.244   1.044  -0.065  0.00  0.00    +0.090 C 
BRANCH  33  34
ATOM     34  C   UNL     1       0.185   1.365  -1.121  0.00  0.00    -0.060 C 
BRANCH  34  35
ATOM     35  N   UNL     1       0.851   1.499  -2.434  0.00  0.00    +0.380 N 
ATOM     36  H   UNL     1       1.717   2.038  -2.316  0.00  0.00    -0.082 HD
BRANCH  35  38
ATOM     37  C   UNL     1      -0.088  -0.624  -3.284  0.00  0.00    -0.017 C 
ATOM     38  C   UNL     1       1.186   0.163  -2.969  0.00  0.00    -0.082 C 
ENDBRANCH  35  38
BRANCH  35  39
ATOM     39  C   UNL     1      -0.034   2.214  -3.378  0.00  0.00    -0.082 C 
ATOM     40  C   UNL     1       0.747   2.506  -4.662  0.00  0.00    -0.017 C 
ENDBRANCH  35  39
ENDBRANCH  34  35
ENDBRANCH  33  34
ENDBRANCH   1  33
TORSDOF 12
