REMARK  Name = ZINC65190210
REMARK  5 active torsions:
REMARK  status: ('A' for Active; 'I' for Inactive)
REMARK    1  A    between atoms: C_1  and  C_2
REMARK    2  A    between atoms: C_2  and  N_3
REMARK    3  A    between atoms: N_6  and  N_7
REMARK    4  A    between atoms: C_8  and  C_10
REMARK    5  A    between atoms: C_17  and  C_19
REMARK                            x       y       z     vdW  Elec       q    Type
REMARK                         _______ _______ _______ _____ _____    ______ ____
ROOT
ATOM      1  N   UNL     1       2.034  -1.348   3.408  0.00  0.00    -0.229 N 
ATOM      2  C   UNL     1       2.686  -1.794   4.500  0.00  0.00    +0.261 C 
ATOM      3  O   UNL     1       2.816  -2.989   4.684  0.00  0.00    -0.269 OA
ATOM      4  H   UNL     1       1.931  -0.394   3.260  0.00  0.00    +0.173 HD
ENDROOT
BRANCH   2   5
ATOM      5  C   UNL     1       3.242  -0.835   5.468  0.00  0.00    +0.049 A 
ATOM      6  C   UNL     1       3.106   0.522   5.288  0.00  0.00    +0.058 A 
ATOM      7  S   UNL     1       3.881   1.194   6.617  0.00  0.00    -0.101 S 
ATOM      8  C   UNL     1       4.401  -0.283   7.439  0.00  0.00    -0.006 A 
ATOM      9  C   UNL     1       3.948  -1.286   6.652  0.00  0.00    -0.025 A 
ATOM     10  C   UNL     1       4.186  -2.744   7.016  0.00  0.00    +0.037 C 
ATOM     11  C   UNL     1       4.541  -2.827   8.502  0.00  0.00    +0.008 C 
ATOM     12  C   UNL     1       5.684  -1.859   8.821  0.00  0.00    -0.009 C 
ATOM     13  C   UNL     1       5.166  -0.419   8.718  0.00  0.00    +0.046 C 
ATOM     14  C   UNL     1       6.197  -2.122  10.238  0.00  0.00    +0.008 C 
ENDBRANCH   2   5
BRANCH   1  18
ATOM     15  N   UNL     1       0.711  -0.489   1.189  0.00  0.00    -0.298 N 
ATOM     16  C   UNL     1       0.854  -1.814   1.394  0.00  0.00    +0.316 C 
ATOM     17  O   UNL     1       0.395  -2.606   0.593  0.00  0.00    -0.251 OA
ATOM     18  N   UNL     1       1.506  -2.260   2.486  0.00  0.00    -0.218 N 
ATOM     19  H   UNL     1       1.077   0.142   1.827  0.00  0.00    +0.150 HD
ATOM     20  H   UNL     1       1.609  -3.213   2.633  0.00  0.00    +0.174 HD
BRANCH  15  22
ATOM     21  C   UNL     1      -0.019   1.526   0.010  0.00  0.00    +0.024 C 
ATOM     22  C   UNL     1       0.002  -0.004   0.002  0.00  0.00    +0.102 C 
ENDBRANCH  15  22
ENDBRANCH   1  18
TORSDOF 3
