REMARK  Name = ZINC12378840
REMARK  9 active torsions:
REMARK  status: ('A' for Active; 'I' for Inactive)
REMARK    1  A    between atoms: C_1  and  C_2
REMARK    2  A    between atoms: C_2  and  C_26
REMARK    3  A    between atoms: N_3  and  N_4
REMARK    4  A    between atoms: C_7  and  O_25
REMARK    5  A    between atoms: C_8  and  C_11
REMARK    6  A    between atoms: C_11  and  C_12
REMARK    7  A    between atoms: N_14  and  C_15
REMARK    8  A    between atoms: C_20  and  C_21
REMARK    9  A    between atoms: C_29  and  N_32
REMARK                            x       y       z     vdW  Elec       q    Type
REMARK                         _______ _______ _______ _____ _____    ______ ____
ROOT
ATOM      1  N   UNL     1       2.611   4.206   0.721  0.00  0.00    -0.122 NA
ATOM      2  C   UNL     1       1.971   3.008   0.903  0.00  0.00    +0.213 C 
ATOM      3  N   UNL     1       2.520   1.821   1.152  0.00  0.00    -0.189 NA
ATOM      4  C   UNL     1       1.850   0.727   1.313  0.00  0.00    +0.204 C 
ATOM      5  C   UNL     1       0.340   0.893   1.195  0.00  0.00    +0.148 C 
ATOM      6  S   UNL     1       0.263   2.698   0.862  0.00  0.00    -0.071 S 
ENDROOT
BRANCH   1   9
ATOM      7  C   UNL     1       1.755   7.722   0.165  0.00  0.00    +0.068 C 
ATOM      8  C   UNL     1       2.557   6.454   0.307  0.00  0.00    +0.068 C 
ATOM      9  N   UNL     1       1.926   5.273   0.487  0.00  0.00    -0.151 NA
BRANCH   8  10
ATOM     10  C   UNL     1       3.957   6.500   0.253  0.00  0.00    -0.002 A 
ATOM     11  C   UNL     1       4.654   7.625   0.753  0.00  0.00    +0.012 A 
ATOM     12  C   UNL     1       6.017   7.654   0.699  0.00  0.00    +0.033 A 
ATOM     13  C   UNL     1       6.720   6.591   0.147  0.00  0.00    +0.126 A 
ATOM     14  C   UNL     1       6.048   5.482  -0.352  0.00  0.00    +0.033 A 
ATOM     15  C   UNL     1       4.686   5.424  -0.306  0.00  0.00    +0.012 A 
BRANCH  13  16
ATOM     16  N   UNL     1       8.198   6.639   0.090  0.00  0.00    +0.056 N 
ATOM     17  O   UNL     1       8.870   5.634  -0.432  0.00  0.00    -0.126 OA
ATOM     18  O   UNL     1       8.841   7.687   0.561  0.00  0.00    -0.126 OA
ENDBRANCH  13  16
ENDBRANCH   8  10
ENDBRANCH   1   9
BRANCH   4  19
ATOM     19  O   UNL     1       2.434  -0.452   1.562  0.00  0.00    -0.495 OA
ATOM     20  H   UNL     1       3.399  -0.460   1.619  0.00  0.00    +0.293 HD
ENDBRANCH   4  19
BRANCH   5  21
ATOM     21  C   UNL     1      -0.222   0.083   0.025  0.00  0.00    +0.120 C 
BRANCH  21  22
ATOM     22  C   UNL     1      -1.700   0.347  -0.105  0.00  0.00    +0.219 C 
ATOM     23  O   UNL     1      -2.250   1.108   0.663  0.00  0.00    -0.275 OA
ATOM     24  N   UNL     1      -2.411  -0.262  -1.075  0.00  0.00    -0.285 N 
ATOM     25  H   UNL     1      -1.960  -0.817  -1.730  0.00  0.00    +0.155 HD
BRANCH  24  26
ATOM     26  C   UNL     1      -3.799  -0.093  -1.136  0.00  0.00    +0.045 A 
ATOM     27  C   UNL     1      -4.372   1.107  -0.737  0.00  0.00    +0.024 A 
ATOM     28  C   UNL     1      -5.742   1.272  -0.803  0.00  0.00    +0.002 A 
ATOM     29  C   UNL     1      -6.543   0.240  -1.257  0.00  0.00    +0.001 A 
ATOM     30  C   UNL     1      -5.975  -0.958  -1.650  0.00  0.00    +0.014 A 
ATOM     31  C   UNL     1      -4.606  -1.127  -1.591  0.00  0.00    +0.076 A 
BRANCH  31  32
ATOM     32  C   UNL     1      -3.988  -2.434  -2.019  0.00  0.00    +0.419 C 
ATOM     33  F   UNL     1      -4.995  -3.312  -2.434  0.00  0.00    -0.166 F 
ATOM     34  F   UNL     1      -3.103  -2.206  -3.078  0.00  0.00    -0.166 F 
ATOM     35  F   UNL     1      -3.294  -2.996  -0.943  0.00  0.00    -0.166 F 
ENDBRANCH  31  32
ENDBRANCH  24  26
ENDBRANCH  21  22
ENDBRANCH   5  21
TORSDOF 8
