REMARK  Name = ZINC59746371
REMARK  10 active torsions:
REMARK  status: ('A' for Active; 'I' for Inactive)
REMARK    1  A    between atoms: C_1  and  C_2
REMARK    2  A    between atoms: C_5  and  C_8
REMARK    3  A    between atoms: C_9  and  S_10
REMARK    4  A    between atoms: S_10  and  N_13
REMARK    5  A    between atoms: N_13  and  C_14
REMARK    6  A    between atoms: C_14  and  C_15
REMARK    7  A    between atoms: C_15  and  C_17
REMARK    8  A    between atoms: C_15  and  N_25
REMARK    9  A    between atoms: C_22  and  O_23
REMARK   10  A    between atoms: O_23  and  C_24
REMARK                            x       y       z     vdW  Elec       q    Type
REMARK                         _______ _______ _______ _____ _____    ______ ____
ROOT
ATOM      1  C   UNL     1       3.044  -7.626   3.727  0.00  0.00    -0.018 C 
ENDROOT
BRANCH   1   2
ATOM      2  N   UNL     1       2.881  -9.061   3.459  0.00  0.00    +0.385 N 
ATOM      3  C   UNL     1       3.974  -9.804   4.098  0.00  0.00    -0.078 C 
ATOM      4  C   UNL     1       3.764 -11.306   3.890  0.00  0.00    -0.019 C 
ATOM      5  C   UNL     1       3.747 -11.611   2.390  0.00  0.00    -0.004 C 
ATOM      6  C   UNL     1       2.652 -10.774   1.722  0.00  0.00    -0.019 C 
ATOM      7  C   UNL     1       2.902  -9.292   2.009  0.00  0.00    -0.078 C 
ATOM      8  H   UNL     1       1.999  -9.374   3.835  0.00  0.00    -0.081 HD
ENDBRANCH   1   2
BRANCH   1   9
ATOM      9  C   UNL     1       2.883  -7.369   5.203  0.00  0.00    -0.018 A 
ATOM     10  C   UNL     1       2.238  -8.295   5.999  0.00  0.00    +0.005 A 
ATOM     11  C   UNL     1       2.090  -8.059   7.354  0.00  0.00    +0.000 A 
ATOM     12  C   UNL     1       2.587  -6.897   7.914  0.00  0.00    +0.004 A 
ATOM     13  C   UNL     1       3.233  -5.969   7.122  0.00  0.00    +0.046 A 
ATOM     14  C   UNL     1       3.388  -6.205   5.764  0.00  0.00    +0.122 A 
BRANCH  14  15
ATOM     15  O   UNL     1       4.029  -5.296   4.983  0.00  0.00    -0.495 OA
ATOM     16  C   UNL     1       4.523  -4.120   5.629  0.00  0.00    +0.277 C 
ENDBRANCH  14  15
ENDBRANCH   1   9
BRANCH   1  17
ATOM     17  C   UNL     1       1.984  -6.839   2.953  0.00  0.00    +0.095 C 
BRANCH  17  18
ATOM     18  N   UNL     1       0.654  -7.356   3.284  0.00  0.00    -0.192 NA
ATOM     19  H   UNL     1       0.562  -8.228   3.700  0.00  0.00    +0.148 HD
BRANCH  18  20
ATOM     20  S   UNL     1      -0.693  -6.453   2.949  0.00  0.00    +0.052 S 
ATOM     21  O   UNL     1      -0.443  -5.148   3.454  0.00  0.00    -0.154 OA
ATOM     22  O   UNL     1      -1.813  -7.226   3.357  0.00  0.00    -0.154 OA
BRANCH  20  24
ATOM     23  C   UNL     1      -1.811  -6.850   0.542  0.00  0.00    +0.028 C 
ATOM     24  C   UNL     1      -0.796  -6.303   1.196  0.00  0.00    +0.153 C 
BRANCH  23  29
ATOM     25  C   UNL     1      -2.148  -6.358  -5.181  0.00  0.00    +0.044 C 
ATOM     26  C   UNL     1      -2.060  -6.487  -3.682  0.00  0.00    -0.050 A 
ATOM     27  C   UNL     1      -3.039  -7.178  -2.991  0.00  0.00    +0.004 A 
ATOM     28  C   UNL     1      -2.964  -7.299  -1.619  0.00  0.00    +0.008 A 
ATOM     29  C   UNL     1      -1.897  -6.724  -0.928  0.00  0.00    -0.024 A 
ATOM     30  C   UNL     1      -0.912  -6.029  -1.631  0.00  0.00    +0.008 A 
ATOM     31  C   UNL     1      -0.996  -5.919  -3.003  0.00  0.00    +0.004 A 
ENDBRANCH  23  29
ENDBRANCH  20  24
ENDBRANCH  18  20
ENDBRANCH  17  18
ENDBRANCH   1  17
TORSDOF 8
