REMARK  Name = ZINC59890362
REMARK  12 active torsions:
REMARK  status: ('A' for Active; 'I' for Inactive)
REMARK    1  A    between atoms: C_1  and  C_2
REMARK    2  A    between atoms: C_2  and  C_3
REMARK    3  A    between atoms: C_3  and  C_4
REMARK    4  A    between atoms: C_4  and  C_34
REMARK    5  A    between atoms: N_5  and  N_6
REMARK    6  A    between atoms: C_9  and  S_12
REMARK    7  A    between atoms: S_12  and  C_13
REMARK    8  A    between atoms: C_13  and  C_14
REMARK    9  A    between atoms: N_16  and  C_17
REMARK   10  A    between atoms: C_20  and  S_23
REMARK   11  A    between atoms: S_23  and  N_26
REMARK   12  A    between atoms: C_30  and  C_33
REMARK                            x       y       z     vdW  Elec       q    Type
REMARK                         _______ _______ _______ _____ _____    ______ ____
ROOT
ATOM      1  C   UNL     1      -3.617  -8.728  -8.528  0.00  0.00    +0.227 C 
ATOM      2  O   UNL     1      -3.549  -9.602  -9.367  0.00  0.00    -0.275 OA
ATOM      3  N   UNL     1      -4.467  -7.696  -8.697  0.00  0.00    -0.285 N 
ATOM      4  H   UNL     1      -4.570  -7.034  -7.996  0.00  0.00    +0.155 HD
ENDROOT
BRANCH   3   5
ATOM      5  C   UNL     1      -5.201  -7.581  -9.883  0.00  0.00    +0.034 A 
ATOM      6  C   UNL     1      -5.470  -6.327 -10.415  0.00  0.00    +0.025 A 
ATOM      7  C   UNL     1      -6.194  -6.216 -11.586  0.00  0.00    +0.030 A 
ATOM      8  C   UNL     1      -6.651  -7.352 -12.228  0.00  0.00    +0.106 A 
ATOM      9  C   UNL     1      -6.385  -8.602 -11.700  0.00  0.00    +0.030 A 
ATOM     10  C   UNL     1      -5.656  -8.720 -10.533  0.00  0.00    +0.025 A 
BRANCH   8  11
ATOM     11  S   UNL     1      -7.575  -7.207 -13.721  0.00  0.00    +0.061 S 
ATOM     12  O   UNL     1      -8.354  -8.390 -13.834  0.00  0.00    -0.153 OA
ATOM     13  O   UNL     1      -8.156  -5.910 -13.715  0.00  0.00    -0.153 OA
BRANCH  11  14
ATOM     14  N   UNL     1      -6.491  -7.234 -14.972  0.00  0.00    -0.176 NA
ATOM     15  C   UNL     1      -5.895  -5.987 -15.474  0.00  0.00    +0.109 C 
ATOM     16  C   UNL     1      -4.370  -6.130 -15.461  0.00  0.00    +0.017 C 
ATOM     17  C   UNL     1      -3.972  -7.379 -16.251  0.00  0.00    +0.006 C 
ATOM     18  C   UNL     1      -4.578  -8.618 -15.588  0.00  0.00    +0.002 C 
ATOM     19  C   UNL     1      -6.101  -8.505 -15.598  0.00  0.00    +0.112 C 
ATOM     20  C   UNL     1      -4.152  -9.869 -16.359  0.00  0.00    +0.009 C 
ENDBRANCH  11  14
ENDBRANCH   8  11
ENDBRANCH   3   5
BRANCH   1  21
ATOM     21  C   UNL     1      -2.750  -8.797  -7.297  0.00  0.00    +0.173 C 
BRANCH  21  22
ATOM     22  S   UNL     1      -1.725 -10.292  -7.363  0.00  0.00    -0.075 S 
BRANCH  22  26
ATOM     23  N   UNL     1       1.604 -11.473  -3.623  0.00  0.00    -0.205 N 
ATOM     24  C   UNL     1       0.638 -10.779  -4.331  0.00  0.00    +0.232 A 
ATOM     25  N   UNL     1       0.122 -11.134  -5.489  0.00  0.00    -0.186 NA
ATOM     26  C   UNL     1      -0.782 -10.228  -5.875  0.00  0.00    +0.211 A 
ATOM     27  N   UNL     1      -0.854  -9.284  -4.967  0.00  0.00    -0.144 NA
ATOM     28  N   UNL     1       0.054  -9.622  -3.952  0.00  0.00    -0.245 N 
ATOM     29  H   UNL     1       1.919 -11.132  -2.772  0.00  0.00    +0.177 HD
ATOM     30  H   UNL     1       0.230  -9.122  -3.139  0.00  0.00    +0.192 HD
BRANCH  23  32
ATOM     31  C   UNL     1       3.019 -13.309  -3.483  0.00  0.00    +0.034 C 
ATOM     32  N   UNL     1       2.125 -12.667  -4.137  0.00  0.00    -0.189 NA
ATOM     33  C   UNL     1       3.510 -12.779  -2.160  0.00  0.00    +0.062 C 
BRANCH  31  34
ATOM     34  C   UNL     1       3.580 -14.594  -4.035  0.00  0.00    +0.052 C 
BRANCH  34  36
ATOM     35  C   UNL     1       5.636 -15.712  -4.911  0.00  0.00    +0.004 C 
ATOM     36  C   UNL     1       5.066 -14.407  -4.350  0.00  0.00    +0.002 C 
ENDBRANCH  34  36
ENDBRANCH  31  34
ENDBRANCH  23  32
ENDBRANCH  22  26
ENDBRANCH  21  22
ENDBRANCH   1  21
TORSDOF 9
