REMARK  Name = ZINC11270647
REMARK  10 active torsions:
REMARK  status: ('A' for Active; 'I' for Inactive)
REMARK    1  A    between atoms: C_1  and  C_2
REMARK    2  A    between atoms: N_10  and  N_14
REMARK    3  A    between atoms: C_15  and  C_17
REMARK    4  A    between atoms: C_17  and  N_18
REMARK    5  A    between atoms: C_21  and  C_25
REMARK    6  A    between atoms: C_21  and  C_26
REMARK    7  A    between atoms: C_29  and  C_32
REMARK    8  A    between atoms: C_32  and  C_33
REMARK    9  A    between atoms: C_32  and  C_34
REMARK   10  A    between atoms: C_32  and  C_35
REMARK                            x       y       z     vdW  Elec       q    Type
REMARK                         _______ _______ _______ _____ _____    ______ ____
ROOT
ATOM      1  C   UNL     1       1.788  -1.734  -0.025  0.00  0.00    +0.215 C 
ENDROOT
BRANCH   1   2
ATOM      2  N   UNL     1       1.304  -0.351  -0.012  0.00  0.00    -0.215 N 
ATOM      3  C   UNL     1       0.002  -0.004   0.002  0.00  0.00    +0.251 C 
ATOM      4  O   UNL     1      -0.954  -0.749   0.008  0.00  0.00    -0.272 OA
ATOM      5  C   UNL     1      -0.018   1.512   0.010  0.00  0.00    +0.135 C 
ATOM      6  N   UNL     1       1.409   1.877  -0.001  0.00  0.00    -0.281 N 
ATOM      7  C   UNL     1       2.101   0.724  -0.014  0.00  0.00    +0.310 C 
ATOM      8  O   UNL     1       3.315   0.665  -0.026  0.00  0.00    -0.252 OA
ATOM      9  C   UNL     1      -0.698   2.034   1.278  0.00  0.00    +0.047 C 
ATOM     10  H   UNL     1       1.777   2.775  -0.000  0.00  0.00    +0.152 HD
BRANCH   5  11
ATOM     11  C   UNL     1      -0.711   2.039  -1.220  0.00  0.00    -0.015 A 
ATOM     12  C   UNL     1      -1.712   1.299  -1.820  0.00  0.00    +0.006 A 
ATOM     13  C   UNL     1      -2.351   1.785  -2.946  0.00  0.00    +0.004 A 
ATOM     14  C   UNL     1      -1.981   3.007  -3.477  0.00  0.00    -0.042 A 
ATOM     15  C   UNL     1      -0.977   3.745  -2.879  0.00  0.00    +0.004 A 
ATOM     16  C   UNL     1      -0.342   3.261  -1.750  0.00  0.00    +0.006 A 
BRANCH  14  17
ATOM     17  C   UNL     1      -2.673   3.534  -4.707  0.00  0.00    -0.013 C 
ATOM     18  C   UNL     1      -1.646   3.733  -5.824  0.00  0.00    +0.015 C 
ATOM     19  C   UNL     1      -3.735   2.532  -5.164  0.00  0.00    +0.015 C 
ATOM     20  C   UNL     1      -3.340   4.872  -4.383  0.00  0.00    +0.015 C 
ENDBRANCH  14  17
ENDBRANCH   5  11
ENDBRANCH   1   2
BRANCH   1  22
ATOM     21  N   UNL     1       2.375  -3.449  -1.708  0.00  0.00    -0.222 N 
ATOM     22  C   UNL     1       1.940  -2.199  -1.450  0.00  0.00    +0.248 C 
ATOM     23  O   UNL     1       1.671  -1.450  -2.365  0.00  0.00    -0.273 OA
ATOM     24  H   UNL     1       2.590  -4.048  -0.976  0.00  0.00    +0.174 HD
BRANCH  21  34
ATOM     25  C   UNL     1       2.714  -6.203  -9.140  0.00  0.00    +0.007 C 
ATOM     26  C   UNL     1       2.135  -6.045  -7.732  0.00  0.00    -0.014 C 
ATOM     27  C   UNL     1       1.795  -4.574  -7.484  0.00  0.00    +0.006 C 
ATOM     28  C   UNL     1       1.205  -4.418  -6.079  0.00  0.00    +0.035 C 
ATOM     29  C   UNL     1       2.215  -4.906  -5.046  0.00  0.00    +0.114 C 
ATOM     30  C   UNL     1       2.579  -6.365  -5.295  0.00  0.00    +0.035 C 
ATOM     31  C   UNL     1       3.164  -6.514  -6.702  0.00  0.00    +0.006 C 
ATOM     32  C   UNL     1       1.670  -4.733  -3.647  0.00  0.00    +0.263 C 
ATOM     33  O   UNL     1       0.679  -5.250  -3.176  0.00  0.00    -0.271 OA
ATOM     34  N   UNL     1       2.517  -3.881  -3.033  0.00  0.00    -0.137 N 
ATOM     35  C   UNL     1       3.513  -3.506  -3.845  0.00  0.00    +0.326 C 
ATOM     36  O   UNL     1       4.402  -2.745  -3.516  0.00  0.00    -0.251 OA
ATOM     37  N   UNL     1       3.418  -4.065  -5.066  0.00  0.00    -0.284 N 
ATOM     38  H   UNL     1       4.025  -3.937  -5.812  0.00  0.00    +0.151 HD
ENDBRANCH  21  34
ENDBRANCH   1  22
TORSDOF 5
