REMARK  Name = ZINC16699338
REMARK  7 active torsions:
REMARK  status: ('A' for Active; 'I' for Inactive)
REMARK    1  A    between atoms: C_1  and  C_2
REMARK    2  A    between atoms: C_6  and  N_9
REMARK    3  A    between atoms: C_7  and  C_8
REMARK    4  A    between atoms: C_13  and  C_15
REMARK    5  A    between atoms: C_15  and  O_16
REMARK    6  A    between atoms: O_16  and  C_17
REMARK    7  A    between atoms: C_17  and  C_19
REMARK                            x       y       z     vdW  Elec       q    Type
REMARK                         _______ _______ _______ _____ _____    ______ ____
ROOT
ATOM      1  N   UNL     1      -5.216  10.785  -0.873  0.00  0.00    -0.269 N 
ATOM      2  C   UNL     1      -4.189   9.912  -0.891  0.00  0.00    +0.310 C 
ATOM      3  O   UNL     1      -3.071  10.296  -1.173  0.00  0.00    -0.252 OA
ATOM      4  N   UNL     1      -4.402   8.615  -0.595  0.00  0.00    -0.237 N 
ATOM      5  C   UNL     1      -3.375   7.742  -0.613  0.00  0.00    +0.258 C 
ATOM      6  O   UNL     1      -2.259   8.125  -0.894  0.00  0.00    -0.272 OA
ATOM      7  H   UNL     1      -6.121  10.466  -0.729  0.00  0.00    +0.156 HD
ATOM      8  H   UNL     1      -5.295   8.309  -0.370  0.00  0.00    +0.159 HD
ENDROOT
BRANCH   1  14
ATOM      9  C   UNL     1      -6.839  15.210  -2.273  0.00  0.00    +0.044 C 
ATOM     10  C   UNL     1      -5.746  14.319  -1.741  0.00  0.00    -0.046 A 
ATOM     11  C   UNL     1      -4.505  14.851  -1.440  0.00  0.00    +0.004 A 
ATOM     12  C   UNL     1      -3.501  14.036  -0.952  0.00  0.00    +0.002 A 
ATOM     13  C   UNL     1      -3.733  12.688  -0.763  0.00  0.00    +0.023 A 
ATOM     14  C   UNL     1      -4.977  12.150  -1.064  0.00  0.00    +0.038 A 
ATOM     15  C   UNL     1      -5.983  12.970  -1.559  0.00  0.00    -0.026 A 
ATOM     16  C   UNL     1      -7.333  12.390  -1.893  0.00  0.00    +0.046 C 
ENDBRANCH   1  14
BRANCH   5  17
ATOM     17  C   UNL     1      -3.613   6.291  -0.283  0.00  0.00    +0.328 C 
BRANCH  17  18
ATOM     18  O   UNL     1      -2.380   5.574  -0.369  0.00  0.00    -0.452 OA
BRANCH  18  19
ATOM     19  C   UNL     1      -2.420   4.253  -0.101  0.00  0.00    +0.339 C 
ATOM     20  O   UNL     1      -3.474   3.724   0.198  0.00  0.00    -0.245 OA
BRANCH  19  21
ATOM     21  C   UNL     1      -1.233   3.480  -0.168  0.00  0.00    +0.074 C 
ATOM     22  C   UNL     1      -1.271   2.152   0.101  0.00  0.00    +0.025 C 
ATOM     23  C   UNL     1      -0.008   1.401   0.072  0.00  0.00    +0.019 A 
ATOM     24  C   UNL     1       0.012   0.007   0.077  0.00  0.00    +0.031 A 
ATOM     25  C   UNL     1       1.222  -0.657   0.040  0.00  0.00    +0.042 A 
ATOM     26  C   UNL     1       2.410   0.056  -0.001  0.00  0.00    +0.023 A 
ATOM     27  C   UNL     1       2.402   1.438   0.005  0.00  0.00    +0.048 A 
ATOM     28  C   UNL     1       1.200   2.121   0.054  0.00  0.00    +0.128 A 
ATOM     29  O   UNL     1       1.164   3.475   0.106  0.00  0.00    -0.487 OA
ATOM     30  C   UNL     1       0.073   4.133  -0.537  0.00  0.00    +0.271 C 
ATOM     31 CL   UNL     1       1.254  -2.393   0.046  0.00  0.00    -0.084 Cl
ENDBRANCH  19  21
ENDBRANCH  18  19
ENDBRANCH  17  18
ENDBRANCH   5  17
TORSDOF 5
