REMARK  Name = ZINC09949458
REMARK  6 active torsions:
REMARK  status: ('A' for Active; 'I' for Inactive)
REMARK    1  A    between atoms: C_1  and  C_2
REMARK    2  A    between atoms: C_4  and  C_23
REMARK    3  A    between atoms: C_5  and  N_9
REMARK    4  A    between atoms: C_13  and  S_15
REMARK    5  A    between atoms: S_15  and  C_16
REMARK    6  A    between atoms: C_16  and  C_17
REMARK                            x       y       z     vdW  Elec       q    Type
REMARK                         _______ _______ _______ _____ _____    ______ ____
ROOT
ATOM      1  N   UNL     1      -1.062  -0.900   0.007  0.00  0.00    -0.291 N 
ATOM      2  C   UNL     1      -0.811  -0.248   1.210  0.00  0.00    +0.187 A 
ATOM      3  N   UNL     1      -0.267  -0.717   2.316  0.00  0.00    -0.125 NA
ATOM      4  N   UNL     1      -0.111   0.110   3.405  0.00  0.00    -0.133 NA
ATOM      5  C   UNL     1      -0.506   1.367   3.337  0.00  0.00    +0.160 A 
ATOM      6  S   UNL     1      -1.141   1.446   1.670  0.00  0.00    -0.024 S 
ATOM      7  H   UNL     1      -1.403  -0.402  -0.752  0.00  0.00    +0.154 HD
ENDROOT
BRANCH   1  12
ATOM      8  C   UNL     1      -0.084  -6.468  -0.457  0.00  0.00    +0.044 C 
ATOM      9  C   UNL     1      -0.343  -4.989  -0.335  0.00  0.00    -0.049 A 
ATOM     10  C   UNL     1      -1.608  -4.535  -0.009  0.00  0.00    +0.008 A 
ATOM     11  C   UNL     1      -1.849  -3.180   0.110  0.00  0.00    -0.028 A 
ATOM     12  C   UNL     1      -0.820  -2.272  -0.108  0.00  0.00    +0.054 A 
ATOM     13  C   UNL     1       0.450  -2.731  -0.435  0.00  0.00    +0.063 A 
ATOM     14  C   UNL     1       0.685  -4.088  -0.547  0.00  0.00    +0.025 A 
ATOM     15 CL   UNL     1       1.741  -1.601  -0.702  0.00  0.00    -0.082 Cl
ATOM     16  C   UNL     1      -3.227  -2.687   0.470  0.00  0.00    +0.046 C 
ENDBRANCH   1  12
BRANCH   5  17
ATOM     17  S   UNL     1      -0.427   2.630   4.563  0.00  0.00    -0.088 S 
BRANCH  17  18
ATOM     18  C   UNL     1       0.338   1.810   5.989  0.00  0.00    +0.172 C 
BRANCH  18  19
ATOM     19  C   UNL     1       0.466   2.793   7.125  0.00  0.00    +0.231 C 
ATOM     20  O   UNL     1       0.079   3.933   6.986  0.00  0.00    -0.274 OA
ATOM     21  N   UNL     1       1.010   2.404   8.295  0.00  0.00    -0.240 N 
ATOM     22  C   UNL     1       1.124   3.282   9.310  0.00  0.00    +0.303 C 
ATOM     23  O   UNL     1       0.736   4.426   9.171  0.00  0.00    -0.253 OA
ATOM     24  N   UNL     1       1.669   2.893  10.480  0.00  0.00    -0.313 N 
ATOM     25  H   UNL     1       1.320   1.491   8.406  0.00  0.00    +0.159 HD
ATOM     26  H   UNL     1       1.978   1.981  10.591  0.00  0.00    +0.146 HD
ATOM     27  H   UNL     1       1.751   3.526  11.211  0.00  0.00    +0.146 HD
ENDBRANCH  18  19
ENDBRANCH  17  18
ENDBRANCH   5  17
TORSDOF 4
