REMARK  Name = ZINC02105769
REMARK  8 active torsions:
REMARK  status: ('A' for Active; 'I' for Inactive)
REMARK    1  A    between atoms: C_1  and  C_2
REMARK    2  A    between atoms: C_3  and  C_29
REMARK    3  A    between atoms: C_16  and  C_18
REMARK    4  A    between atoms: C_16  and  C_25
REMARK    5  A    between atoms: C_16  and  N_65
REMARK    6  A    between atoms: C_18  and  C_19
REMARK    7  A    between atoms: C_25  and  O_27
REMARK    8  A    between atoms: O_27  and  C_28
REMARK                            x       y       z     vdW  Elec       q    Type
REMARK                         _______ _______ _______ _____ _____    ______ ____
ROOT
ATOM      1  C   UNL     1      -3.259   2.059   0.128  0.00  0.00    +0.087 C 
ATOM      2  C   UNL     1      -1.785   1.744   0.126  0.00  0.00    +0.114 A 
ATOM      3  C   UNL     1      -1.410   0.440   0.139  0.00  0.00    +0.067 A 
ATOM      4  C   UNL     1       0.029   0.123   0.137  0.00  0.00    +0.200 A 
ATOM      5  O   UNL     1       0.434  -1.026   0.150  0.00  0.00    -0.286 OA
ATOM      6  C   UNL     1       0.951   1.274   0.120  0.00  0.00    +0.065 A 
ATOM      7  C   UNL     1       2.334   1.089   0.118  0.00  0.00    +0.019 A 
ATOM      8  C   UNL     1       3.162   2.174   0.097  0.00  0.00    +0.046 A 
ATOM      9  C   UNL     1       2.634   3.466   0.083  0.00  0.00    +0.123 A 
ATOM     10  C   UNL     1       1.265   3.663   0.089  0.00  0.00    +0.021 A 
ATOM     11  C   UNL     1       0.406   2.568   0.112  0.00  0.00    +0.144 A 
ATOM     12  O   UNL     1      -0.926   2.759   0.121  0.00  0.00    -0.459 OA
ATOM     13  C   UNL     1       0.683   5.053   0.070  0.00  0.00    -0.030 C 
ATOM     14  C   UNL     1       2.947   5.792  -0.313  0.00  0.00    +0.159 C 
ATOM     15  O   UNL     1       3.487   4.524   0.065  0.00  0.00    -0.509 OA
ATOM     16  N   UNL     1       1.722   6.018   0.480  0.00  0.00    +0.414 N 
ATOM     17  H   UNL     1       1.935   5.879   1.474  0.00  0.00    -0.075 HD
ENDROOT
BRANCH   3  18
ATOM     18  C   UNL     1      -2.425  -0.641   0.155  0.00  0.00    -0.007 A 
ATOM     19  C   UNL     1      -3.283  -0.810  -0.930  0.00  0.00    +0.012 A 
ATOM     20  C   UNL     1      -4.224  -1.819  -0.915  0.00  0.00    +0.050 A 
ATOM     21  C   UNL     1      -4.328  -2.661   0.183  0.00  0.00    +0.162 A 
ATOM     22  C   UNL     1      -3.477  -2.496   1.270  0.00  0.00    +0.163 A 
ATOM     23  C   UNL     1      -2.528  -1.487   1.258  0.00  0.00    +0.058 A 
ATOM     24  O   UNL     1      -3.559  -3.319   2.351  0.00  0.00    -0.485 OA
ATOM     25  C   UNL     1      -4.763  -4.080   2.491  0.00  0.00    +0.270 C 
ATOM     26  C   UNL     1      -5.098  -4.703   1.129  0.00  0.00    +0.270 C 
ATOM     27  O   UNL     1      -5.271  -3.643   0.182  0.00  0.00    -0.485 OA
ENDBRANCH   3  18
BRANCH  16  28
ATOM     28  C   UNL     1       1.235   7.402   0.280  0.00  0.00    +0.052 C 
BRANCH  28  29
ATOM     29  C   UNL     1       1.090   7.697  -1.191  0.00  0.00    +0.294 C 
ATOM     30  O   UNL     1       0.930   6.792  -1.975  0.00  0.00    -0.253 OA
BRANCH  29  31
ATOM     31  O   UNL     1       1.138   8.964  -1.629  0.00  0.00    -0.469 OA
ATOM     32  C   UNL     1       0.991   9.174  -3.058  0.00  0.00    +0.280 C 
ENDBRANCH  29  31
ENDBRANCH  28  29
BRANCH  28  33
ATOM     33  C   UNL     1      -0.122   7.562   0.968  0.00  0.00    +0.031 C 
BRANCH  33  34
ATOM     34  C   UNL     1       0.051   7.420   2.459  0.00  0.00    -0.048 A 
ATOM     35  C   UNL     1      -0.188   6.203   3.069  0.00  0.00    +0.003 A 
ATOM     36  C   UNL     1      -0.025   6.071   4.436  0.00  0.00    +0.000 A 
ATOM     37  C   UNL     1       0.367   7.160   5.193  0.00  0.00    +0.000 A 
ATOM     38  C   UNL     1       0.600   8.378   4.583  0.00  0.00    +0.000 A 
ATOM     39  C   UNL     1       0.442   8.508   3.216  0.00  0.00    +0.003 A 
ENDBRANCH  33  34
ENDBRANCH  28  33
ENDBRANCH  16  28
TORSDOF 6
