REMARK  Name = ZINC36242402
REMARK  11 active torsions:
REMARK  status: ('A' for Active; 'I' for Inactive)
REMARK    1  A    between atoms: C_1  and  C_2
REMARK    2  A    between atoms: C_2  and  C_3
REMARK    3  A    between atoms: C_2  and  C_4
REMARK    4  A    between atoms: C_2  and  O_27
REMARK    5  A    between atoms: C_8  and  C_19
REMARK    6  A    between atoms: C_10  and  C_13
REMARK    7  A    between atoms: C_19  and  C_20
REMARK    8  A    between atoms: C_21  and  C_22
REMARK    9  A    between atoms: C_22  and  C_23
REMARK   10  A    between atoms: C_23  and  C_24
REMARK   11  A    between atoms: O_27  and  C_28
REMARK                            x       y       z     vdW  Elec       q    Type
REMARK                         _______ _______ _______ _____ _____    ______ ____
ROOT
ATOM      1  C   UNL     1      -1.468  -0.660   0.263  0.00  0.00    +0.294 C 
ATOM      2  O   UNL     1      -2.097  -0.125  -0.905  0.00  0.00    -0.347 OA
ATOM      3  C   UNL     1      -3.290  -0.817  -1.286  0.00  0.00    +0.169 C 
ATOM      4  C   UNL     1      -2.954  -2.293  -1.527  0.00  0.00    +0.052 C 
ATOM      5  C   UNL     1      -2.265  -2.854  -0.279  0.00  0.00    +0.158 C 
ATOM      6  O   UNL     1      -1.137  -2.033   0.038  0.00  0.00    -0.339 OA
ENDROOT
BRANCH   5   7
ATOM      7  C   UNL     1      -3.234  -2.853   0.876  0.00  0.00    -0.000 A 
ATOM      8  C   UNL     1      -3.790  -1.664   1.323  0.00  0.00    +0.009 A 
ATOM      9  C   UNL     1      -4.676  -1.710   2.388  0.00  0.00    +0.020 A 
ATOM     10  C   UNL     1      -4.974  -2.931   2.964  0.00  0.00    +0.111 A 
ATOM     11  N   UNL     1      -4.426  -4.042   2.512  0.00  0.00    -0.263 NA
ATOM     12  C   UNL     1      -3.583  -4.036   1.497  0.00  0.00    +0.116 A 
ENDBRANCH   5   7
BRANCH   1  14
ATOM     13  C   UNL     1      -0.547   1.599   0.803  0.00  0.00    +0.061 C 
ATOM     14  C   UNL     1      -0.193   0.130   0.563  0.00  0.00    +0.155 C 
ATOM     15  C   UNL     1       0.480  -0.443   1.812  0.00  0.00    +0.061 C 
BRANCH  14  16
ATOM     16  O   UNL     1       0.701   0.030  -0.547  0.00  0.00    -0.480 OA
BRANCH  16  17
ATOM     17  C   UNL     1       1.879   0.703  -0.453  0.00  0.00    +0.135 A 
ATOM     18  C   UNL     1       2.191   1.399   0.706  0.00  0.00    +0.047 A 
ATOM     19  C   UNL     1       3.388   2.082   0.799  0.00  0.00    +0.004 A 
ATOM     20  C   UNL     1       4.276   2.072  -0.261  0.00  0.00    +0.001 A 
ATOM     21  C   UNL     1       3.967   1.380  -1.418  0.00  0.00    +0.019 A 
ATOM     22  C   UNL     1       2.773   0.690  -1.514  0.00  0.00    +0.059 A 
ATOM     23 BR   UNL     1       2.356  -0.263  -3.093  0.00  0.00    -0.047 Br
ENDBRANCH  16  17
ENDBRANCH  14  16
ENDBRANCH   1  14
BRANCH   4  24
ATOM     24  C   UNL     1      -4.241  -3.073  -1.801  0.00  0.00    +0.035 C 
BRANCH  24  25
ATOM     25  C   UNL     1      -4.857  -2.590  -3.089  0.00  0.00    -0.031 C 
ATOM     26  C   UNL     1      -5.133  -3.444  -4.044  0.00  0.00    -0.030 C 
BRANCH  26  27
ATOM     27  C   UNL     1      -5.016  -4.924  -3.788  0.00  0.00    +0.038 C 
BRANCH  27  28
ATOM     28  C   UNL     1      -6.338  -5.609  -4.141  0.00  0.00    +0.129 C 
BRANCH  28  29
ATOM     29  C   UNL     1      -6.221  -7.089  -3.885  0.00  0.00    +0.356 C 
ATOM     30  O   UNL     1      -5.177  -7.554  -3.460  0.00  0.00    -0.246 OA
ATOM     31  O   UNL     1      -7.170  -7.822  -4.104  0.00  0.00    -0.246 OA
ENDBRANCH  28  29
ENDBRANCH  27  28
ENDBRANCH  26  27
ENDBRANCH  24  25
ENDBRANCH   4  24
TORSDOF 9
