REMARK  Name = ZINC35543972
REMARK  10 active torsions:
REMARK  status: ('A' for Active; 'I' for Inactive)
REMARK    1  A    between atoms: C_1  and  C_2
REMARK    2  A    between atoms: C_2  and  C_4
REMARK    3  A    between atoms: C_2  and  N_10
REMARK    4  A    between atoms: C_11  and  C_13
REMARK    5  A    between atoms: C_18  and  N_36
REMARK    6  A    between atoms: N_26  and  C_29
REMARK    7  A    between atoms: C_29  and  C_30
REMARK    8  A    between atoms: N_32  and  C_33
REMARK    9  A    between atoms: C_33  and  C_34
REMARK   10  A    between atoms: C_33  and  C_35
REMARK                            x       y       z     vdW  Elec       q    Type
REMARK                         _______ _______ _______ _____ _____    ______ ____
ROOT
ATOM      1  C   UNL     1      -3.465  -1.164  -1.134  0.00  0.00    +0.098 C 
ATOM      2  C   UNL     1      -4.343  -0.238  -0.294  0.00  0.00    +0.051 C 
ATOM      3  C   UNL     1      -4.434   1.109  -0.963  0.00  0.00    -0.023 A 
ATOM      4  C   UNL     1      -4.693   2.230  -0.193  0.00  0.00    +0.038 A 
ATOM      5  C   UNL     1      -4.777   3.475  -0.787  0.00  0.00    +0.127 A 
ATOM      6  C   UNL     1      -4.603   3.606  -2.153  0.00  0.00    +0.034 A 
ATOM      7  C   UNL     1      -4.345   2.491  -2.925  0.00  0.00    +0.025 A 
ATOM      8  C   UNL     1      -4.262   1.236  -2.330  0.00  0.00    +0.033 A 
ATOM      9  N   UNL     1      -4.006   0.121  -3.143  0.00  0.00    -0.329 N 
ATOM     10  C   UNL     1      -4.001  -1.216  -2.569  0.00  0.00    +0.069 C 
ATOM     11  C   UNL     1      -3.178  -2.214  -3.367  0.00  0.00    -0.055 C 
ATOM     12  N   UNL     1      -3.314  -2.009  -4.808  0.00  0.00    +0.388 N 
ATOM     13  C   UNL     1      -2.817  -0.667  -5.146  0.00  0.00    -0.059 C 
ATOM     14  C   UNL     1      -3.784   0.365  -4.571  0.00  0.00    +0.087 C 
ATOM     15  H   UNL     1      -4.286  -2.086  -5.070  0.00  0.00    -0.081 HD
ENDROOT
BRANCH   1  17
ATOM     16  N   UNL     1      -1.372  -0.511   0.012  0.00  0.00    -0.308 N 
ATOM     17  C   UNL     1      -2.051  -0.643  -1.145  0.00  0.00    +0.219 C 
ATOM     18  O   UNL     1      -1.524  -0.341  -2.194  0.00  0.00    -0.275 OA
ATOM     19  H   UNL     1      -1.794  -0.752   0.852  0.00  0.00    +0.149 HD
BRANCH  16  21
ATOM     20  C   UNL     1      -0.019   1.526   0.010  0.00  0.00    +0.033 C 
ATOM     21  C   UNL     1       0.002  -0.004   0.002  0.00  0.00    +0.100 C 
BRANCH  21  22
ATOM     22  C   UNL     1       0.731  -0.503   1.223  0.00  0.00    -0.027 A 
ATOM     23  C   UNL     1       0.081  -0.558   2.442  0.00  0.00    +0.005 A 
ATOM     24  C   UNL     1       0.749  -1.016   3.562  0.00  0.00    +0.000 A 
ATOM     25  C   UNL     1       2.068  -1.420   3.463  0.00  0.00    +0.000 A 
ATOM     26  C   UNL     1       2.718  -1.365   2.244  0.00  0.00    +0.000 A 
ATOM     27  C   UNL     1       2.048  -0.911   1.123  0.00  0.00    +0.005 A 
ENDBRANCH  21  22
ENDBRANCH  16  21
ENDBRANCH   1  17
BRANCH   5  28
ATOM     28  N   UNL     1      -5.055   4.670   0.040  0.00  0.00    +0.056 N 
ATOM     29  O   UNL     1      -5.209   4.557   1.234  0.00  0.00    -0.126 OA
ATOM     30  O   UNL     1      -5.130   5.760  -0.478  0.00  0.00    -0.126 OA
ENDBRANCH   5  28
BRANCH  12  31
ATOM     31  C   UNL     1      -2.527  -3.020  -5.526  0.00  0.00    +0.019 C 
BRANCH  31  32
ATOM     32  C   UNL     1      -2.766  -2.884  -7.007  0.00  0.00    +0.197 C 
ATOM     33  O   UNL     1      -3.517  -2.028  -7.424  0.00  0.00    -0.278 OA
ATOM     34  N   UNL     1      -2.144  -3.713  -7.869  0.00  0.00    -0.315 N 
ATOM     35  H   UNL     1      -1.543  -4.397  -7.535  0.00  0.00    +0.149 HD
BRANCH  34  36
ATOM     36  C   UNL     1      -2.376  -3.580  -9.309  0.00  0.00    +0.067 C 
ATOM     37  C   UNL     1      -1.436  -2.518  -9.882  0.00  0.00    +0.027 C 
ATOM     38  C   UNL     1      -2.107  -4.922  -9.995  0.00  0.00    +0.027 C 
ENDBRANCH  34  36
ENDBRANCH  31  32
ENDBRANCH  12  31
TORSDOF 7
