REMARK  Name = ZINC09461541
REMARK  8 active torsions:
REMARK  status: ('A' for Active; 'I' for Inactive)
REMARK    1  A    between atoms: C_1  and  O_2
REMARK    2  A    between atoms: O_2  and  C_3
REMARK    3  A    between atoms: C_6  and  C_9
REMARK    4  A    between atoms: C_20  and  C_22
REMARK    5  A    between atoms: C_25  and  O_28
REMARK    6  A    between atoms: O_28  and  C_29
REMARK    7  A    between atoms: C_35  and  S_37
REMARK    8  A    between atoms: S_37  and  C_38
REMARK                            x       y       z     vdW  Elec       q    Type
REMARK                         _______ _______ _______ _____ _____    ______ ____
ROOT
ATOM      1  C   UNL     1      -4.981  -2.629   0.035  0.00  0.00    +0.159 C 
ATOM      2  C   UNL     1      -5.308  -3.003   1.464  0.00  0.00    +0.025 C 
ATOM      3  C   UNL     1      -5.512  -4.306   1.748  0.00  0.00    +0.058 C 
ATOM      4  C   UNL     1      -5.822  -4.658   3.157  0.00  0.00    +0.042 A 
ATOM      5  C   UNL     1      -6.356  -5.895   3.494  0.00  0.00    +0.033 A 
ATOM      6  C   UNL     1      -6.632  -6.181   4.819  0.00  0.00    +0.042 A 
ATOM      7  C   UNL     1      -6.378  -5.239   5.803  0.00  0.00    +0.023 A 
ATOM      8  C   UNL     1      -5.845  -4.006   5.474  0.00  0.00    +0.048 A 
ATOM      9  C   UNL     1      -5.563  -3.707   4.152  0.00  0.00    +0.131 A 
ATOM     10  O   UNL     1      -5.034  -2.507   3.803  0.00  0.00    -0.479 OA
ATOM     11  C   UNL     1      -5.413  -1.960   2.538  0.00  0.00    +0.234 C 
ATOM     12 CL   UNL     1      -7.300  -7.724   5.250  0.00  0.00    -0.084 Cl
ATOM     13  N   UNL     1      -5.438  -5.261   0.790  0.00  0.00    -0.326 N 
ATOM     14  C   UNL     1      -5.159  -5.024  -0.474  0.00  0.00    +0.216 C 
ATOM     15  N   UNL     1      -4.919  -3.743  -0.920  0.00  0.00    -0.209 N 
ATOM     16  N   UNL     1      -4.654  -3.835  -2.289  0.00  0.00    -0.239 N 
ATOM     17  C   UNL     1      -4.747  -5.164  -2.610  0.00  0.00    +0.174 C 
ATOM     18  N   UNL     1      -5.047  -5.845  -1.534  0.00  0.00    -0.192 NA
ATOM     19  H   UNL     1      -5.599  -6.181   1.054  0.00  0.00    +0.169 HD
ATOM     20  H   UNL     1      -4.445  -3.104  -2.891  0.00  0.00    +0.172 HD
ENDROOT
BRANCH   1  24
ATOM     21  C   UNL     1      -1.200  -0.637   0.010  0.00  0.00    +0.120 A 
ATOM     22  C   UNL     1      -2.375   0.101   0.019  0.00  0.00    +0.046 A 
ATOM     23  C   UNL     1      -3.596  -0.545   0.027  0.00  0.00    +0.009 A 
ATOM     24  C   UNL     1      -3.648  -1.927   0.026  0.00  0.00    -0.021 A 
ATOM     25  C   UNL     1      -2.479  -2.665   0.017  0.00  0.00    +0.009 A 
ATOM     26  C   UNL     1      -1.255  -2.024   0.003  0.00  0.00    +0.046 A 
BRANCH  21  28
ATOM     27  C   UNL     1      -0.017   1.425   0.010  0.00  0.00    +0.277 C 
ATOM     28  O   UNL     1       0.002  -0.004   0.002  0.00  0.00    -0.495 OA
ENDBRANCH  21  28
ENDBRANCH   1  24
BRANCH  11  29
ATOM     29  C   UNL     1      -6.834  -1.465   2.614  0.00  0.00    -0.003 A 
ATOM     30  C   UNL     1      -7.763  -2.149   3.376  0.00  0.00    +0.011 A 
ATOM     31  C   UNL     1      -9.066  -1.697   3.448  0.00  0.00    +0.046 A 
ATOM     32  C   UNL     1      -9.443  -0.555   2.754  0.00  0.00    +0.120 A 
ATOM     33  C   UNL     1      -8.508   0.129   1.991  0.00  0.00    +0.046 A 
ATOM     34  C   UNL     1      -7.205  -0.324   1.927  0.00  0.00    +0.011 A 
BRANCH  32  35
ATOM     35  O   UNL     1     -10.725  -0.109   2.823  0.00  0.00    -0.495 OA
ATOM     36  C   UNL     1     -11.040   1.072   2.083  0.00  0.00    +0.277 C 
ENDBRANCH  32  35
ENDBRANCH  11  29
BRANCH  17  37
ATOM     37  S   UNL     1      -4.506  -5.846  -4.217  0.00  0.00    -0.092 S 
ATOM     38  C   UNL     1      -4.764  -7.626  -3.981  0.00  0.00    +0.093 C 
ENDBRANCH  17  37
TORSDOF 5
