REMARK  Name = ZINC20752329
REMARK  7 active torsions:
REMARK  status: ('A' for Active; 'I' for Inactive)
REMARK    1  A    between atoms: C_1  and  C_2
REMARK    2  A    between atoms: C_2  and  C_3
REMARK    3  A    between atoms: C_3  and  C_5
REMARK    4  A    between atoms: C_3  and  N_6
REMARK    5  A    between atoms: C_7  and  C_9
REMARK    6  A    between atoms: C_22  and  C_25
REMARK    7  A    between atoms: C_34  and  O_35
REMARK                            x       y       z     vdW  Elec       q    Type
REMARK                         _______ _______ _______ _____ _____    ______ ____
ROOT
ATOM      1  C   UNL     1       7.516  -0.035  -0.751  0.00  0.00    +0.037 A 
ATOM      2  C   UNL     1       6.941  -0.325  -1.992  0.00  0.00    +0.015 A 
ATOM      3  C   UNL     1       5.592  -0.584  -2.071  0.00  0.00    +0.024 A 
ATOM      4  C   UNL     1       4.804  -0.555  -0.923  0.00  0.00    +0.031 A 
ATOM      5  C   UNL     1       5.366  -0.269   0.316  0.00  0.00    -0.019 A 
ATOM      6  C   UNL     1       6.723  -0.010   0.396  0.00  0.00    +0.019 A 
ATOM      7  C   UNL     1       4.555  -0.231   1.573  0.00  0.00    +0.049 C 
ATOM      8  C   UNL     1       4.321   1.188   2.033  0.00  0.00    -0.023 C 
ATOM      9  C   UNL     1       3.122   1.306   2.550  0.00  0.00    -0.030 C 
ATOM     10  C   UNL     1       2.393  -0.024   2.509  0.00  0.00    +0.033 C 
ATOM     11  C   UNL     1       3.139  -0.810   1.391  0.00  0.00    +0.029 C 
ATOM     12  C   UNL     1       2.557  -0.358   0.049  0.00  0.00    +0.109 C 
ATOM     13  N   UNL     1       3.440  -0.817  -1.029  0.00  0.00    -0.336 N 
ATOM     14  H   UNL     1       3.021  -1.352  -1.893  0.00  0.00    +0.147 HD
ENDROOT
BRANCH  12  15
ATOM     15  C   UNL     1       2.464   1.145   0.020  0.00  0.00    +0.022 A 
ATOM     16  C   UNL     1       1.335   1.793   0.547  0.00  0.00    -0.009 A 
ATOM     17  C   UNL     1       0.273   1.064   1.110  0.00  0.00    +0.009 A 
ATOM     18  C   UNL     1      -0.809   1.724   1.607  0.00  0.00    +0.001 A 
ATOM     19  C   UNL     1      -0.876   3.116   1.575  0.00  0.00    +0.001 A 
ATOM     20  C   UNL     1       0.133   3.855   1.038  0.00  0.00    +0.008 A 
ATOM     21  C   UNL     1       1.263   3.208   0.510  0.00  0.00    -0.017 A 
ATOM     22  C   UNL     1       2.324   3.939  -0.053  0.00  0.00    +0.012 A 
ATOM     23  C   UNL     1       3.404   3.282  -0.556  0.00  0.00    +0.046 A 
ATOM     24  C   UNL     1       3.476   1.886  -0.520  0.00  0.00    +0.122 A 
BRANCH  24  25
ATOM     25  O   UNL     1       4.568   1.258  -1.030  0.00  0.00    -0.506 OA
ATOM     26  H   UNL     1       5.388   1.848  -1.467  0.00  0.00    +0.292 HD
ENDBRANCH  24  25
ENDBRANCH  12  15
BRANCH   1  28
ATOM     27  N   UNL     1       9.727   0.220  -1.763  0.00  0.00    -0.309 N 
ATOM     28  C   UNL     1       8.961   0.244  -0.655  0.00  0.00    +0.244 C 
ATOM     29  O   UNL     1       9.461   0.497   0.424  0.00  0.00    -0.270 OA
ATOM     30  H   UNL     1       9.275  -0.009  -2.740  0.00  0.00    +0.149 HD
BRANCH  27  31
ATOM     31  C   UNL     1      11.163   0.497  -1.668  0.00  0.00    +0.070 C 
ATOM     32  C   UNL     1      11.908  -0.788  -1.302  0.00  0.00    +0.028 C 
BRANCH  31  34
ATOM     33  C   UNL     1      11.019   2.365  -3.321  0.00  0.00    +0.005 C 
ATOM     34  C   UNL     1      11.673   1.016  -3.014  0.00  0.00    +0.018 C 
ENDBRANCH  31  34
ENDBRANCH  27  31
ENDBRANCH   1  28
TORSDOF 5
