REMARK  Name = ZINC50312538
REMARK  6 active torsions:
REMARK  status: ('A' for Active; 'I' for Inactive)
REMARK    1  A    between atoms: C_1  and  C_2
REMARK    2  A    between atoms: C_2  and  C_4
REMARK    3  A    between atoms: C_2  and  N_10
REMARK    4  A    between atoms: C_11  and  C_13
REMARK    5  A    between atoms: C_16  and  C_18
REMARK    6  A    between atoms: C_22  and  N_24
REMARK                            x       y       z     vdW  Elec       q    Type
REMARK                         _______ _______ _______ _____ _____    ______ ____
ROOT
ATOM      1  C   UNL     1      -3.433  -1.153  -1.134  0.00  0.00    +0.133 A 
ATOM      2  C   UNL     1      -4.129  -1.295  -2.305  0.00  0.00    +0.080 A 
ATOM      3  S   UNL     1      -5.612  -1.892  -1.776  0.00  0.00    -0.075 S 
ATOM      4  C   UNL     1      -5.260  -1.933  -0.028  0.00  0.00    +0.109 A 
ATOM      5  N   UNL     1      -4.018  -1.485   0.008  0.00  0.00    -0.234 NA
ENDROOT
BRANCH   4   6
ATOM      6  C   UNL     1      -6.129  -2.362   1.089  0.00  0.00    +0.009 A 
ATOM      7  C   UNL     1      -5.660  -2.311   2.402  0.00  0.00    +0.011 A 
ATOM      8  C   UNL     1      -6.476  -2.712   3.440  0.00  0.00    +0.003 A 
ATOM      9  C   UNL     1      -7.757  -3.166   3.180  0.00  0.00    +0.033 A 
ATOM     10  C   UNL     1      -8.228  -3.219   1.881  0.00  0.00    +0.127 A 
ATOM     11  C   UNL     1      -7.424  -2.815   0.835  0.00  0.00    +0.043 A 
BRANCH  10  12
ATOM     12  N   UNL     1      -9.600  -3.706   1.612  0.00  0.00    +0.056 N 
ATOM     13  O   UNL     1     -10.307  -4.057   2.528  0.00  0.00    -0.126 OA
ATOM     14  O   UNL     1     -10.013  -3.754   0.477  0.00  0.00    -0.126 OA
ENDBRANCH  10  12
ENDBRANCH   4   6
BRANCH   1  16
ATOM     15  N   UNL     1      -1.372  -0.511   0.012  0.00  0.00    -0.305 N 
ATOM     16  C   UNL     1      -2.051  -0.643  -1.145  0.00  0.00    +0.263 C 
ATOM     17  O   UNL     1      -1.522  -0.341  -2.197  0.00  0.00    -0.269 OA
ATOM     18  H   UNL     1      -1.794  -0.752   0.852  0.00  0.00    +0.149 HD
BRANCH  15  20
ATOM     19  C   UNL     1      -0.019   1.526   0.010  0.00  0.00    +0.030 C 
ATOM     20  C   UNL     1       0.002  -0.004   0.002  0.00  0.00    +0.099 C 
BRANCH  20  21
ATOM     21  C   UNL     1       0.742  -0.511   1.242  0.00  0.00    +0.138 C 
ATOM     22  C   UNL     1       0.764  -2.055   1.244  0.00  0.00    +0.035 C 
ATOM     23  C   UNL     1       0.543  -2.385   2.745  0.00  0.00    +0.031 C 
ATOM     24  C   UNL     1      -0.399  -1.230   3.166  0.00  0.00    +0.160 C 
ATOM     25  O   UNL     1       0.057  -0.084   2.425  0.00  0.00    -0.375 OA
ENDBRANCH  20  21
ENDBRANCH  15  20
ENDBRANCH   1  16
TORSDOF 5
