REMARK  Name = ZINC02964958
REMARK  6 active torsions:
REMARK  status: ('A' for Active; 'I' for Inactive)
REMARK    1  A    between atoms: C_1  and  C_2
REMARK    2  A    between atoms: C_7  and  C_8
REMARK    3  A    between atoms: C_8  and  N_9
REMARK    4  A    between atoms: C_12  and  C_25
REMARK    5  A    between atoms: N_27  and  C_28
REMARK    6  A    between atoms: C_34  and  C_36
REMARK                            x       y       z     vdW  Elec       q    Type
REMARK                         _______ _______ _______ _____ _____    ______ ____
ROOT
ATOM      1  N   UNL     1      -0.741   6.141   0.741  0.00  0.00    -0.262 N 
ATOM      2  C   UNL     1      -1.701   5.885   1.710  0.00  0.00    +0.051 A 
ATOM      3  C   UNL     1      -1.660   6.613   2.892  0.00  0.00    +0.037 A 
ATOM      4  C   UNL     1      -2.611   6.393   3.889  0.00  0.00    +0.039 A 
ATOM      5  C   UNL     1      -3.612   5.435   3.700  0.00  0.00    +0.014 A 
ATOM      6  C   UNL     1      -3.651   4.713   2.529  0.00  0.00    +0.017 A 
ATOM      7  C   UNL     1      -2.703   4.931   1.535  0.00  0.00    +0.034 A 
ATOM      8  S   UNL     1      -2.780   3.989   0.048  0.00  0.00    -0.087 S 
ATOM      9  C   UNL     1      -1.239   3.136   0.014  0.00  0.00    +0.025 A 
ATOM     10  C   UNL     1      -1.217   1.748  -0.004  0.00  0.00    +0.016 A 
ATOM     11  C   UNL     1      -0.011   1.075  -0.031  0.00  0.00    +0.001 A 
ATOM     12  C   UNL     1       1.180   1.784  -0.049  0.00  0.00    +0.001 A 
ATOM     13  C   UNL     1       1.174   3.160  -0.035  0.00  0.00    +0.014 A 
ATOM     14  C   UNL     1      -0.040   3.860  -0.001  0.00  0.00    +0.051 A 
ATOM     15  C   UNL     1      -0.024   5.321   0.019  0.00  0.00    +0.252 C 
ATOM     16  O   UNL     1       0.766   5.847  -0.741  0.00  0.00    -0.270 OA
ENDROOT
BRANCH   4  17
ATOM     17  C   UNL     1      -2.562   7.171   5.141  0.00  0.00    +0.244 C 
ATOM     18  O   UNL     1      -1.691   8.004   5.305  0.00  0.00    -0.270 OA
ATOM     19  N   UNL     1      -3.481   6.958   6.104  0.00  0.00    -0.308 N 
ATOM     20  H   UNL     1      -4.175   6.294   5.973  0.00  0.00    +0.149 HD
BRANCH  19  21
ATOM     21  C   UNL     1      -3.431   7.731   7.347  0.00  0.00    +0.076 C 
ATOM     22  C   UNL     1      -2.465   7.061   8.326  0.00  0.00    +0.022 C 
ATOM     23  C   UNL     1      -2.949   5.640   8.627  0.00  0.00    +0.002 C 
ATOM     24  C   UNL     1      -4.346   5.698   9.248  0.00  0.00    +0.000 C 
ATOM     25  C   UNL     1      -5.312   6.369   8.269  0.00  0.00    +0.005 C 
ATOM     26  C   UNL     1      -4.828   7.789   7.968  0.00  0.00    +0.006 C 
ATOM     27  C   UNL     1      -5.794   8.460   6.989  0.00  0.00    +0.009 C 
ENDBRANCH  19  21
ENDBRANCH   4  17
BRANCH   1  28
ATOM     28  C   UNL     1      -0.490   7.562   0.487  0.00  0.00    +0.149 C 
BRANCH  28  35
ATOM     29  C   UNL     1      -0.171  10.238  -0.554  0.00  0.00    +0.044 C 
ATOM     30  C   UNL     1      -1.161   9.295  -1.189  0.00  0.00    -0.046 A 
ATOM     31  C   UNL     1      -1.916   9.711  -2.269  0.00  0.00    +0.003 A 
ATOM     32  C   UNL     1      -2.823   8.846  -2.852  0.00  0.00    +0.000 A 
ATOM     33  C   UNL     1      -2.975   7.565  -2.354  0.00  0.00    +0.000 A 
ATOM     34  C   UNL     1      -2.217   7.149  -1.276  0.00  0.00    +0.005 A 
ATOM     35  C   UNL     1      -1.313   8.015  -0.691  0.00  0.00    -0.027 A 
ENDBRANCH  28  35
ENDBRANCH   1  28
TORSDOF 4
