REMARK  Name = ZINC67089852
REMARK  3 active torsions:
REMARK  status: ('A' for Active; 'I' for Inactive)
REMARK    1  A    between atoms: C_6  and  C_7
REMARK    2  A    between atoms: C_7  and  C_10
REMARK    3  A    between atoms: C_10  and  N_11
REMARK                            x       y       z     vdW  Elec       q    Type
REMARK                         _______ _______ _______ _____ _____    ______ ____
ROOT
ATOM      1  N   UNL     1      -2.229   1.400   0.620  0.00  0.00    -0.298 N 
ATOM      2  C   UNL     1      -3.006   2.255   1.314  0.00  0.00    +0.302 C 
ATOM      3  O   UNL     1      -3.878   1.826   2.046  0.00  0.00    -0.253 OA
ATOM      4  N   UNL     1      -2.818   3.584   1.198  0.00  0.00    -0.285 N 
ATOM      5  C   UNL     1      -1.851   4.121   0.230  0.00  0.00    +0.114 C 
ATOM      6  C   UNL     1      -0.880   5.049   0.967  0.00  0.00    +0.084 C 
ATOM      7  C   UNL     1      -1.673   6.114   1.726  0.00  0.00    +0.173 C 
ATOM      8  C   UNL     1      -2.587   5.448   2.757  0.00  0.00    +0.084 C 
ATOM      9  C   UNL     1      -3.579   4.524   2.033  0.00  0.00    +0.114 C 
ATOM     10  O   UNL     1      -0.768   7.005   2.390  0.00  0.00    -0.346 OA
ATOM     11  C   UNL     1      -1.017   8.329   1.878  0.00  0.00    +0.191 C 
ATOM     12  C   UNL     1      -2.456   8.222   1.314  0.00  0.00    +0.191 C 
ATOM     13  O   UNL     1      -2.470   6.869   0.798  0.00  0.00    -0.346 OA
ATOM     14  H   UNL     1      -1.586   1.742  -0.021  0.00  0.00    +0.150 HD
ENDROOT
BRANCH   1  15
ATOM     15  C   UNL     1      -2.356  -0.043   0.833  0.00  0.00    +0.117 C 
BRANCH  15  16
ATOM     16  C   UNL     1      -1.285  -0.774   0.020  0.00  0.00    +0.011 C 
ATOM     17  C   UNL     1      -0.913  -2.194   0.455  0.00  0.00    +0.014 C 
ATOM     18  C   UNL     1       0.060  -1.039   0.700  0.00  0.00    +0.014 C 
BRANCH  16  24
ATOM     19  C   UNL     1      -2.461  -0.346  -2.147  0.00  0.00    +0.005 A 
ATOM     20  C   UNL     1      -2.449  -0.069  -3.501  0.00  0.00    +0.020 A 
ATOM     21  C   UNL     1      -1.244   0.081  -4.165  0.00  0.00    +0.041 A 
ATOM     22  C   UNL     1      -0.053  -0.046  -3.473  0.00  0.00    +0.020 A 
ATOM     23  C   UNL     1      -0.067  -0.323  -2.119  0.00  0.00    +0.005 A 
ATOM     24  C   UNL     1      -1.270  -0.473  -1.456  0.00  0.00    -0.040 A 
ATOM     25 CL   UNL     1      -1.228   0.428  -5.866  0.00  0.00    -0.084 Cl
ENDBRANCH  16  24
ENDBRANCH  15  16
ENDBRANCH   1  15
TORSDOF 3
