REMARK  Name = ZINC36065838
REMARK  11 active torsions:
REMARK  status: ('A' for Active; 'I' for Inactive)
REMARK    1  A    between atoms: C_1  and  C_2
REMARK    2  A    between atoms: C_2  and  C_3
REMARK    3  A    between atoms: C_3  and  C_5
REMARK    4  A    between atoms: C_3  and  N_6
REMARK    5  A    between atoms: C_7  and  C_9
REMARK    6  A    between atoms: C_12  and  C_14
REMARK    7  A    between atoms: C_14  and  N_15
REMARK    8  A    between atoms: N_15  and  C_16
REMARK    9  A    between atoms: N_15  and  C_26
REMARK   10  A    between atoms: C_16  and  C_17
REMARK   11  A    between atoms: C_26  and  C_27
REMARK                            x       y       z     vdW  Elec       q    Type
REMARK                         _______ _______ _______ _____ _____    ______ ____
ROOT
ATOM      1  N   UNL     1      -4.123  -0.302   7.611  0.00  0.00    +0.391 N 
ATOM      2  H   UNL     1      -3.761  -0.842   8.382  0.00  0.00    -0.080 HD
ENDROOT
BRANCH   1   3
ATOM      3  C   UNL     1      -3.202   0.802   7.310  0.00  0.00    +0.020 C 
BRANCH   3   7
ATOM      4  C   UNL     1      -2.082   2.335  10.395  0.00  0.00    +0.163 A 
ATOM      5  C   UNL     1      -3.186   3.087  10.135  0.00  0.00    +0.230 A 
ATOM      6  O   UNL     1      -3.717   2.621   8.993  0.00  0.00    -0.449 OA
ATOM      7  C   UNL     1      -2.956   1.606   8.561  0.00  0.00    +0.179 A 
ATOM      8  N   UNL     1      -1.970   1.427   9.388  0.00  0.00    -0.210 NA
BRANCH   4  10
ATOM      9  N   UNL     1      -0.169   1.603  11.729  0.00  0.00    -0.307 N 
ATOM     10  C   UNL     1      -1.174   2.482  11.547  0.00  0.00    +0.266 C 
ATOM     11  O   UNL     1      -1.332   3.396  12.333  0.00  0.00    -0.268 OA
ATOM     12  H   UNL     1       0.004   0.919  11.063  0.00  0.00    +0.149 HD
BRANCH   9  13
ATOM     13  C   UNL     1       0.662   1.679  12.933  0.00  0.00    +0.070 C 
ATOM     14  C   UNL     1       0.015   0.861  14.053  0.00  0.00    +0.028 C 
BRANCH  13  16
ATOM     15  C   UNL     1       2.749   2.010  11.599  0.00  0.00    +0.005 C 
ATOM     16  C   UNL     1       2.053   1.118  12.629  0.00  0.00    +0.018 C 
ENDBRANCH  13  16
ENDBRANCH   9  13
ENDBRANCH   4  10
ENDBRANCH   3   7
ENDBRANCH   1   3
BRANCH   1  17
ATOM     17  C   UNL     1      -5.440   0.242   7.970  0.00  0.00    -0.042 C 
BRANCH  17  18
ATOM     18  C   UNL     1      -6.349  -0.881   8.396  0.00  0.00    -0.060 A 
ATOM     19  C   UNL     1      -7.125  -1.534   7.458  0.00  0.00    +0.005 A 
ATOM     20  C   UNL     1      -7.960  -2.566   7.844  0.00  0.00    +0.050 A 
ATOM     21  C   UNL     1      -8.021  -2.947   9.175  0.00  0.00    +0.166 A 
ATOM     22  C   UNL     1      -7.239  -2.289  10.120  0.00  0.00    +0.166 A 
ATOM     23  C   UNL     1      -6.400  -1.260   9.725  0.00  0.00    +0.051 A 
ATOM     24  O   UNL     1      -7.476  -2.844  11.345  0.00  0.00    -0.453 OA
ATOM     25  C   UNL     1      -8.710  -3.572  11.205  0.00  0.00    +0.466 C 
ATOM     26  O   UNL     1      -8.748  -3.914   9.807  0.00  0.00    -0.453 OA
ENDBRANCH  17  18
ENDBRANCH   1  17
BRANCH   1  27
ATOM     27  C   UNL     1      -4.256  -1.165   6.429  0.00  0.00    -0.040 C 
BRANCH  27  28
ATOM     28  C   UNL     1      -2.932  -1.821   6.135  0.00  0.00    -0.046 A 
ATOM     29  C   UNL     1      -2.156  -1.370   5.083  0.00  0.00    +0.004 A 
ATOM     30  C   UNL     1      -0.941  -1.971   4.813  0.00  0.00    +0.020 A 
ATOM     31  C   UNL     1      -0.500  -3.024   5.595  0.00  0.00    +0.042 A 
ATOM     32  C   UNL     1      -1.276  -3.475   6.647  0.00  0.00    +0.040 A 
ATOM     33  C   UNL     1      -2.490  -2.870   6.920  0.00  0.00    +0.044 A 
ATOM     34 CL   UNL     1      -3.462  -3.432   8.245  0.00  0.00    -0.083 Cl
ATOM     35 CL   UNL     1       1.025  -3.779   5.254  0.00  0.00    -0.083 Cl
ENDBRANCH  27  28
ENDBRANCH   1  27
TORSDOF 9
