REMARK  Name = ZINC00804040
REMARK  7 active torsions:
REMARK  status: ('A' for Active; 'I' for Inactive)
REMARK    1  A    between atoms: C_1  and  C_2
REMARK    2  A    between atoms: C_5  and  S_8
REMARK    3  A    between atoms: S_8  and  C_9
REMARK    4  A    between atoms: C_9  and  C_10
REMARK    5  A    between atoms: C_17  and  N_29
REMARK    6  A    between atoms: C_18  and  C_27
REMARK    7  A    between atoms: C_19  and  C_21
REMARK                            x       y       z     vdW  Elec       q    Type
REMARK                         _______ _______ _______ _____ _____    ______ ____
ROOT
ATOM      1  C   UNL     1      -0.045  -6.074   1.638  0.00  0.00    +0.054 A 
ATOM      2  C   UNL     1      -0.944  -7.029   1.918  0.00  0.00    +0.046 A 
ATOM      3  C   UNL     1      -0.263  -8.264   1.996  0.00  0.00    +0.244 A 
ATOM      4  N   UNL     1       0.999  -8.042   1.770  0.00  0.00    -0.135 NA
ATOM      5  N   UNL     1       1.166  -6.668   1.535  0.00  0.00    -0.277 N 
ATOM      6  H   UNL     1       2.004  -6.222   1.336  0.00  0.00    +0.189 HD
ATOM      7  O   UNL     1      -0.911  -9.429   2.265  0.00  0.00    -0.422 OA
ATOM      8  C   UNL     1      -2.256  -9.423   2.189  0.00  0.00    +0.200 C 
ATOM      9  C   UNL     1      -3.014  -8.308   2.123  0.00  0.00    +0.094 C 
ATOM     10  C   UNL     1      -2.432  -6.917   2.132  0.00  0.00    +0.075 C 
ENDROOT
BRANCH  10  11
ATOM     11  C   UNL     1      -2.712  -6.248   3.479  0.00  0.00    +0.002 C 
ATOM     12  C   UNL     1      -2.236  -7.162   4.610  0.00  0.00    +0.004 C 
ATOM     13  C   UNL     1      -2.516  -6.493   5.958  0.00  0.00    +0.000 C 
ATOM     14  C   UNL     1      -4.018  -6.243   6.101  0.00  0.00    +0.000 C 
ATOM     15  C   UNL     1      -4.494  -5.330   4.970  0.00  0.00    +0.000 C 
ATOM     16  C   UNL     1      -4.215  -5.999   3.623  0.00  0.00    +0.004 C 
ENDBRANCH  10  11
BRANCH   8  17
ATOM     17  N   UNL     1      -2.901 -10.634   2.178  0.00  0.00    -0.328 N 
ATOM     18  H   UNL     1      -2.389 -11.457   2.224  0.00  0.00    +0.145 HD
ATOM     19  H   UNL     1      -3.869 -10.668   2.125  0.00  0.00    +0.145 HD
ENDBRANCH   8  17
BRANCH   9  20
ATOM     20  C   UNL     1      -4.436  -8.453   2.042  0.00  0.00    +0.100 C 
ATOM     21  N   UNL     1      -5.565  -8.568   1.977  0.00  0.00    -0.191 NA
ENDBRANCH   9  20
BRANCH   1  22
ATOM     22  C   UNL     1      -0.333  -4.605   1.463  0.00  0.00    +0.129 C 
BRANCH  22  23
ATOM     23  S   UNL     1      -0.563  -4.240  -0.299  0.00  0.00    -0.119 S 
BRANCH  23  28
ATOM     24  C   UNL     1      -1.675   1.692  -0.428  0.00  0.00    +0.044 C 
ATOM     25  C   UNL     1      -1.397   0.211  -0.396  0.00  0.00    -0.050 A 
ATOM     26  C   UNL     1      -1.371  -0.512  -1.575  0.00  0.00    +0.004 A 
ATOM     27  C   UNL     1      -1.117  -1.869  -1.549  0.00  0.00    +0.015 A 
ATOM     28  C   UNL     1      -0.887  -2.508  -0.337  0.00  0.00    +0.008 A 
ATOM     29  C   UNL     1      -0.913  -1.779   0.846  0.00  0.00    +0.015 A 
ATOM     30  C   UNL     1      -1.163  -0.421   0.812  0.00  0.00    +0.004 A 
ENDBRANCH  23  28
ENDBRANCH  22  23
ENDBRANCH   1  22
TORSDOF 6
