REMARK  Name = ZINC20748874
REMARK  8 active torsions:
REMARK  status: ('A' for Active; 'I' for Inactive)
REMARK    1  A    between atoms: C_1  and  C_2
REMARK    2  A    between atoms: C_2  and  O_3
REMARK    3  A    between atoms: O_3  and  C_4
REMARK    4  A    between atoms: C_9  and  C_10
REMARK    5  A    between atoms: C_21  and  S_26
REMARK    6  A    between atoms: S_26  and  N_29
REMARK    7  A    between atoms: N_29  and  C_30
REMARK    8  A    between atoms: C_30  and  C_31
REMARK                            x       y       z     vdW  Elec       q    Type
REMARK                         _______ _______ _______ _____ _____    ______ ____
ROOT
ATOM      1  C   UNL     1      -0.018   1.514   0.010  0.00  0.00    +0.108 C 
ATOM      2  C   UNL     1       0.002  -0.004   0.002  0.00  0.00    +0.029 C 
ATOM      3  C   UNL     1      -1.340  -0.724   0.192  0.00  0.00    +0.033 C 
ATOM      4  C   UNL     1      -0.898  -2.027   0.861  0.00  0.00    -0.030 C 
ATOM      5  C   UNL     1       0.247  -1.840   1.506  0.00  0.00    -0.023 C 
ATOM      6  C   UNL     1       0.649  -0.418   1.358  0.00  0.00    +0.049 C 
ATOM      7  C   UNL     1       2.069  -0.006   1.327  0.00  0.00    -0.018 A 
ATOM      8  C   UNL     1       3.066  -0.742   1.930  0.00  0.00    +0.034 A 
ATOM      9  C   UNL     1       4.378  -0.307   1.886  0.00  0.00    +0.106 A 
ATOM     10  C   UNL     1       4.694   0.872   1.236  0.00  0.00    +0.030 A 
ATOM     11  C   UNL     1       3.703   1.613   0.624  0.00  0.00    +0.025 A 
ATOM     12  C   UNL     1       2.383   1.182   0.657  0.00  0.00    +0.031 A 
ATOM     13  N   UNL     1       1.400   1.932  -0.001  0.00  0.00    -0.336 N 
ATOM     14  H   UNL     1       1.700   2.847  -0.533  0.00  0.00    +0.147 HD
ENDROOT
BRANCH   1  20
ATOM     15  C   UNL     1      -2.105   2.155  -1.224  0.00  0.00    +0.125 A 
ATOM     16  C   UNL     1      -2.751   2.632  -2.355  0.00  0.00    +0.046 A 
ATOM     17  C   UNL     1      -2.018   2.984  -3.471  0.00  0.00    +0.004 A 
ATOM     18  C   UNL     1      -0.640   2.861  -3.462  0.00  0.00    +0.001 A 
ATOM     19  C   UNL     1       0.006   2.390  -2.334  0.00  0.00    +0.009 A 
ATOM     20  C   UNL     1      -0.724   2.032  -1.217  0.00  0.00    +0.015 A 
BRANCH  15  21
ATOM     21  O   UNL     1      -2.825   1.808  -0.124  0.00  0.00    -0.492 OA
BRANCH  21  23
ATOM     22  C   UNL     1      -4.877   1.524   1.120  0.00  0.00    +0.048 C 
ATOM     23  C   UNL     1      -4.243   1.961  -0.203  0.00  0.00    +0.225 C 
ENDBRANCH  21  23
ENDBRANCH  15  21
ENDBRANCH   1  20
BRANCH   9  24
ATOM     24  S   UNL     1       5.647  -1.254   2.659  0.00  0.00    +0.058 S 
ATOM     25  O   UNL     1       5.170  -2.591   2.730  0.00  0.00    -0.153 OA
ATOM     26  O   UNL     1       6.863  -0.912   2.008  0.00  0.00    -0.153 OA
BRANCH  24  27
ATOM     27  N   UNL     1       5.778  -0.715   4.220  0.00  0.00    -0.187 NA
ATOM     28  H   UNL     1       6.632  -0.081   4.500  0.00  0.00    +0.148 HD
BRANCH  27  29
ATOM     29  C   UNL     1       4.663  -0.896   5.153  0.00  0.00    +0.137 C 
BRANCH  29  30
ATOM     30  C   UNL     1       5.154  -0.668   6.584  0.00  0.00    +0.134 C 
ATOM     31  C   UNL     1       3.990  -0.864   7.575  0.00  0.00    +0.035 C 
ATOM     32  C   UNL     1       4.478  -1.994   8.514  0.00  0.00    +0.031 C 
ATOM     33  C   UNL     1       6.014  -1.938   8.318  0.00  0.00    +0.160 C 
ATOM     34  O   UNL     1       6.167  -1.633   6.914  0.00  0.00    -0.375 OA
ENDBRANCH  29  30
ENDBRANCH  27  29
ENDBRANCH  24  27
ENDBRANCH   9  24
TORSDOF 7
