REMARK  Name = ZINC37316263
REMARK  5 active torsions:
REMARK  status: ('A' for Active; 'I' for Inactive)
REMARK    1  A    between atoms: C_1  and  C_2
REMARK    2  A    between atoms: C_3  and  C_7
REMARK    3  A    between atoms: C_7  and  C_9
REMARK    4  A    between atoms: C_7  and  N_10
REMARK    5  A    between atoms: N_10  and  C_11
REMARK                            x       y       z     vdW  Elec       q    Type
REMARK                         _______ _______ _______ _____ _____    ______ ____
ROOT
ATOM      1  C   UNL     1       1.585   0.103  -4.461  0.00  0.00    +0.075 A 
ATOM      2  C   UNL     1       2.670  -0.314  -5.170  0.00  0.00    +0.065 A 
ATOM      3  C   UNL     1       3.258   0.496  -6.141  0.00  0.00    +0.044 A 
ATOM      4  C   UNL     1       2.777   1.732  -6.420  0.00  0.00    +0.071 A 
ATOM      5  C   UNL     1       1.646   2.236  -5.720  0.00  0.00    +0.120 A 
ATOM      6  C   UNL     1       1.023   1.391  -4.708  0.00  0.00    +0.123 A 
ATOM      7  N   UNL     1      -0.029   1.962  -4.122  0.00  0.00    -0.189 NA
ATOM      8  S   UNL     1      -0.181   3.406  -4.815  0.00  0.00    +0.117 S 
ATOM      9  N   UNL     1       1.041   3.416  -5.861  0.00  0.00    -0.189 NA
ATOM     10 CL   UNL     1       3.544   2.704  -7.637  0.00  0.00    -0.081 Cl
ATOM     11 CL   UNL     1       3.336  -1.887  -4.859  0.00  0.00    -0.082 Cl
ENDROOT
BRANCH   1  12
ATOM     12  N   UNL     1       1.020  -0.732  -3.496  0.00  0.00    -0.334 N 
ATOM     13  H   UNL     1       1.240  -1.677  -3.483  0.00  0.00    +0.147 HD
BRANCH  12  14
ATOM     14  C   UNL     1       0.094  -0.182  -2.503  0.00  0.00    +0.106 C 
ATOM     15  C   UNL     1      -1.345  -0.366  -2.990  0.00  0.00    +0.033 C 
BRANCH  14  18
ATOM     16  C   UNL     1       0.284   1.077   0.335  0.00  0.00    +0.066 C 
ATOM     17  C   UNL     1       0.365  -0.403   0.067  0.00  0.00    +0.050 A 
ATOM     18  C   UNL     1       0.277  -0.903  -1.192  0.00  0.00    +0.032 A 
ATOM     19  S   UNL     1       0.437  -2.651  -0.865  0.00  0.00    -0.078 S 
ATOM     20  C   UNL     1       0.597  -2.559   0.808  0.00  0.00    +0.156 A 
ATOM     21  N   UNL     1       0.531  -1.272   1.044  0.00  0.00    -0.252 NA
ENDBRANCH  14  18
ENDBRANCH  12  14
ENDBRANCH   1  12
TORSDOF 3
