REMARK  Name = ZINC67540713
REMARK  5 active torsions:
REMARK  status: ('A' for Active; 'I' for Inactive)
REMARK    1  A    between atoms: C_1  and  C_2
REMARK    2  A    between atoms: C_6  and  C_7
REMARK    3  A    between atoms: N_9  and  C_12
REMARK    4  A    between atoms: C_19  and  O_23
REMARK    5  A    between atoms: O_23  and  C_24
REMARK                            x       y       z     vdW  Elec       q    Type
REMARK                         _______ _______ _______ _____ _____    ______ ____
ROOT
ATOM      1  C   UNL     1       0.072  -0.399   6.159  0.00  0.00    +0.151 C 
ATOM      2  C   UNL     1      -1.352  -0.679   6.644  0.00  0.00    +0.069 C 
ATOM      3  C   UNL     1      -1.308  -1.307   8.014  0.00  0.00    +0.000 A 
ATOM      4  C   UNL     1      -2.457  -1.297   8.790  0.00  0.00    +0.007 A 
ATOM      5  C   UNL     1      -2.456  -1.865  10.048  0.00  0.00    +0.004 A 
ATOM      6  C   UNL     1      -1.305  -2.450  10.542  0.00  0.00    +0.049 A 
ATOM      7  C   UNL     1      -0.153  -2.463   9.775  0.00  0.00    +0.162 A 
ATOM      8  C   UNL     1      -0.152  -1.887   8.504  0.00  0.00    +0.165 A 
ATOM      9  O   UNL     1       1.000  -1.908   7.783  0.00  0.00    -0.486 OA
ATOM     10  C   UNL     1       0.914  -1.662   6.378  0.00  0.00    +0.256 C 
ENDROOT
BRANCH   1  13
ATOM     11  C   UNL     1       0.029  -0.201   2.566  0.00  0.00    +0.119 A 
ATOM     12  C   UNL     1       0.055  -0.947   3.711  0.00  0.00    +0.139 A 
ATOM     13  N   UNL     1       0.051  -0.061   4.734  0.00  0.00    -0.244 N 
ATOM     14  N   UNL     1       0.023   1.128   4.244  0.00  0.00    -0.065 NA
ATOM     15  N   UNL     1       0.015   1.086   2.958  0.00  0.00    -0.129 NA
BRANCH  11  21
ATOM     16  C   UNL     1      -0.018   1.503   0.010  0.00  0.00    +0.045 C 
ATOM     17  C   UNL     1       0.002  -0.004   0.002  0.00  0.00    -0.034 A 
ATOM     18  C   UNL     1       0.006  -0.700  -1.188  0.00  0.00    +0.011 A 
ATOM     19  C   UNL     1       0.025  -2.057  -1.161  0.00  0.00    +0.046 A 
ATOM     20  S   UNL     1       0.038  -2.395   0.592  0.00  0.00    -0.095 S 
ATOM     21  C   UNL     1       0.023  -0.708   1.175  0.00  0.00    +0.044 A 
ENDBRANCH  11  21
ENDBRANCH   1  13
BRANCH   7  22
ATOM     22  O   UNL     1       0.979  -3.039  10.260  0.00  0.00    -0.491 OA
ATOM     23  C   UNL     1       0.908  -3.610  11.568  0.00  0.00    +0.277 C 
ENDBRANCH   7  22
TORSDOF 3
