REMARK  Name = ZINC12832938
REMARK  9 active torsions:
REMARK  status: ('A' for Active; 'I' for Inactive)
REMARK    1  A    between atoms: C_1  and  C_2
REMARK    2  A    between atoms: C_7  and  C_15
REMARK    3  A    between atoms: C_13  and  C_14
REMARK    4  A    between atoms: C_15  and  N_69
REMARK    5  A    between atoms: C_16  and  C_17
REMARK    6  A    between atoms: C_16  and  N_69
REMARK    7  A    between atoms: C_26  and  C_27
REMARK    8  A    between atoms: C_26  and  N_69
REMARK    9  A    between atoms: N_31  and  C_32
REMARK                            x       y       z     vdW  Elec       q    Type
REMARK                         _______ _______ _______ _____ _____    ______ ____
ROOT
ATOM      1  N   UNL     1      -0.795  -2.781  -2.188  0.00  0.00    +0.390 N 
ATOM      2  H   UNL     1      -1.542  -3.463  -2.008  0.00  0.00    -0.080 HD
ENDROOT
BRANCH   1   3
ATOM      3  C   UNL     1      -0.175  -3.084  -3.495  0.00  0.00    -0.036 C 
BRANCH   3  10
ATOM      4  C   UNL     1      -5.895  -3.934  -8.989  0.00  0.00    +0.044 C 
ATOM      5  C   UNL     1      -4.806  -3.551  -8.021  0.00  0.00    -0.046 A 
ATOM      6  C   UNL     1      -4.330  -2.246  -8.003  0.00  0.00    +0.004 A 
ATOM      7  C   UNL     1      -3.343  -1.878  -7.134  0.00  0.00    +0.010 A 
ATOM      8  C   UNL     1      -2.806  -2.823  -6.253  0.00  0.00    -0.001 A 
ATOM      9  C   UNL     1      -1.751  -2.462  -5.305  0.00  0.00    +0.017 A 
ATOM     10  C   UNL     1      -1.265  -3.422  -4.480  0.00  0.00    +0.001 A 
ATOM     11  C   UNL     1      -1.780  -4.734  -4.536  0.00  0.00    +0.251 A 
ATOM     12  O   UNL     1      -1.332  -5.581  -3.782  0.00  0.00    -0.268 OA
ATOM     13  N   UNL     1      -2.752  -5.075  -5.400  0.00  0.00    -0.322 N 
ATOM     14  H   UNL     1      -3.083  -5.987  -5.412  0.00  0.00    +0.169 HD
ATOM     15  C   UNL     1      -3.285  -4.147  -6.269  0.00  0.00    +0.052 A 
ATOM     16  C   UNL     1      -4.291  -4.499  -7.163  0.00  0.00    -0.024 A 
ATOM     17  C   UNL     1      -4.816  -5.911  -7.194  0.00  0.00    +0.046 C 
ENDBRANCH   3  10
ENDBRANCH   1   3
BRANCH   1  18
ATOM     18  C   UNL     1       0.215  -2.881  -1.114  0.00  0.00    -0.042 C 
BRANCH  18  19
ATOM     19  C   UNL     1       0.510  -4.337  -0.861  0.00  0.00    -0.060 A 
ATOM     20  C   UNL     1      -0.285  -5.060   0.009  0.00  0.00    +0.005 A 
ATOM     21  C   UNL     1      -0.022  -6.398   0.240  0.00  0.00    +0.050 A 
ATOM     22  C   UNL     1       1.048  -7.013  -0.390  0.00  0.00    +0.166 A 
ATOM     23  C   UNL     1       1.852  -6.283  -1.262  0.00  0.00    +0.166 A 
ATOM     24  C   UNL     1       1.579  -4.945  -1.494  0.00  0.00    +0.051 A 
ATOM     25  O   UNL     1       2.826  -7.106  -1.749  0.00  0.00    -0.453 OA
ATOM     26  C   UNL     1       2.858  -8.235  -0.857  0.00  0.00    +0.466 C 
ATOM     27  O   UNL     1       1.518  -8.293  -0.331  0.00  0.00    -0.453 OA
ENDBRANCH  18  19
ENDBRANCH   1  18
BRANCH   1  28
ATOM     28  C   UNL     1      -1.379  -1.424  -2.208  0.00  0.00    +0.001 C 
BRANCH  28  29
ATOM     29  C   UNL     1      -2.274  -1.263  -1.006  0.00  0.00    +0.135 A 
ATOM     30  N   UNL     1      -3.521  -1.655  -0.900  0.00  0.00    -0.115 NA
ATOM     31  N   UNL     1      -3.938  -1.339   0.277  0.00  0.00    -0.023 NA
ATOM     32  N   UNL     1      -2.989  -0.762   0.927  0.00  0.00    -0.044 NA
ATOM     33  N   UNL     1      -1.948  -0.692   0.168  0.00  0.00    -0.228 N 
BRANCH  33  34
ATOM     34  C   UNL     1      -0.652  -0.105   0.520  0.00  0.00    +0.111 C 
ATOM     35  C   UNL     1      -0.809   1.407   0.699  0.00  0.00    +0.027 C 
ATOM     36  C   UNL     1       0.544   2.020   1.066  0.00  0.00    +0.002 C 
ATOM     37  C   UNL     1       1.046   1.401   2.372  0.00  0.00    +0.000 C 
ATOM     38  C   UNL     1       1.203  -0.111   2.194  0.00  0.00    +0.002 C 
ATOM     39  C   UNL     1      -0.150  -0.724   1.826  0.00  0.00    +0.027 C 
ENDBRANCH  33  34
ENDBRANCH  28  29
ENDBRANCH   1  28
TORSDOF 7
