REMARK  Name = ZINC13063755
REMARK  11 active torsions:
REMARK  status: ('A' for Active; 'I' for Inactive)
REMARK    1  A    between atoms: C_1  and  C_2
REMARK    2  A    between atoms: C_2  and  C_3
REMARK    3  A    between atoms: C_10  and  C_15
REMARK    4  A    between atoms: C_15  and  N_69
REMARK    5  A    between atoms: C_16  and  N_69
REMARK    6  A    between atoms: C_22  and  C_24
REMARK    7  A    between atoms: C_22  and  C_26
REMARK    8  A    between atoms: C_22  and  N_69
REMARK    9  A    between atoms: C_24  and  C_25
REMARK   10  A    between atoms: N_30  and  C_31
REMARK   11  A    between atoms: C_31  and  C_32
REMARK                            x       y       z     vdW  Elec       q    Type
REMARK                         _______ _______ _______ _____ _____    ______ ____
ROOT
ATOM      1  N   UNL     1      -3.074   0.327  -1.473  0.00  0.00    +0.391 N 
ATOM      2  H   UNL     1      -2.889   1.133  -2.083  0.00  0.00    -0.080 HD
ENDROOT
BRANCH   1   3
ATOM      3  C   UNL     1      -2.481  -0.882  -2.082  0.00  0.00    -0.067 C 
ATOM      4  C   UNL     1      -2.686  -2.096  -1.174  0.00  0.00    -0.015 C 
ATOM      5  C   UNL     1      -2.064  -3.332  -1.827  0.00  0.00    -0.002 C 
ATOM      6  C   UNL     1      -0.566  -3.098  -2.036  0.00  0.00    -0.000 C 
ATOM      7  C   UNL     1      -0.361  -1.884  -2.944  0.00  0.00    -0.002 C 
ATOM      8  C   UNL     1      -0.984  -0.648  -2.292  0.00  0.00    -0.015 C 
ENDBRANCH   1   3
BRANCH   1   9
ATOM      9  C   UNL     1      -2.464   0.577  -0.150  0.00  0.00    -0.036 C 
BRANCH   9  17
ATOM     10  C   UNL     1      -5.757   4.897   2.813  0.00  0.00    -0.047 A 
ATOM     11  C   UNL     1      -5.007   5.985   2.386  0.00  0.00    +0.005 A 
ATOM     12  C   UNL     1      -3.919   5.808   1.559  0.00  0.00    +0.026 A 
ATOM     13  C   UNL     1      -3.567   4.527   1.146  0.00  0.00    +0.049 A 
ATOM     14  C   UNL     1      -4.330   3.427   1.581  0.00  0.00    -0.001 A 
ATOM     15  C   UNL     1      -5.430   3.630   2.420  0.00  0.00    +0.013 A 
ATOM     16  C   UNL     1      -3.952   2.082   1.141  0.00  0.00    +0.017 A 
ATOM     17  C   UNL     1      -2.877   1.946   0.324  0.00  0.00    +0.001 A 
ATOM     18  C   UNL     1      -2.143   3.082  -0.078  0.00  0.00    +0.251 A 
ATOM     19  O   UNL     1      -1.178   2.937  -0.809  0.00  0.00    -0.268 OA
ATOM     20  N   UNL     1      -2.483   4.320   0.320  0.00  0.00    -0.322 N 
ATOM     21  H   UNL     1      -1.958   5.079   0.021  0.00  0.00    +0.169 HD
BRANCH  10  23
ATOM     22  C   UNL     1      -6.489   5.053   5.177  0.00  0.00    +0.009 C 
ATOM     23  C   UNL     1      -6.942   5.116   3.717  0.00  0.00    +0.032 C 
ENDBRANCH  10  23
ENDBRANCH   9  17
ENDBRANCH   1   9
BRANCH   1  24
ATOM     24  C   UNL     1      -4.535   0.157  -1.331  0.00  0.00    +0.003 C 
BRANCH  24  25
ATOM     25  C   UNL     1      -4.862  -0.507  -0.019  0.00  0.00    +0.139 A 
ATOM     26  N   UNL     1      -4.165  -1.441   0.581  0.00  0.00    -0.115 NA
ATOM     27  N   UNL     1      -4.769  -1.746   1.677  0.00  0.00    -0.023 NA
ATOM     28  N   UNL     1      -5.837  -1.036   1.789  0.00  0.00    -0.044 NA
ATOM     29  N   UNL     1      -5.930  -0.260   0.763  0.00  0.00    -0.223 N 
BRANCH  29  30
ATOM     30  C   UNL     1      -6.997   0.709   0.498  0.00  0.00    +0.221 C 
BRANCH  30  31
ATOM     31  C   UNL     1      -8.099   0.040  -0.283  0.00  0.00    +0.126 A 
ATOM     32  C   UNL     1      -9.161  -0.597   0.243  0.00  0.00    +0.046 A 
ATOM     33  C   UNL     1      -9.936  -1.066  -0.842  0.00  0.00    +0.041 A 
ATOM     34  C   UNL     1      -9.297  -0.695  -1.966  0.00  0.00    +0.195 A 
ATOM     35  O   UNL     1      -8.185  -0.025  -1.621  0.00  0.00    -0.466 OA
ENDBRANCH  30  31
ENDBRANCH  29  30
ENDBRANCH  24  25
BRANCH  24  36
ATOM     36  C   UNL     1      -5.061  -0.702  -2.483  0.00  0.00    -0.011 C 
ATOM     37  C   UNL     1      -4.857   0.037  -3.806  0.00  0.00    +0.002 C 
ENDBRANCH  24  36
ENDBRANCH   1  24
TORSDOF 9
