REMARK  Name = ZINC15041028
REMARK  7 active torsions:
REMARK  status: ('A' for Active; 'I' for Inactive)
REMARK    1  A    between atoms: C_1  and  C_2
REMARK    2  A    between atoms: C_2  and  C_4
REMARK    3  A    between atoms: C_2  and  N_13
REMARK    4  A    between atoms: C_14  and  C_16
REMARK    5  A    between atoms: C_18  and  S_23
REMARK    6  A    between atoms: S_23  and  N_26
REMARK    7  A    between atoms: N_26  and  C_27
REMARK                            x       y       z     vdW  Elec       q    Type
REMARK                         _______ _______ _______ _____ _____    ______ ____
ROOT
ATOM      1  N   UNL     1      -2.443  -0.109   0.026  0.00  0.00    -0.302 N 
ATOM      2  C   UNL     1      -1.266  -0.764   0.011  0.00  0.00    +0.246 C 
ATOM      3  O   UNL     1      -1.246  -1.979   0.004  0.00  0.00    -0.270 OA
ATOM      4  H   UNL     1      -2.459   0.861   0.031  0.00  0.00    +0.150 HD
ENDROOT
BRANCH   2   5
ATOM      5  C   UNL     1       0.002  -0.004   0.002  0.00  0.00    +0.052 A 
ATOM      6  C   UNL     1      -0.017   1.392   0.010  0.00  0.00    +0.042 A 
ATOM      7  C   UNL     1       1.170   2.095   0.002  0.00  0.00    +0.106 A 
ATOM      8  C   UNL     1       2.378   1.420  -0.013  0.00  0.00    +0.029 A 
ATOM      9  C   UNL     1       2.405   0.037  -0.021  0.00  0.00    +0.018 A 
ATOM     10  C   UNL     1       1.224  -0.679  -0.013  0.00  0.00    +0.030 A 
ATOM     11 BR   UNL     1       1.263  -2.570  -0.023  0.00  0.00    -0.050 Br
BRANCH   7  12
ATOM     12  S   UNL     1       1.147   3.857   0.012  0.00  0.00    +0.059 S 
ATOM     13  O   UNL     1       2.382   4.282  -0.549  0.00  0.00    -0.153 OA
ATOM     14  O   UNL     1      -0.108   4.250  -0.525  0.00  0.00    -0.153 OA
BRANCH  12  15
ATOM     15  N   UNL     1       1.156   4.338   1.596  0.00  0.00    -0.187 NA
ATOM     16  H   UNL     1       0.392   4.809   1.965  0.00  0.00    +0.148 HD
BRANCH  15  17
ATOM     17  C   UNL     1       2.318   4.052   2.442  0.00  0.00    +0.077 C 
ATOM     18  C   UNL     1       2.060   3.765   3.923  0.00  0.00    +0.022 C 
ATOM     19  C   UNL     1       2.694   5.092   3.500  0.00  0.00    +0.022 C 
ENDBRANCH  15  17
ENDBRANCH  12  15
ENDBRANCH   7  12
ENDBRANCH   2   5
BRANCH   1  21
ATOM     20  C   UNL     1      -4.059  -1.240   1.473  0.00  0.00    +0.036 C 
ATOM     21  C   UNL     1      -3.700  -0.862   0.034  0.00  0.00    +0.136 C 
BRANCH  21  22
ATOM     22  C   UNL     1      -4.799  -0.013  -0.551  0.00  0.00    +0.126 A 
ATOM     23  C   UNL     1      -5.760  -0.459  -1.371  0.00  0.00    +0.055 A 
ATOM     24  C   UNL     1      -6.601   0.702  -1.686  0.00  0.00    +0.020 A 
ATOM     25  C   UNL     1      -7.739   0.898  -2.468  0.00  0.00    +0.011 A 
ATOM     26  C   UNL     1      -8.297   2.143  -2.551  0.00  0.00    +0.001 A 
ATOM     27  C   UNL     1      -7.738   3.211  -1.865  0.00  0.00    +0.004 A 
ATOM     28  C   UNL     1      -6.613   3.036  -1.087  0.00  0.00    +0.047 A 
ATOM     29  C   UNL     1      -6.031   1.779  -0.988  0.00  0.00    +0.135 A 
ATOM     30  O   UNL     1      -4.960   1.302  -0.321  0.00  0.00    -0.458 OA
ENDBRANCH  21  22
ENDBRANCH   1  21
TORSDOF 6
