REMARK  Name = ZINC09258540
REMARK  13 active torsions:
REMARK  status: ('A' for Active; 'I' for Inactive)
REMARK    1  A    between atoms: C_1  and  C_2
REMARK    2  A    between atoms: C_2  and  C_4
REMARK    3  A    between atoms: C_2  and  O_17
REMARK    4  A    between atoms: N_6  and  C_7
REMARK    5  A    between atoms: C_7  and  C_8
REMARK    6  A    between atoms: O_17  and  C_18
REMARK    7  A    between atoms: C_18  and  C_20
REMARK    8  A    between atoms: C_20  and  C_22
REMARK    9  A    between atoms: C_20  and  N_26
REMARK   10  A    between atoms: C_22  and  C_23
REMARK   11  A    between atoms: C_23  and  C_24
REMARK   12  A    between atoms: C_23  and  C_25
REMARK   13  A    between atoms: C_27  and  C_29
REMARK                            x       y       z     vdW  Elec       q    Type
REMARK                         _______ _______ _______ _____ _____    ______ ____
ROOT
ATOM      1  C   UNL     1      -0.110  -0.972  -2.490  0.00  0.00    +0.328 C 
ATOM      2  O   UNL     1      -1.309  -0.945  -2.637  0.00  0.00    -0.249 OA
ENDROOT
BRANCH   1   3
ATOM      3  O   UNL     1       0.431  -0.614  -1.315  0.00  0.00    -0.451 OA
BRANCH   3   5
ATOM      4  C   UNL     1      -0.705   1.297  -0.369  0.00  0.00    +0.062 C 
ATOM      5  C   UNL     1      -0.470  -0.212  -0.282  0.00  0.00    +0.258 C 
BRANCH   5   6
ATOM      6  C   UNL     1       0.122  -0.552   1.062  0.00  0.00    +0.254 C 
ATOM      7  O   UNL     1       1.246  -1.002   1.133  0.00  0.00    -0.272 OA
ATOM      8  N   UNL     1      -0.598  -0.355   2.184  0.00  0.00    -0.308 N 
ATOM      9  H   UNL     1      -1.496   0.005   2.127  0.00  0.00    +0.149 HD
BRANCH   8  10
ATOM     10  C   UNL     1      -0.022  -0.685   3.490  0.00  0.00    +0.139 C 
BRANCH  10  11
ATOM     11  C   UNL     1      -1.023  -0.375   4.573  0.00  0.00    -0.027 A 
ATOM     12  C   UNL     1      -1.045   0.881   5.152  0.00  0.00    +0.009 A 
ATOM     13  C   UNL     1      -1.961   1.171   6.146  0.00  0.00    +0.050 A 
ATOM     14  C   UNL     1      -2.860   0.203   6.564  0.00  0.00    +0.166 A 
ATOM     15  C   UNL     1      -2.837  -1.062   5.981  0.00  0.00    +0.167 A 
ATOM     16  C   UNL     1      -1.920  -1.343   4.982  0.00  0.00    +0.054 A 
ATOM     17  O   UNL     1      -3.809  -1.826   6.559  0.00  0.00    -0.453 OA
ATOM     18  C   UNL     1      -4.155  -1.149   7.782  0.00  0.00    +0.466 C 
ATOM     19  O   UNL     1      -3.846   0.231   7.508  0.00  0.00    -0.453 OA
ENDBRANCH  10  11
ENDBRANCH   8  10
ENDBRANCH   5   6
ENDBRANCH   3   5
ENDBRANCH   1   3
BRANCH   1  20
ATOM     20  C   UNL     1       0.779  -1.408  -3.627  0.00  0.00    +0.182 C 
BRANCH  20  21
ATOM     21  N   UNL     1      -0.046  -1.744  -4.790  0.00  0.00    -0.298 N 
ATOM     22  C   UNL     1       0.389  -2.653  -5.685  0.00  0.00    +0.245 C 
ATOM     23  O   UNL     1       1.419  -3.264  -5.478  0.00  0.00    -0.270 OA
ATOM     24  H   UNL     1      -0.905  -1.312  -4.917  0.00  0.00    +0.150 HD
BRANCH  22  25
ATOM     25  C   UNL     1      -0.386  -2.906  -6.918  0.00  0.00    +0.037 A 
ATOM     26  C   UNL     1      -1.566  -2.201  -7.161  0.00  0.00    +0.014 A 
ATOM     27  C   UNL     1      -2.284  -2.441  -8.313  0.00  0.00    +0.021 A 
ATOM     28  C   UNL     1      -1.838  -3.380  -9.228  0.00  0.00    +0.041 A 
ATOM     29  C   UNL     1      -0.668  -4.083  -8.992  0.00  0.00    +0.021 A 
ATOM     30  C   UNL     1       0.062  -3.847  -7.847  0.00  0.00    +0.014 A 
ATOM     31 CL   UNL     1      -2.748  -3.678 -10.676  0.00  0.00    -0.084 Cl
ENDBRANCH  22  25
ENDBRANCH  20  21
BRANCH  20  32
ATOM     32  C   UNL     1       1.736  -0.271  -3.991  0.00  0.00    +0.036 C 
BRANCH  32  33
ATOM     33  C   UNL     1       2.711  -0.035  -2.836  0.00  0.00    -0.015 C 
ATOM     34  C   UNL     1       3.565  -1.288  -2.627  0.00  0.00    +0.007 C 
ATOM     35  C   UNL     1       3.619   1.150  -3.169  0.00  0.00    +0.007 C 
ENDBRANCH  32  33
ENDBRANCH  20  32
ENDBRANCH   1  20
TORSDOF 10
