REMARK  Name = ZINC66286775
REMARK  8 active torsions:
REMARK  status: ('A' for Active; 'I' for Inactive)
REMARK    1  A    between atoms: C_1  and  C_2
REMARK    2  A    between atoms: C_4  and  N_13
REMARK    3  A    between atoms: C_7  and  N_8
REMARK    4  A    between atoms: C_14  and  C_16
REMARK    5  A    between atoms: C_16  and  C_17
REMARK    6  A    between atoms: C_17  and  C_19
REMARK    7  A    between atoms: C_17  and  N_20
REMARK    8  A    between atoms: C_21  and  C_23
REMARK                            x       y       z     vdW  Elec       q    Type
REMARK                         _______ _______ _______ _____ _____    ______ ____
ROOT
ATOM      1  N   UNL     1       0.207  -2.670  -2.468  0.00  0.00    -0.285 N 
ATOM      2  C   UNL     1       0.343  -4.010  -2.495  0.00  0.00    +0.219 C 
ATOM      3  O   UNL     1       0.484  -4.626  -1.460  0.00  0.00    -0.275 OA
ATOM      4  H   UNL     1       0.165  -2.169  -3.298  0.00  0.00    +0.155 HD
ENDROOT
BRANCH   1   8
ATOM      5  C   UNL     1       1.578  -2.275   2.236  0.00  0.00    +0.046 C 
ATOM      6  C   UNL     1       0.779  -1.787   1.055  0.00  0.00    -0.023 A 
ATOM      7  C   UNL     1       0.860  -2.449  -0.154  0.00  0.00    +0.028 A 
ATOM      8  C   UNL     1       0.124  -1.999  -1.242  0.00  0.00    +0.034 A 
ATOM      9  C   UNL     1      -0.694  -0.884  -1.114  0.00  0.00    +0.025 A 
ATOM     10  C   UNL     1      -0.775  -0.223   0.095  0.00  0.00    +0.030 A 
ATOM     11  C   UNL     1      -0.043  -0.676   1.185  0.00  0.00    +0.072 A 
BRANCH  11  12
ATOM     12  N   UNL     1      -0.130  -0.007   2.415  0.00  0.00    -0.200 N 
ATOM     13  C   UNL     1      -0.073   1.325   2.631  0.00  0.00    +0.250 A 
ATOM     14  N   UNL     1      -0.195   1.515   3.918  0.00  0.00    -0.116 NA
ATOM     15  N   UNL     1      -0.324   0.394   4.532  0.00  0.00    -0.023 NA
ATOM     16  N   UNL     1      -0.301  -0.580   3.688  0.00  0.00    -0.039 NA
ENDBRANCH  11  12
ENDBRANCH   1   8
BRANCH   2  17
ATOM     17  C   UNL     1       0.321  -4.743  -3.812  0.00  0.00    +0.118 C 
BRANCH  17  18
ATOM     18  C   UNL     1       0.495  -6.243  -3.563  0.00  0.00    +0.079 C 
ATOM     19  C   UNL     1       0.598  -6.973  -4.904  0.00  0.00    +0.028 C 
BRANCH  18  20
ATOM     20  N   UNL     1      -0.659  -6.751  -2.817  0.00  0.00    -0.312 N 
ATOM     21  C   UNL     1      -0.536  -7.858  -2.058  0.00  0.00    +0.216 C 
ATOM     22  O   UNL     1       0.530  -8.433  -1.992  0.00  0.00    -0.276 OA
ATOM     23  H   UNL     1      -1.511  -6.291  -2.870  0.00  0.00    +0.149 HD
BRANCH  21  24
ATOM     24  C   UNL     1      -1.723  -8.381  -1.291  0.00  0.00    +0.075 C 
ATOM     25  C   UNL     1      -2.207  -7.311  -0.309  0.00  0.00    +0.013 C 
ATOM     26  C   UNL     1      -3.412  -7.842   0.470  0.00  0.00    +0.001 C 
ATOM     27  C   UNL     1      -3.006  -9.098   1.244  0.00  0.00    +0.000 C 
ATOM     28  C   UNL     1      -2.521 -10.167   0.263  0.00  0.00    +0.001 C 
ATOM     29  C   UNL     1      -1.317  -9.636  -0.517  0.00  0.00    +0.013 C 
ENDBRANCH  21  24
ENDBRANCH  18  20
ENDBRANCH  17  18
ENDBRANCH   2  17
TORSDOF 6
