REMARK  Name = ZINC04457383
REMARK  10 active torsions:
REMARK  status: ('A' for Active; 'I' for Inactive)
REMARK    1  A    between atoms: C_1  and  C_2
REMARK    2  A    between atoms: C_2  and  C_3
REMARK    3  A    between atoms: C_3  and  C_4
REMARK    4  A    between atoms: C_4  and  N_5
REMARK    5  A    between atoms: N_5  and  C_6
REMARK    6  A    between atoms: C_6  and  C_7
REMARK    7  A    between atoms: N_11  and  C_12
REMARK    8  A    between atoms: C_12  and  C_13
REMARK    9  A    between atoms: C_18  and  C_19
REMARK   10  A    between atoms: C_20  and  C_22
REMARK                            x       y       z     vdW  Elec       q    Type
REMARK                         _______ _______ _______ _____ _____    ______ ____
ROOT
ATOM      1  C   UNL     1      -3.253   1.103   0.184  0.00  0.00    +0.161 C 
ENDROOT
BRANCH   1   2
ATOM      2  C   UNL     1      -1.860   1.393  -0.314  0.00  0.00    +0.036 A 
ATOM      3  C   UNL     1      -0.894   2.038   0.371  0.00  0.00    +0.024 A 
ATOM      4  C   UNL     1       0.246   2.089  -0.455  0.00  0.00    +0.019 A 
ATOM      5  C   UNL     1      -0.068   1.479  -1.615  0.00  0.00    +0.086 A 
ATOM      6  N   UNL     1      -1.361   1.052  -1.536  0.00  0.00    -0.345 N 
BRANCH   6   7
ATOM      7  C   UNL     1      -2.091   0.340  -2.588  0.00  0.00    +0.157 C 
BRANCH   7   8
ATOM      8  C   UNL     1      -2.977   1.308  -3.328  0.00  0.00    -0.025 A 
ATOM      9  C   UNL     1      -4.289   1.489  -2.929  0.00  0.00    +0.005 A 
ATOM     10  C   UNL     1      -5.102   2.377  -3.608  0.00  0.00    +0.000 A 
ATOM     11  C   UNL     1      -4.603   3.086  -4.685  0.00  0.00    +0.000 A 
ATOM     12  C   UNL     1      -3.292   2.906  -5.083  0.00  0.00    +0.004 A 
ATOM     13  C   UNL     1      -2.478   2.021  -4.402  0.00  0.00    -0.046 A 
ATOM     14  C   UNL     1      -1.046   1.829  -4.833  0.00  0.00    +0.044 C 
ENDBRANCH   7   8
ENDBRANCH   6   7
ENDBRANCH   1   2
BRANCH   1  15
ATOM     15  N   UNL     1      -3.256   1.098   1.649  0.00  0.00    -0.296 N 
ATOM     16  C   UNL     1      -3.600   2.212   2.326  0.00  0.00    +0.219 C 
ATOM     17  O   UNL     1      -3.506   2.240   3.534  0.00  0.00    -0.275 OA
BRANCH  16  18
ATOM     18  C   UNL     1      -4.103   3.421   1.580  0.00  0.00    +0.075 C 
ATOM     19  C   UNL     1      -2.929   4.122   0.895  0.00  0.00    +0.013 C 
ATOM     20  C   UNL     1      -3.439   5.350   0.138  0.00  0.00    +0.001 C 
ATOM     21  C   UNL     1      -4.105   6.315   1.121  0.00  0.00    +0.000 C 
ATOM     22  C   UNL     1      -5.279   5.614   1.807  0.00  0.00    +0.001 C 
ATOM     23  C   UNL     1      -4.769   4.386   2.563  0.00  0.00    +0.013 C 
ENDBRANCH  16  18
BRANCH  15  24
ATOM     24  C   UNL     1      -2.886  -0.117   2.378  0.00  0.00    +0.108 C 
BRANCH  24  25
ATOM     25  C   UNL     1      -1.404  -0.055   2.754  0.00  0.00    +0.019 C 
BRANCH  25  27
ATOM     26  C   UNL     1       0.465  -1.261   3.891  0.00  0.00    +0.004 C 
ATOM     27  C   UNL     1      -1.017  -1.324   3.516  0.00  0.00    -0.002 C 
ENDBRANCH  25  27
ENDBRANCH  24  25
ENDBRANCH  15  24
ENDBRANCH   1  15
TORSDOF 8
