REMARK  Name = ZINC26299276
REMARK  14 active torsions:
REMARK  status: ('A' for Active; 'I' for Inactive)
REMARK    1  A    between atoms: C_1  and  C_2
REMARK    2  A    between atoms: C_2  and  O_3
REMARK    3  A    between atoms: O_3  and  C_4
REMARK    4  A    between atoms: C_4  and  C_6
REMARK    5  A    between atoms: C_7  and  C_22
REMARK    6  A    between atoms: C_12  and  C_14
REMARK    7  A    between atoms: C_17  and  O_20
REMARK    8  A    between atoms: O_20  and  C_21
REMARK    9  A    between atoms: C_22  and  N_23
REMARK   10  A    between atoms: N_23  and  C_24
REMARK   11  A    between atoms: N_23  and  C_25
REMARK   12  A    between atoms: C_25  and  C_27
REMARK   13  A    between atoms: C_25  and  C_28
REMARK   14  A    between atoms: C_31  and  N_34
REMARK                            x       y       z     vdW  Elec       q    Type
REMARK                         _______ _______ _______ _____ _____    ______ ____
ROOT
ATOM      1  C   UNL     1      -0.904  -0.611  -0.995  0.00  0.00    +0.076 C 
ATOM      2  C   UNL     1       0.081  -0.220  -0.159  0.00  0.00    +0.008 C 
ATOM      3  N   UNL     1       0.809  -1.134   0.548  0.00  0.00    -0.274 N 
ATOM      4  C   UNL     1       0.607  -2.456   0.482  0.00  0.00    +0.304 C 
ATOM      5  O   UNL     1       1.303  -3.192   1.153  0.00  0.00    -0.252 OA
ATOM      6  N   UNL     1      -0.341  -2.998  -0.309  0.00  0.00    -0.288 N 
ATOM      7  C   UNL     1      -1.178  -2.096  -1.118  0.00  0.00    +0.143 C 
ATOM      8  H   UNL     1       1.614  -0.797   1.218  0.00  0.00    +0.156 HD
ATOM      9  H   UNL     1      -0.496  -4.085  -0.360  0.00  0.00    +0.151 HD
ENDROOT
BRANCH   7  10
ATOM     10  C   UNL     1      -1.010  -2.481  -2.566  0.00  0.00    -0.022 A 
ATOM     11  C   UNL     1       0.256  -2.681  -3.084  0.00  0.00    +0.009 A 
ATOM     12  C   UNL     1       0.412  -3.039  -4.409  0.00  0.00    +0.046 A 
ATOM     13  C   UNL     1      -0.703  -3.187  -5.222  0.00  0.00    +0.120 A 
ATOM     14  C   UNL     1      -1.971  -2.981  -4.701  0.00  0.00    +0.046 A 
ATOM     15  C   UNL     1      -2.122  -2.628  -3.374  0.00  0.00    +0.009 A 
BRANCH  13  16
ATOM     16  O   UNL     1      -0.551  -3.534  -6.528  0.00  0.00    -0.495 OA
ATOM     17  C   UNL     1       0.784  -3.730  -6.996  0.00  0.00    +0.277 C 
ENDBRANCH  13  16
ENDBRANCH   7  10
BRANCH   1  18
ATOM     18  C   UNL     1      -1.655   0.335  -1.732  0.00  0.00    +0.339 C 
ATOM     19  O   UNL     1      -2.772   0.647  -1.362  0.00  0.00    -0.245 OA
BRANCH  18  20
ATOM     20  O   UNL     1      -1.134   0.891  -2.846  0.00  0.00    -0.462 OA
BRANCH  20  22
ATOM     21  C   UNL     1      -1.194   2.356  -4.767  0.00  0.00    +0.048 C 
ATOM     22  C   UNL     1      -1.948   1.838  -3.540  0.00  0.00    +0.229 C 
ENDBRANCH  20  22
ENDBRANCH  18  20
ENDBRANCH   1  18
BRANCH   2  23
ATOM     23  C   UNL     1       0.387   1.248  -0.007  0.00  0.00    -0.026 C 
BRANCH  23  24
ATOM     24  N   UNL     1       0.072   1.675   1.363  0.00  0.00    +0.386 N 
ATOM     25  C   UNL     1      -1.371   1.589   1.623  0.00  0.00    -0.095 C 
ATOM     26  H   UNL     1       0.581   0.989   2.056  0.00  0.00    -0.081 HD
BRANCH  24  27
ATOM     27  C   UNL     1       0.574   3.031   1.621  0.00  0.00    -0.041 C 
ATOM     28  C   UNL     1      -0.210   4.034   0.773  0.00  0.00    -0.008 C 
BRANCH  27  29
ATOM     29  C   UNL     1       0.400   3.362   3.080  0.00  0.00    -0.061 A 
ATOM     30  C   UNL     1       0.032   4.640   3.458  0.00  0.00    +0.004 A 
ATOM     31  C   UNL     1      -0.133   4.946   4.795  0.00  0.00    +0.028 A 
ATOM     32  C   UNL     1       0.081   3.971   5.760  0.00  0.00    +0.067 A 
ATOM     33  C   UNL     1       0.456   2.690   5.378  0.00  0.00    +0.028 A 
ATOM     34  C   UNL     1       0.615   2.389   4.039  0.00  0.00    +0.004 A 
BRANCH  32  35
ATOM     35  N   UNL     1      -0.081   4.280   7.118  0.00  0.00    -0.220 N 
ATOM     36  C   UNL     1      -0.438   5.469   7.640  0.00  0.00    +0.225 A 
ATOM     37  N   UNL     1      -0.477   5.346   8.942  0.00  0.00    -0.222 NA
ATOM     38  C   UNL     1      -0.153   4.101   9.288  0.00  0.00    +0.245 A 
ATOM     39  N   UNL     1       0.092   3.408   8.206  0.00  0.00    -0.154 NA
ENDBRANCH  32  35
ENDBRANCH  27  29
ENDBRANCH  24  27
ENDBRANCH  23  24
ENDBRANCH   2  23
TORSDOF 10
