REMARK  Name = ZINC01121728
REMARK  5 active torsions:
REMARK  status: ('A' for Active; 'I' for Inactive)
REMARK    1  A    between atoms: C_1  and  C_2
REMARK    2  A    between atoms: C_4  and  N_10
REMARK    3  A    between atoms: C_5  and  C_9
REMARK    4  A    between atoms: C_11  and  C_13
REMARK    5  A    between atoms: C_18  and  N_19
REMARK                            x       y       z     vdW  Elec       q    Type
REMARK                         _______ _______ _______ _____ _____    ______ ____
ROOT
ATOM      1  N   UNL     1       1.028   2.155   0.015  0.00  0.00    -0.281 N 
ATOM      2  C   UNL     1       0.056   1.414  -0.552  0.00  0.00    +0.250 C 
ATOM      3  O   UNL     1       0.315   0.316  -1.006  0.00  0.00    -0.270 OA
ATOM      4  H   UNL     1       0.841   3.063   0.301  0.00  0.00    +0.155 HD
ENDROOT
BRANCH   1   8
ATOM      5  C   UNL     1       3.919  -1.784   0.556  0.00  0.00    +0.045 C 
ATOM      6  C   UNL     1       3.737  -0.291   0.457  0.00  0.00    -0.036 A 
ATOM      7  C   UNL     1       2.473   0.239   0.283  0.00  0.00    +0.028 A 
ATOM      8  C   UNL     1       2.306   1.615   0.192  0.00  0.00    +0.037 A 
ATOM      9  C   UNL     1       3.410   2.453   0.272  0.00  0.00    -0.028 A 
ATOM     10  C   UNL     1       4.670   1.917   0.451  0.00  0.00    +0.019 A 
ATOM     11  C   UNL     1       4.834   0.546   0.541  0.00  0.00    +0.017 A 
ATOM     12  I   UNL     1       6.748  -0.263   0.805  0.00  0.00    -0.044 I 
ATOM     13  C   UNL     1       3.234   3.946   0.169  0.00  0.00    +0.046 C 
ENDBRANCH   1   8
BRANCH   2  14
ATOM     14  C   UNL     1      -1.324   1.939  -0.630  0.00  0.00    +0.067 A 
ATOM     15  C   UNL     1      -1.600   3.078  -1.389  0.00  0.00    +0.015 A 
ATOM     16  C   UNL     1      -2.890   3.560  -1.459  0.00  0.00    +0.001 A 
ATOM     17  C   UNL     1      -3.909   2.923  -0.773  0.00  0.00    +0.002 A 
ATOM     18  C   UNL     1      -3.642   1.796  -0.015  0.00  0.00    +0.033 A 
ATOM     19  C   UNL     1      -2.356   1.301   0.060  0.00  0.00    +0.138 A 
BRANCH  19  20
ATOM     20  N   UNL     1      -2.072   0.097   0.872  0.00  0.00    +0.057 N 
ATOM     21  O   UNL     1      -2.954  -0.407   1.545  0.00  0.00    -0.126 OA
ATOM     22  O   UNL     1      -0.956  -0.391   0.868  0.00  0.00    -0.126 OA
ENDBRANCH  19  20
ENDBRANCH   2  14
TORSDOF 3
