REMARK  Name = ZINC05861721
REMARK  6 active torsions:
REMARK  status: ('A' for Active; 'I' for Inactive)
REMARK    1  A    between atoms: C_1  and  N_2
REMARK    2  A    between atoms: N_4  and  N_15
REMARK    3  A    between atoms: C_5  and  C_8
REMARK    4  A    between atoms: C_16  and  C_17
REMARK    5  A    between atoms: C_20  and  O_24
REMARK    6  A    between atoms: C_22  and  O_23
REMARK                            x       y       z     vdW  Elec       q    Type
REMARK                         _______ _______ _______ _____ _____    ______ ____
ROOT
ATOM      1  C   UNL     1       2.927   7.886   0.711  0.00  0.00    +0.173 C 
ATOM      2  N   UNL     1       3.229   6.460   0.568  0.00  0.00    -0.263 NA
ATOM      3  C   UNL     1       2.269   5.611   0.299  0.00  0.00    +0.189 A 
ATOM      4  N   UNL     1       2.337   4.243   0.132  0.00  0.00    -0.208 N 
ATOM      5  C   UNL     1       1.183   3.562  -0.151  0.00  0.00    +0.083 A 
ATOM      6  C   UNL     1       0.018   4.234  -0.249  0.00  0.00    +0.077 A 
ATOM      7  S   UNL     1       0.527   5.918   0.059  0.00  0.00    -0.056 S 
ENDROOT
BRANCH   5   8
ATOM      8  C   UNL     1       1.213   2.096  -0.343  0.00  0.00    +0.015 A 
ATOM      9  C   UNL     1       1.959   1.291   0.519  0.00  0.00    +0.011 A 
ATOM     10  C   UNL     1       1.983  -0.076   0.335  0.00  0.00    +0.001 A 
ATOM     11  C   UNL     1       1.269  -0.650  -0.703  0.00  0.00    +0.001 A 
ATOM     12  C   UNL     1       0.528   0.141  -1.562  0.00  0.00    +0.016 A 
ATOM     13  C   UNL     1       0.495   1.510  -1.388  0.00  0.00    +0.027 A 
ATOM     14 BR   UNL     1      -0.519   2.591  -2.563  0.00  0.00    -0.050 Br
ENDBRANCH   5   8
BRANCH   4  15
ATOM     15  N   UNL     1       3.558   3.566   0.245  0.00  0.00    -0.172 NA
ATOM     16  C   UNL     1       4.524   4.082   0.943  0.00  0.00    +0.145 C 
BRANCH  16  17
ATOM     17  C   UNL     1       5.850   3.439   0.955  0.00  0.00    +0.036 A 
ATOM     18  C   UNL     1       6.909   4.029   1.649  0.00  0.00    +0.016 A 
ATOM     19  C   UNL     1       8.146   3.421   1.663  0.00  0.00    +0.046 A 
ATOM     20  C   UNL     1       8.346   2.229   0.977  0.00  0.00    +0.120 A 
ATOM     21  C   UNL     1       7.303   1.639   0.280  0.00  0.00    +0.091 A 
ATOM     22  C   UNL     1       6.054   2.236   0.264  0.00  0.00    +0.129 A 
BRANCH  22  23
ATOM     23  O   UNL     1       5.032   1.660  -0.418  0.00  0.00    -0.506 OA
ATOM     24  H   UNL     1       5.009   1.885  -1.358  0.00  0.00    +0.292 HD
ENDBRANCH  22  23
BRANCH  20  25
ATOM     25  O   UNL     1       9.570   1.639   0.990  0.00  0.00    -0.507 OA
ATOM     26  H   UNL     1      10.151   1.922   0.271  0.00  0.00    +0.292 HD
ENDBRANCH  20  25
ENDBRANCH  16  17
ENDBRANCH   4  15
TORSDOF 5
