REMARK  Name = ZINC20686328
REMARK  10 active torsions:
REMARK  status: ('A' for Active; 'I' for Inactive)
REMARK    1  A    between atoms: C_1  and  C_2
REMARK    2  A    between atoms: C_7  and  C_8
REMARK    3  A    between atoms: C_8  and  N_9
REMARK    4  A    between atoms: C_19  and  C_31
REMARK    5  A    between atoms: C_21  and  C_26
REMARK    6  A    between atoms: N_24  and  C_25
REMARK    7  A    between atoms: C_31  and  C_33
REMARK    8  A    between atoms: C_36  and  C_39
REMARK    9  A    between atoms: C_39  and  C_40
REMARK   10  A    between atoms: C_39  and  C_41
REMARK                            x       y       z     vdW  Elec       q    Type
REMARK                         _______ _______ _______ _____ _____    ______ ____
ROOT
ATOM      1  N   UNL     1       2.182  -0.322  -2.328  0.00  0.00    -0.268 N 
ATOM      2  C   UNL     1       2.966   0.740  -2.784  0.00  0.00    +0.039 A 
ATOM      3  C   UNL     1       3.570   0.962  -4.019  0.00  0.00    +0.024 A 
ATOM      4  C   UNL     1       4.307   2.107  -4.235  0.00  0.00    +0.002 A 
ATOM      5  C   UNL     1       4.453   3.044  -3.228  0.00  0.00    +0.000 A 
ATOM      6  C   UNL     1       3.857   2.831  -1.998  0.00  0.00    +0.004 A 
ATOM      7  C   UNL     1       3.120   1.689  -1.779  0.00  0.00    -0.027 A 
ATOM      8  C   UNL     1       2.360   1.163  -0.591  0.00  0.00    +0.051 C 
ATOM      9  C   UNL     1       1.787  -0.152  -1.053  0.00  0.00    +0.215 C 
ATOM     10  O   UNL     1       1.101  -0.911  -0.401  0.00  0.00    -0.276 OA
ATOM     11  C   UNL     1       1.245   2.132  -0.178  0.00  0.00    +0.071 C 
ATOM     12  C   UNL     1       1.570   2.507   1.288  0.00  0.00    +0.049 C 
ATOM     13  C   UNL     1       3.085   2.199   1.399  0.00  0.00    -0.065 C 
ATOM     14  N   UNL     1       3.247   0.977   0.568  0.00  0.00    +0.391 N 
ATOM     15  C   UNL     1       4.643   0.812   0.140  0.00  0.00    -0.094 C 
ATOM     16  H   UNL     1       2.993   0.061   1.122  0.00  0.00    -0.080 HD
ENDROOT
BRANCH  12  17
ATOM     17  C   UNL     1       1.304   3.970   1.536  0.00  0.00    +0.107 A 
ATOM     18  C   UNL     1       0.435   4.470   2.433  0.00  0.00    +0.045 A 
ATOM     19  C   UNL     1       0.506   5.879   2.329  0.00  0.00    +0.041 A 
ATOM     20  C   UNL     1       1.414   6.154   1.376  0.00  0.00    +0.195 A 
ATOM     21  O   UNL     1       1.898   4.994   0.903  0.00  0.00    -0.468 OA
ENDBRANCH  12  17
BRANCH  11  22
ATOM     22  C   UNL     1      -0.098   1.453  -0.261  0.00  0.00    +0.166 C 
ATOM     23  O   UNL     1      -0.535   0.855   0.699  0.00  0.00    -0.292 OA
BRANCH  22  24
ATOM     24  C   UNL     1      -0.875   1.510  -1.509  0.00  0.00    +0.018 A 
ATOM     25  C   UNL     1      -0.377   2.204  -2.616  0.00  0.00    +0.011 A 
ATOM     26  C   UNL     1      -1.109   2.248  -3.784  0.00  0.00    +0.004 A 
ATOM     27  C   UNL     1      -2.340   1.619  -3.857  0.00  0.00    -0.045 A 
ATOM     28  C   UNL     1      -2.842   0.935  -2.764  0.00  0.00    +0.004 A 
ATOM     29  C   UNL     1      -2.119   0.876  -1.591  0.00  0.00    +0.011 A 
BRANCH  27  30
ATOM     30  C   UNL     1      -3.137   1.678  -5.135  0.00  0.00    +0.013 C 
ATOM     31  C   UNL     1      -3.445   3.137  -5.478  0.00  0.00    +0.012 C 
ATOM     32  C   UNL     1      -2.327   1.048  -6.270  0.00  0.00    +0.012 C 
ENDBRANCH  27  30
ENDBRANCH  22  24
ENDBRANCH  11  22
BRANCH   1  33
ATOM     33  C   UNL     1       1.832  -1.488  -3.144  0.00  0.00    +0.149 C 
BRANCH  33  40
ATOM     34  C   UNL     1       1.737  -3.867  -4.780  0.00  0.00    +0.044 C 
ATOM     35  C   UNL     1       2.866  -3.670  -3.802  0.00  0.00    -0.046 A 
ATOM     36  C   UNL     1       3.857  -4.627  -3.688  0.00  0.00    +0.003 A 
ATOM     37  C   UNL     1       4.893  -4.446  -2.791  0.00  0.00    +0.000 A 
ATOM     38  C   UNL     1       4.939  -3.307  -2.008  0.00  0.00    +0.000 A 
ATOM     39  C   UNL     1       3.950  -2.348  -2.126  0.00  0.00    +0.005 A 
ATOM     40  C   UNL     1       2.912  -2.531  -3.019  0.00  0.00    -0.027 A 
ENDBRANCH  33  40
ENDBRANCH   1  33
TORSDOF 6
