REMARK  Name = ZINC40581991
REMARK  8 active torsions:
REMARK  status: ('A' for Active; 'I' for Inactive)
REMARK    1  A    between atoms: C_1  and  C_2
REMARK    2  A    between atoms: C_4  and  C_26
REMARK    3  A    between atoms: C_7  and  N_8
REMARK    4  A    between atoms: C_10  and  N_22
REMARK    5  A    between atoms: C_11  and  N_15
REMARK    6  A    between atoms: C_18  and  C_21
REMARK    7  A    between atoms: C_26  and  C_28
REMARK    8  A    between atoms: C_26  and  C_30
REMARK                            x       y       z     vdW  Elec       q    Type
REMARK                         _______ _______ _______ _____ _____    ______ ____
ROOT
ATOM      1  N   UNL     1      -0.370  -1.170   3.097  0.00  0.00    -0.297 N 
ATOM      2  C   UNL     1      -0.649  -2.029   4.150  0.00  0.00    +0.159 A 
ATOM      3  C   UNL     1      -0.803  -1.535   5.442  0.00  0.00    +0.206 A 
ATOM      4  C   UNL     1      -1.082  -2.438   6.464  0.00  0.00    +0.160 A 
ATOM      5  N   UNL     1      -1.189  -3.732   6.171  0.00  0.00    -0.218 NA
ATOM      6  C   UNL     1      -1.036  -4.161   4.934  0.00  0.00    +0.225 A 
ATOM      7  N   UNL     1      -0.777  -3.338   3.939  0.00  0.00    -0.218 NA
ATOM      8  H   UNL     1      -0.369  -0.211   3.241  0.00  0.00    +0.154 HD
ENDROOT
BRANCH   1  15
ATOM      9  C   UNL     1      -1.012   0.422   0.828  0.00  0.00    +0.045 C 
ATOM     10  C   UNL     1      -0.389  -0.943   0.693  0.00  0.00    -0.029 A 
ATOM     11  C   UNL     1      -0.108  -1.454  -0.559  0.00  0.00    +0.011 A 
ATOM     12  C   UNL     1       0.463  -2.707  -0.684  0.00  0.00    -0.008 A 
ATOM     13  C   UNL     1       0.756  -3.453   0.444  0.00  0.00    +0.047 A 
ATOM     14  C   UNL     1       0.477  -2.948   1.700  0.00  0.00    +0.043 A 
ATOM     15  C   UNL     1      -0.092  -1.687   1.828  0.00  0.00    +0.037 A 
ATOM     16 CL   UNL     1       1.474  -5.026   0.282  0.00  0.00    -0.083 Cl
BRANCH  12  17
ATOM     17  C   UNL     1       0.768  -3.261  -2.052  0.00  0.00    +0.153 C 
BRANCH  17  18
ATOM     18  C   UNL     1      -0.520  -3.486  -2.801  0.00  0.00    -0.026 A 
ATOM     19  C   UNL     1      -1.268  -2.406  -3.231  0.00  0.00    +0.006 A 
ATOM     20  C   UNL     1      -2.449  -2.613  -3.918  0.00  0.00    +0.020 A 
ATOM     21  C   UNL     1      -2.883  -3.901  -4.175  0.00  0.00    +0.041 A 
ATOM     22  C   UNL     1      -2.135  -4.982  -3.745  0.00  0.00    +0.020 A 
ATOM     23  C   UNL     1      -0.950  -4.774  -3.063  0.00  0.00    +0.006 A 
ATOM     24 CL   UNL     1      -4.368  -4.161  -5.037  0.00  0.00    -0.084 Cl
ENDBRANCH  17  18
BRANCH  17  25
ATOM     25  C   UNL     1       1.606  -2.304  -2.794  0.00  0.00    +0.075 C 
ATOM     26  N   UNL     1       2.252  -1.565  -3.366  0.00  0.00    -0.196 NA
ENDBRANCH  17  25
ENDBRANCH  12  17
ENDBRANCH   1  15
BRANCH   4  27
ATOM     27  N   UNL     1      -1.244  -1.995   7.769  0.00  0.00    -0.280 N 
ATOM     28  C   UNL     1      -1.522  -2.908   8.784  0.00  0.00    +0.167 A 
ATOM     29  C   UNL     1      -1.661  -4.306   8.631  0.00  0.00    +0.091 A 
ATOM     30  C   UNL     1      -1.926  -4.834   9.839  0.00  0.00    +0.136 A 
ATOM     31  O   UNL     1      -1.960  -3.834  10.735  0.00  0.00    -0.358 OA
ATOM     32  N   UNL     1      -1.697  -2.623  10.050  0.00  0.00    -0.063 NA
ATOM     33  C   UNL     1      -2.148  -6.294  10.136  0.00  0.00    +0.089 C 
ATOM     34  H   UNL     1      -1.164  -1.051   7.975  0.00  0.00    +0.155 HD
ENDBRANCH   4  27
BRANCH   3  35
ATOM     35  N   UNL     1      -0.675  -0.087   5.722  0.00  0.00    +0.063 N 
ATOM     36  O   UNL     1      -1.648   0.628   5.667  0.00  0.00    -0.126 OA
ATOM     37  O   UNL     1       0.404   0.380   6.007  0.00  0.00    -0.126 OA
ENDBRANCH   3  35
TORSDOF 6
