REMARK  Name = ZINC09722947
REMARK  6 active torsions:
REMARK  status: ('A' for Active; 'I' for Inactive)
REMARK    1  A    between atoms: C_1  and  C_2
REMARK    2  A    between atoms: C_2  and  C_3
REMARK    3  A    between atoms: C_3  and  C_29
REMARK    4  A    between atoms: N_6  and  C_10
REMARK    5  A    between atoms: C_10  and  C_11
REMARK    6  A    between atoms: C_16  and  C_19
REMARK                            x       y       z     vdW  Elec       q    Type
REMARK                         _______ _______ _______ _____ _____    ______ ____
ROOT
ATOM      1  C   UNL     1       2.908   1.264  -1.439  0.00  0.00    +0.237 C 
ATOM      2  O   UNL     1       2.165   1.554  -2.353  0.00  0.00    -0.274 OA
ATOM      3  N   UNL     1       4.140   0.784  -1.699  0.00  0.00    -0.263 N 
ATOM      4  C   UNL     1       4.560   0.623  -3.014  0.00  0.00    +0.165 A 
ATOM      5  N   UNL     1       5.715   0.174  -3.462  0.00  0.00    -0.225 NA
ATOM      6  C   UNL     1       5.958   0.082  -4.762  0.00  0.00    +0.082 A 
ATOM      7  C   UNL     1       4.973   0.467  -5.628  0.00  0.00    +0.077 A 
ATOM      8  S   UNL     1       3.693   0.955  -4.480  0.00  0.00    -0.060 S 
ATOM      9  H   UNL     1       4.734   0.552  -0.968  0.00  0.00    +0.157 HD
ENDROOT
BRANCH   6  10
ATOM     10  C   UNL     1       7.259  -0.424  -5.262  0.00  0.00    +0.026 A 
ATOM     11  C   UNL     1       7.625  -0.572  -6.557  0.00  0.00    +0.093 A 
ATOM     12  N   UNL     1       8.901  -1.062  -6.624  0.00  0.00    -0.360 N 
ATOM     13  H   UNL     1       9.382  -1.249  -7.445  0.00  0.00    +0.165 HD
ATOM     14  C   UNL     1       9.400  -1.258  -5.354  0.00  0.00    +0.047 A 
ATOM     15  C   UNL     1       8.400  -0.870  -4.446  0.00  0.00    +0.009 A 
ATOM     16  C   UNL     1       8.631  -0.962  -3.074  0.00  0.00    +0.010 A 
ATOM     17  C   UNL     1       9.831  -1.431  -2.617  0.00  0.00    +0.001 A 
ATOM     18  C   UNL     1      10.822  -1.816  -3.509  0.00  0.00    +0.002 A 
ATOM     19  C   UNL     1      10.614  -1.732  -4.869  0.00  0.00    +0.026 A 
ENDBRANCH   6  10
BRANCH   1  20
ATOM     20  C   UNL     1       2.453   1.438  -0.013  0.00  0.00    +0.214 C 
BRANCH  20  24
ATOM     21  C   UNL     1      -0.727   3.357   0.027  0.00  0.00    +0.138 C 
ATOM     22  C   UNL     1       0.787   3.284   0.012  0.00  0.00    +0.251 C 
ATOM     23  O   UNL     1       1.565   4.213   0.010  0.00  0.00    -0.272 OA
ATOM     24  N   UNL     1       1.087   1.970   0.002  0.00  0.00    -0.215 N 
ATOM     25  C   UNL     1      -0.014   1.211   0.009  0.00  0.00    +0.310 C 
ATOM     26  O   UNL     1       0.002  -0.004   0.002  0.00  0.00    -0.252 OA
ATOM     27  N   UNL     1      -1.143   1.944   0.018  0.00  0.00    -0.281 N 
ATOM     28  H   UNL     1      -2.052   1.607   0.019  0.00  0.00    +0.152 HD
BRANCH  21  29
ATOM     29  C   UNL     1      -1.236   4.066  -1.202  0.00  0.00    -0.015 A 
ATOM     30  C   UNL     1      -1.432   5.434  -1.179  0.00  0.00    +0.006 A 
ATOM     31  C   UNL     1      -1.894   6.084  -2.308  0.00  0.00    +0.000 A 
ATOM     32  C   UNL     1      -2.169   5.365  -3.457  0.00  0.00    +0.000 A 
ATOM     33  C   UNL     1      -1.979   3.997  -3.477  0.00  0.00    +0.000 A 
ATOM     34  C   UNL     1      -1.512   3.347  -2.350  0.00  0.00    +0.006 A 
ENDBRANCH  21  29
BRANCH  21  36
ATOM     35  C   UNL     1      -0.735   3.291   2.525  0.00  0.00    +0.007 C 
ATOM     36  C   UNL     1      -1.220   4.059   1.294  0.00  0.00    +0.037 C 
ENDBRANCH  21  36
ENDBRANCH  20  24
ENDBRANCH   1  20
TORSDOF 5
