REMARK  Name = ZINC01984392
REMARK  14 active torsions:
REMARK  status: ('A' for Active; 'I' for Inactive)
REMARK    1  A    between atoms: C_1  and  C_2
REMARK    2  A    between atoms: C_2  and  O_3
REMARK    3  A    between atoms: O_3  and  C_4
REMARK    4  A    between atoms: C_4  and  C_6
REMARK    5  A    between atoms: C_7  and  C_29
REMARK    6  A    between atoms: C_8  and  C_27
REMARK    7  A    between atoms: C_9  and  N_11
REMARK    8  A    between atoms: C_12  and  C_14
REMARK    9  A    between atoms: C_14  and  O_15
REMARK   10  A    between atoms: O_15  and  C_16
REMARK   11  A    between atoms: C_18  and  C_26
REMARK   12  A    between atoms: C_21  and  C_22
REMARK   13  A    between atoms: C_22  and  C_23
REMARK   14  A    between atoms: C_22  and  C_24
REMARK                            x       y       z     vdW  Elec       q    Type
REMARK                         _______ _______ _______ _____ _____    ______ ____
ROOT
ATOM      1  N   UNL     1      -2.512   1.631   0.023  0.00  0.00    -0.276 N 
ATOM      2  C   UNL     1      -3.564   2.474   0.032  0.00  0.00    +0.255 C 
ATOM      3  O   UNL     1      -3.380   3.672   0.038  0.00  0.00    -0.272 OA
ATOM      4  H   UNL     1      -2.679   0.543   0.018  0.00  0.00    +0.155 HD
ENDROOT
BRANCH   1   8
ATOM      5  C   UNL     1       1.052   3.534   0.011  0.00  0.00    +0.102 A 
ATOM      6  C   UNL     1       1.159   2.158   0.003  0.00  0.00    -0.010 A 
ATOM      7  C   UNL     1      -0.017   1.428   0.010  0.00  0.00    +0.084 A 
ATOM      8  C   UNL     1      -1.224   2.132   0.019  0.00  0.00    +0.090 A 
ATOM      9  S   UNL     1      -0.712   3.788   0.029  0.00  0.00    -0.065 S 
ATOM     10  C   UNL     1       2.504   1.477  -0.013  0.00  0.00    +0.046 C 
BRANCH   5  11
ATOM     11  C   UNL     1       2.119   4.534   0.006  0.00  0.00    +0.346 C 
ATOM     12  O   UNL     1       3.283   4.181  -0.008  0.00  0.00    -0.244 OA
BRANCH  11  13
ATOM     13  O   UNL     1       1.812   5.848   0.016  0.00  0.00    -0.461 OA
BRANCH  13  15
ATOM     14  C   UNL     1       2.365   8.201   0.023  0.00  0.00    +0.048 C 
ATOM     15  C   UNL     1       2.905   6.769   0.010  0.00  0.00    +0.229 C 
ENDBRANCH  13  15
ENDBRANCH  11  13
ENDBRANCH   5  11
BRANCH   7  16
ATOM     16  C   UNL     1       0.002  -0.004   0.002  0.00  0.00    +0.102 C 
ATOM     17  N   UNL     1       0.018  -1.140  -0.004  0.00  0.00    -0.191 NA
ENDBRANCH   7  16
ENDBRANCH   1   8
BRANCH   2  18
ATOM     18  C   UNL     1      -4.968   1.927   0.036  0.00  0.00    +0.324 C 
BRANCH  18  19
ATOM     19  O   UNL     1      -5.901   3.010   0.046  0.00  0.00    -0.482 OA
BRANCH  19  20
ATOM     20  C   UNL     1      -7.221   2.687   0.050  0.00  0.00    +0.125 A 
ATOM     21  C   UNL     1      -7.611   1.355   0.045  0.00  0.00    +0.050 A 
ATOM     22  C   UNL     1      -8.953   1.029   0.050  0.00  0.00    -0.033 A 
ATOM     23  C   UNL     1      -9.909   2.029   0.060  0.00  0.00    +0.021 A 
ATOM     24  C   UNL     1      -9.522   3.357   0.066  0.00  0.00    +0.023 A 
ATOM     25  C   UNL     1      -8.181   3.688   0.066  0.00  0.00    -0.002 A 
ATOM     26 BR   UNL     1     -11.745   1.580   0.068  0.00  0.00    -0.050 Br
ATOM     27  C   UNL     1      -9.376  -0.417   0.044  0.00  0.00    +0.045 C 
BRANCH  25  28
ATOM     28  C   UNL     1      -7.761   5.135   0.078  0.00  0.00    +0.016 C 
ATOM     29  C   UNL     1      -8.318   5.838  -1.161  0.00  0.00    +0.012 C 
ATOM     30  C   UNL     1      -8.304   5.813   1.337  0.00  0.00    +0.012 C 
ENDBRANCH  25  28
ENDBRANCH  19  20
ENDBRANCH  18  19
ENDBRANCH   2  18
TORSDOF 9
