REMARK  Name = ZINC67483659
REMARK  1 active torsions:
REMARK  status: ('A' for Active; 'I' for Inactive)
REMARK    1  A    between atoms: C_6  and  C_7
REMARK                            x       y       z     vdW  Elec       q    Type
REMARK                         _______ _______ _______ _____ _____    ______ ____
ROOT
ATOM      1  C   UNL     1      -1.264  -0.762   0.009  0.00  0.00    +0.142 A 
ATOM      2  N   UNL     1      -2.455  -0.087   0.017  0.00  0.00    -0.306 N 
ATOM      3  H   UNL     1      -2.453   0.883   0.018  0.00  0.00    +0.170 HD
ATOM      4  C   UNL     1      -3.629  -0.745   0.024  0.00  0.00    +0.260 A 
ATOM      5  O   UNL     1      -4.682  -0.131   0.031  0.00  0.00    -0.267 OA
ATOM      6  C   UNL     1      -3.623  -2.178   0.023  0.00  0.00    +0.076 A 
ATOM      7  C   UNL     1      -4.777  -3.083   0.034  0.00  0.00    -0.012 A 
ATOM      8  C   UNL     1      -4.493  -4.411   0.022  0.00  0.00    +0.051 A 
ATOM      9  S   UNL     1      -2.727  -4.521   0.013  0.00  0.00    -0.062 S 
ATOM     10  C   UNL     1      -2.357  -2.785   0.014  0.00  0.00    +0.117 A 
ATOM     11  N   UNL     1      -1.234  -2.079   0.002  0.00  0.00    -0.222 NA
ATOM     12  S   UNL     1      -5.655  -5.729   0.009  0.00  0.00    -0.118 S 
ATOM     13  C   UNL     1      -7.214  -4.843   0.349  0.00  0.00    +0.075 C 
ATOM     14  C   UNL     1      -7.196  -3.561  -0.496  0.00  0.00    +0.016 C 
ATOM     15  C   UNL     1      -6.204  -2.556   0.067  0.00  0.00    +0.038 C 
ENDROOT
BRANCH   1  21
ATOM     16  C   UNL     1      -0.017   1.393   0.010  0.00  0.00    +0.015 A 
ATOM     17  C   UNL     1       1.168   2.097   0.002  0.00  0.00    +0.050 A 
ATOM     18  C   UNL     1       2.383   1.424  -0.013  0.00  0.00    +0.162 A 
ATOM     19  C   UNL     1       2.409   0.031  -0.018  0.00  0.00    +0.163 A 
ATOM     20  C   UNL     1       1.224  -0.682  -0.012  0.00  0.00    +0.061 A 
ATOM     21  C   UNL     1       0.002  -0.004   0.002  0.00  0.00    +0.021 A 
ATOM     22  O   UNL     1       3.591  -0.643  -0.025  0.00  0.00    -0.485 OA
ATOM     23  C   UNL     1       4.754   0.101  -0.406  0.00  0.00    +0.270 C 
ATOM     24  C   UNL     1       4.734   1.441   0.342  0.00  0.00    +0.270 C 
ATOM     25  O   UNL     1       3.539   2.140  -0.024  0.00  0.00    -0.485 OA
ENDBRANCH   1  21
TORSDOF 1
