REMARK  Name = ZINC40094299
REMARK  7 active torsions:
REMARK  status: ('A' for Active; 'I' for Inactive)
REMARK    1  A    between atoms: C_3  and  O_8
REMARK    2  A    between atoms: O_8  and  C_9
REMARK    3  A    between atoms: C_10  and  C_15
REMARK    4  A    between atoms: C_15  and  N_16
REMARK    5  A    between atoms: C_17  and  C_19
REMARK    6  A    between atoms: C_19  and  C_20
REMARK    7  A    between atoms: C_20  and  N_21
REMARK                            x       y       z     vdW  Elec       q    Type
REMARK                         _______ _______ _______ _____ _____    ______ ____
ROOT
ATOM      1  N   UNL     1       5.602   4.076   1.531  0.00  0.00    -0.311 N 
ATOM      2  C   UNL     1       5.565   5.399   1.782  0.00  0.00    +0.215 C 
ATOM      3  O   UNL     1       5.814   6.192   0.899  0.00  0.00    -0.276 OA
ATOM      4  H   UNL     1       5.402   3.442   2.237  0.00  0.00    +0.149 HD
ENDROOT
BRANCH   1   5
ATOM      5  C   UNL     1       5.944   3.594   0.190  0.00  0.00    +0.145 C 
BRANCH   5   7
ATOM      6  C   UNL     1       4.707   1.408   0.069  0.00  0.00    +0.225 A 
ATOM      7  C   UNL     1       5.915   2.087   0.175  0.00  0.00    +0.032 A 
ATOM      8  C   UNL     1       7.090   1.363   0.265  0.00  0.00    +0.012 A 
ATOM      9  C   UNL     1       7.016  -0.024   0.247  0.00  0.00    +0.020 A 
ATOM     10  C   UNL     1       5.781  -0.633   0.139  0.00  0.00    +0.114 A 
ATOM     11  N   UNL     1       4.677   0.086   0.060  0.00  0.00    -0.221 NA
BRANCH   6  12
ATOM     12  O   UNL     1       3.548   2.107  -0.021  0.00  0.00    -0.438 OA
BRANCH  12  15
ATOM     13  C   UNL     1       0.698   0.190   1.180  0.00  0.00    +0.006 A 
ATOM     14  C   UNL     1       1.885   0.897   1.175  0.00  0.00    +0.046 A 
ATOM     15  C   UNL     1       2.381   1.411  -0.015  0.00  0.00    +0.133 A 
ATOM     16  C   UNL     1       1.684   1.213  -1.198  0.00  0.00    +0.084 A 
ATOM     17  C   UNL     1       0.496   0.504  -1.189  0.00  0.00    +0.127 A 
ATOM     18  C   UNL     1       0.004  -0.007   0.001  0.00  0.00    +0.038 A 
ATOM     19  F   UNL     1      -0.184   0.311  -2.340  0.00  0.00    -0.205 F 
ENDBRANCH  12  15
ENDBRANCH   6  12
ENDBRANCH   5   7
ENDBRANCH   1   5
BRANCH   2  20
ATOM     20  C   UNL     1       5.213   5.894   3.162  0.00  0.00    +0.115 C 
BRANCH  20  21
ATOM     21  C   UNL     1       5.243   7.424   3.177  0.00  0.00    +0.127 C 
BRANCH  21  22
ATOM     22  N   UNL     1       4.901   7.905   4.518  0.00  0.00    -0.224 N 
ATOM     23  C   UNL     1       3.644   8.173   4.930  0.00  0.00    +0.247 C 
ATOM     24  O   UNL     1       2.622   8.066   4.286  0.00  0.00    -0.273 OA
ATOM     25  C   UNL     1       3.779   8.635   6.363  0.00  0.00    +0.113 C 
ATOM     26  C   UNL     1       3.025   7.696   7.297  0.00  0.00    +0.035 C 
ATOM     27  C   UNL     1       3.199   8.164   8.745  0.00  0.00    +0.003 C 
ATOM     28  C   UNL     1       2.664   9.590   8.886  0.00  0.00    +0.000 C 
ATOM     29  C   UNL     1       3.446  10.524   7.960  0.00  0.00    +0.003 C 
ATOM     30  C   UNL     1       3.272  10.065   6.510  0.00  0.00    +0.035 C 
ATOM     31  N   UNL     1       5.223   8.571   6.624  0.00  0.00    -0.285 N 
ATOM     32  C   UNL     1       5.796   8.129   5.488  0.00  0.00    +0.309 C 
ATOM     33  O   UNL     1       6.991   7.955   5.358  0.00  0.00    -0.252 OA
ATOM     34  H   UNL     1       5.674   8.799   7.452  0.00  0.00    +0.151 HD
ENDBRANCH  21  22
ENDBRANCH  20  21
ENDBRANCH   2  20
TORSDOF 7
