REMARK  Name = ZINC12476011
REMARK  12 active torsions:
REMARK  status: ('A' for Active; 'I' for Inactive)
REMARK    1  A    between atoms: C_1  and  C_2
REMARK    2  A    between atoms: C_10  and  S_12
REMARK    3  A    between atoms: S_12  and  C_13
REMARK    4  A    between atoms: C_13  and  C_14
REMARK    5  A    between atoms: N_16  and  C_17
REMARK    6  A    between atoms: N_16  and  C_21
REMARK    7  A    between atoms: C_17  and  C_18
REMARK    8  A    between atoms: C_18  and  C_19
REMARK    9  A    between atoms: C_18  and  C_20
REMARK   10  A    between atoms: C_22  and  N_37
REMARK   11  A    between atoms: N_23  and  C_30
REMARK   12  A    between atoms: C_30  and  C_31
REMARK                            x       y       z     vdW  Elec       q    Type
REMARK                         _______ _______ _______ _____ _____    ______ ____
ROOT
ATOM      1  C   UNL     1      -0.369  -8.482   1.226  0.00  0.00    +0.230 C 
ATOM      2  O   UNL     1      -0.787  -8.583   2.360  0.00  0.00    -0.274 OA
ATOM      3  N   UNL     1      -0.167  -9.588   0.480  0.00  0.00    -0.263 N 
ENDROOT
BRANCH   3   4
ATOM      4  C   UNL     1      -0.350 -10.866   1.050  0.00  0.00    +0.140 A 
ATOM      5  C   UNL     1       0.411 -11.270   2.128  0.00  0.00    +0.128 A 
ATOM      6  N   UNL     1       0.208 -12.521   2.662  0.00  0.00    -0.276 N 
ATOM      7  C   UNL     1      -0.721 -13.342   2.139  0.00  0.00    +0.331 A 
ATOM      8  O   UNL     1      -0.885 -14.444   2.626  0.00  0.00    -0.246 OA
ATOM      9  N   UNL     1      -1.473 -12.965   1.089  0.00  0.00    -0.273 N 
ATOM     10  H   UNL     1      -2.136 -13.575   0.731  0.00  0.00    +0.173 HD
ATOM     11  C   UNL     1      -1.317 -11.748   0.532  0.00  0.00    +0.277 A 
ATOM     12  O   UNL     1      -2.007 -11.415  -0.416  0.00  0.00    -0.266 OA
BRANCH   5  13
ATOM     13  N   UNL     1       1.360 -10.432   2.662  0.00  0.00    -0.343 N 
ATOM     14  H   UNL     1       1.458  -9.529   2.320  0.00  0.00    +0.144 HD
ATOM     15  H   UNL     1       1.933 -10.743   3.380  0.00  0.00    +0.144 HD
ENDBRANCH   5  13
BRANCH   6  16
ATOM     16  C   UNL     1       1.009 -12.963   3.806  0.00  0.00    +0.163 C 
BRANCH  16  17
ATOM     17  C   UNL     1       0.312 -12.579   5.086  0.00  0.00    -0.028 A 
ATOM     18  C   UNL     1       0.567 -11.352   5.670  0.00  0.00    +0.005 A 
ATOM     19  C   UNL     1      -0.072 -11.000   6.843  0.00  0.00    +0.000 A 
ATOM     20  C   UNL     1      -0.966 -11.874   7.433  0.00  0.00    +0.000 A 
ATOM     21  C   UNL     1      -1.221 -13.100   6.849  0.00  0.00    +0.000 A 
ATOM     22  C   UNL     1      -0.585 -13.451   5.673  0.00  0.00    +0.005 A 
ENDBRANCH  16  17
ENDBRANCH   6  16
ENDBRANCH   3   4
BRANCH   1  23
ATOM     23  C   UNL     1      -0.076  -7.121   0.649  0.00  0.00    +0.173 C 
BRANCH  23  24
ATOM     24  S   UNL     1      -0.446  -5.847   1.887  0.00  0.00    -0.079 S 
BRANCH  24  34
ATOM     25  C   UNL     1       0.878   1.346  -0.528  0.00  0.00    +0.044 C 
ATOM     26  C   UNL     1       0.774  -0.157  -0.500  0.00  0.00    -0.048 A 
ATOM     27  C   UNL     1       1.136  -0.894  -1.618  0.00  0.00    +0.005 A 
ATOM     28  C   UNL     1       1.047  -2.268  -1.609  0.00  0.00    +0.030 A 
ATOM     29  C   UNL     1       0.589  -2.926  -0.464  0.00  0.00    +0.090 A 
ATOM     30  C   UNL     1       0.225  -2.175   0.666  0.00  0.00    +0.067 A 
ATOM     31  C   UNL     1       0.326  -0.792   0.640  0.00  0.00    +0.031 A 
ATOM     32  N   UNL     1      -0.180  -3.091   1.623  0.00  0.00    -0.333 N 
ATOM     33  H   UNL     1      -0.494  -2.887   2.518  0.00  0.00    +0.168 HD
ATOM     34  C   UNL     1      -0.057  -4.335   1.071  0.00  0.00    +0.168 A 
ATOM     35  N   UNL     1       0.396  -4.234  -0.155  0.00  0.00    -0.222 NA
ENDBRANCH  24  34
ENDBRANCH  23  24
ENDBRANCH   1  23
BRANCH   3  36
ATOM     36  C   UNL     1       0.244  -9.463  -0.920  0.00  0.00    +0.117 C 
BRANCH  36  37
ATOM     37  C   UNL     1       1.767  -9.340  -0.996  0.00  0.00    +0.001 C 
ATOM     38  C   UNL     1       2.408 -10.642  -0.511  0.00  0.00    +0.009 C 
ATOM     39  C   UNL     1       2.185  -9.074  -2.444  0.00  0.00    +0.009 C 
ENDBRANCH  36  37
ENDBRANCH   3  36
TORSDOF 9
