REMARK  Name = ZINC67585003
REMARK  11 active torsions:
REMARK  status: ('A' for Active; 'I' for Inactive)
REMARK    1  A    between atoms: C_1  and  C_2
REMARK    2  A    between atoms: C_2  and  C_3
REMARK    3  A    between atoms: C_3  and  C_4
REMARK    4  A    between atoms: N_6  and  C_7
REMARK    5  A    between atoms: C_11  and  N_14
REMARK    6  A    between atoms: C_12  and  C_13
REMARK    7  A    between atoms: N_17  and  C_18
REMARK    8  A    between atoms: C_18  and  C_19
REMARK    9  A    between atoms: C_19  and  C_21
REMARK   10  A    between atoms: C_19  and  N_22
REMARK   11  A    between atoms: C_27  and  C_29
REMARK                            x       y       z     vdW  Elec       q    Type
REMARK                         _______ _______ _______ _____ _____    ______ ____
ROOT
ATOM      1  N   UNL     1       3.850  -6.877  -3.625  0.00  0.00    -0.269 N 
ATOM      2  C   UNL     1       3.437  -8.123  -3.928  0.00  0.00    +0.304 C 
ATOM      3  O   UNL     1       2.506  -8.618  -3.321  0.00  0.00    -0.253 OA
ATOM      4  N   UNL     1       4.054  -8.820  -4.902  0.00  0.00    -0.301 N 
ATOM      5  H   UNL     1       4.631  -6.505  -4.065  0.00  0.00    +0.156 HD
ATOM      6  H   UNL     1       4.796  -8.425  -5.385  0.00  0.00    +0.150 HD
ENDROOT
BRANCH   1  11
ATOM      7  C   UNL     1       2.356  -3.995  -1.888  0.00  0.00    +0.038 A 
ATOM      8  C   UNL     1       1.773  -4.625  -0.795  0.00  0.00    +0.024 A 
ATOM      9  C   UNL     1       1.881  -5.994  -0.646  0.00  0.00    +0.004 A 
ATOM     10  C   UNL     1       2.569  -6.742  -1.583  0.00  0.00    +0.024 A 
ATOM     11  C   UNL     1       3.154  -6.119  -2.678  0.00  0.00    +0.039 A 
ATOM     12  C   UNL     1       3.042  -4.744  -2.833  0.00  0.00    -0.008 A 
ATOM     13  C   UNL     1       3.669  -4.066  -4.024  0.00  0.00    +0.047 C 
BRANCH   7  16
ATOM     14  C   UNL     1       1.222  -1.948  -1.463  0.00  0.00    +0.217 C 
ATOM     15  O   UNL     1       0.341  -2.564  -0.902  0.00  0.00    -0.275 OA
ATOM     16  N   UNL     1       2.245  -2.609  -2.039  0.00  0.00    -0.285 N 
ATOM     17  H   UNL     1       2.906  -2.123  -2.558  0.00  0.00    +0.155 HD
BRANCH  14  18
ATOM     18  C   UNL     1       1.173  -0.442  -1.515  0.00  0.00    +0.096 C 
BRANCH  18  20
ATOM     19  C   UNL     1      -0.132   1.581  -0.845  0.00  0.00    +0.004 C 
ATOM     20  C   UNL     1      -0.081   0.052  -0.792  0.00  0.00    +0.006 C 
ENDBRANCH  18  20
ENDBRANCH  14  18
ENDBRANCH   7  16
ENDBRANCH   1  11
BRANCH   4  21
ATOM     21  C   UNL     1       3.604 -10.175  -5.230  0.00  0.00    +0.090 C 
BRANCH  21  22
ATOM     22  C   UNL     1       4.376 -10.687  -6.449  0.00  0.00    -0.054 C 
ATOM     23  C   UNL     1       4.106 -12.182  -6.631  0.00  0.00    -0.012 C 
BRANCH  22  24
ATOM     24  N   UNL     1       3.936  -9.961  -7.647  0.00  0.00    +0.384 N 
ATOM     25  C   UNL     1       2.478 -10.066  -7.775  0.00  0.00    -0.078 C 
ATOM     26  C   UNL     1       2.024  -9.380  -9.065  0.00  0.00    -0.019 C 
ATOM     27  C   UNL     1       2.428  -7.903  -9.021  0.00  0.00    -0.003 C 
ATOM     28  C   UNL     1       3.942  -7.805  -8.813  0.00  0.00    -0.016 C 
ATOM     29  C   UNL     1       4.325  -8.550  -7.532  0.00  0.00    -0.071 C 
ATOM     30  C   UNL     1       5.838  -8.454  -7.320  0.00  0.00    -0.013 C 
ATOM     31  H   UNL     1       4.373 -10.364  -8.463  0.00  0.00    -0.081 HD
ENDBRANCH  22  24
ENDBRANCH  21  22
ENDBRANCH   4  21
TORSDOF 7
