REMARK  Name = ZINC14621614
REMARK  9 active torsions:
REMARK  status: ('A' for Active; 'I' for Inactive)
REMARK    1  A    between atoms: C_1  and  O_2
REMARK    2  A    between atoms: O_2  and  C_3
REMARK    3  A    between atoms: C_3  and  C_5
REMARK    4  A    between atoms: C_8  and  C_11
REMARK    5  A    between atoms: C_12  and  C_13
REMARK    6  A    between atoms: N_15  and  C_16
REMARK    7  A    between atoms: C_16  and  C_17
REMARK    8  A    between atoms: C_17  and  N_18
REMARK    9  A    between atoms: C_22  and  C_23
REMARK                            x       y       z     vdW  Elec       q    Type
REMARK                         _______ _______ _______ _____ _____    ______ ____
ROOT
ATOM      1  C   UNL     1       2.099 -10.533  -3.095  0.00  0.00    +0.124 C 
ENDROOT
BRANCH   1   4
ATOM      2  C   UNL     1       1.499  -8.548  -1.816  0.00  0.00    +0.237 C 
ATOM      3  O   UNL     1       1.097  -9.277  -0.929  0.00  0.00    -0.271 OA
ATOM      4  N   UNL     1       2.018  -9.079  -2.941  0.00  0.00    -0.310 N 
ATOM      5  H   UNL     1       2.339  -8.497  -3.648  0.00  0.00    +0.149 HD
BRANCH   2   7
ATOM      6  C   UNL     1       0.899  -6.561  -0.538  0.00  0.00    +0.013 C 
ATOM      7  C   UNL     1       1.418  -7.092  -1.662  0.00  0.00    +0.068 C 
BRANCH   6  11
ATOM      8  C   UNL     1       0.667  -2.344  -0.090  0.00  0.00    +0.059 A 
ATOM      9  C   UNL     1       0.204  -3.181   0.929  0.00  0.00    +0.015 A 
ATOM     10  C   UNL     1       0.279  -4.548   0.784  0.00  0.00    +0.009 A 
ATOM     11  C   UNL     1       0.818  -5.099  -0.383  0.00  0.00    -0.025 A 
ATOM     12  C   UNL     1       1.281  -4.261  -1.402  0.00  0.00    +0.009 A 
ATOM     13  C   UNL     1       1.201  -2.894  -1.259  0.00  0.00    +0.015 A 
BRANCH   8  14
ATOM     14  C   UNL     1       0.586  -0.877   0.065  0.00  0.00    +0.339 C 
ATOM     15  O   UNL     1       0.983  -0.149  -0.823  0.00  0.00    -0.245 OA
BRANCH  14  17
ATOM     16  C   UNL     1       0.023   1.079   1.274  0.00  0.00    +0.280 C 
ATOM     17  O   UNL     1       0.071  -0.346   1.191  0.00  0.00    -0.464 OA
ENDBRANCH  14  17
ENDBRANCH   8  14
ENDBRANCH   6  11
ENDBRANCH   2   7
ENDBRANCH   1   4
BRANCH   1  18
ATOM     18  C   UNL     1       2.724 -10.869  -4.451  0.00  0.00    +0.136 C 
BRANCH  18  19
ATOM     19  N   UNL     1       2.804 -12.323  -4.605  0.00  0.00    -0.227 N 
ATOM     20  C   UNL     1       3.886 -12.958  -4.187  0.00  0.00    +0.260 C 
ATOM     21  O   UNL     1       4.818 -12.366  -3.677  0.00  0.00    -0.269 OA
ATOM     22  C   UNL     1       3.905 -14.424  -4.371  0.00  0.00    +0.080 C 
ATOM     23  C   UNL     1       4.866 -15.324  -4.044  0.00  0.00    +0.031 C 
ATOM     24  S   UNL     1       2.314 -14.685  -5.143  0.00  0.00    -0.026 S 
ATOM     25  C   UNL     1       1.770 -12.985  -5.165  0.00  0.00    +0.286 C 
ATOM     26  O   UNL     1       0.723 -12.532  -5.584  0.00  0.00    -0.262 OA
BRANCH  23  27
ATOM     27  C   UNL     1       4.599 -16.763  -4.175  0.00  0.00    +0.011 A 
ATOM     28  C   UNL     1       3.283 -17.230  -4.263  0.00  0.00    +0.011 A 
ATOM     29  C   UNL     1       3.042 -18.581  -4.386  0.00  0.00    +0.001 A 
ATOM     30  C   UNL     1       4.097 -19.478  -4.424  0.00  0.00    +0.003 A 
ATOM     31  C   UNL     1       5.401 -19.027  -4.339  0.00  0.00    +0.039 A 
ATOM     32  C   UNL     1       5.662 -17.675  -4.220  0.00  0.00    +0.131 A 
ATOM     33  F   UNL     1       6.937 -17.235  -4.142  0.00  0.00    -0.205 F 
ENDBRANCH  23  27
ENDBRANCH  18  19
ENDBRANCH   1  18
TORSDOF 8
