REMARK  Name = ZINC00108941
REMARK  5 active torsions:
REMARK  status: ('A' for Active; 'I' for Inactive)
REMARK    1  A    between atoms: C_8  and  C_13
REMARK    2  A    between atoms: C_13  and  C_14
REMARK    3  A    between atoms: N_16  and  C_17
REMARK    4  A    between atoms: C_20  and  O_23
REMARK    5  A    between atoms: O_23  and  C_24
REMARK                            x       y       z     vdW  Elec       q    Type
REMARK                         _______ _______ _______ _____ _____    ______ ____
ROOT
ATOM      1  C   UNL     1      -3.566   3.284   2.125  0.00  0.00    +0.127 C 
ENDROOT
BRANCH   1   9
ATOM      2  C   UNL     1       1.163   3.134   0.023  0.00  0.00    +0.002 A 
ATOM      3  C   UNL     1       1.165   1.751   0.017  0.00  0.00    +0.002 A 
ATOM      4  C   UNL     1      -0.027   1.051   0.020  0.00  0.00    +0.025 A 
ATOM      5  C   UNL     1      -1.232   1.736   0.026  0.00  0.00    +0.055 A 
ATOM      6  C   UNL     1      -1.231   3.132   0.029  0.00  0.00    +0.049 A 
ATOM      7  C   UNL     1      -0.035   3.827   0.029  0.00  0.00    +0.025 A 
ATOM      8  N   UNL     1      -2.458   3.810   0.011  0.00  0.00    -0.331 N 
ATOM      9  C   UNL     1      -3.626   3.149   0.602  0.00  0.00    +0.166 C 
ATOM     10  C   UNL     1      -3.611   1.689   0.224  0.00  0.00    +0.238 C 
ATOM     11  O   UNL     1      -4.659   1.091   0.100  0.00  0.00    -0.273 OA
ATOM     12  N   UNL     1      -2.448   1.044   0.023  0.00  0.00    -0.282 N 
ATOM     13  H   UNL     1      -2.536   4.691  -0.388  0.00  0.00    +0.147 HD
ATOM     14  H   UNL     1      -2.452   0.085  -0.126  0.00  0.00    +0.155 HD
ENDBRANCH   1   9
BRANCH   1  15
ATOM     15  C   UNL     1      -3.704   4.736   2.506  0.00  0.00    +0.219 C 
ATOM     16  O   UNL     1      -3.838   5.579   1.645  0.00  0.00    -0.275 OA
ATOM     17  N   UNL     1      -3.680   5.096   3.804  0.00  0.00    -0.285 N 
ATOM     18  H   UNL     1      -3.641   4.417   4.496  0.00  0.00    +0.155 HD
BRANCH  17  19
ATOM     19  C   UNL     1      -3.711   6.452   4.155  0.00  0.00    +0.034 A 
ATOM     20  C   UNL     1      -3.008   6.899   5.266  0.00  0.00    +0.027 A 
ATOM     21  C   UNL     1      -3.035   8.236   5.608  0.00  0.00    +0.047 A 
ATOM     22  C   UNL     1      -3.774   9.132   4.849  0.00  0.00    +0.127 A 
ATOM     23  C   UNL     1      -4.481   8.686   3.742  0.00  0.00    +0.047 A 
ATOM     24  C   UNL     1      -4.450   7.350   3.396  0.00  0.00    +0.027 A 
BRANCH  22  25
ATOM     25  O   UNL     1      -3.804  10.448   5.190  0.00  0.00    -0.434 OA
BRANCH  25  26
ATOM     26  C   UNL     1      -3.053  10.838   6.341  0.00  0.00    +0.541 C 
ATOM     27  F   UNL     1      -3.526  10.148   7.463  0.00  0.00    -0.166 F 
ATOM     28  F   UNL     1      -1.702  10.532   6.142  0.00  0.00    -0.166 F 
ENDBRANCH  25  26
ENDBRANCH  22  25
ENDBRANCH  17  19
ENDBRANCH   1  15
TORSDOF 5
