REMARK  Name = ZINC12628161
REMARK  9 active torsions:
REMARK  status: ('A' for Active; 'I' for Inactive)
REMARK    1  A    between atoms: C_1  and  N_2
REMARK    2  A    between atoms: N_2  and  C_3
REMARK    3  A    between atoms: N_2  and  S_4
REMARK    4  A    between atoms: S_4  and  C_7
REMARK    5  A    between atoms: C_14  and  C_17
REMARK    6  A    between atoms: C_17  and  N_61
REMARK    7  A    between atoms: C_23  and  C_25
REMARK    8  A    between atoms: C_28  and  O_31
REMARK    9  A    between atoms: O_31  and  C_32
REMARK                            x       y       z     vdW  Elec       q    Type
REMARK                         _______ _______ _______ _____ _____    ______ ____
ROOT
ATOM      1  C   UNL     1      -0.691   2.819   2.182  0.00  0.00    -0.002 C 
ENDROOT
BRANCH   1   9
ATOM      2  C   UNL     1      -0.562   7.644   5.750  0.00  0.00    +0.108 A 
ATOM      3  C   UNL     1      -1.761   7.143   6.238  0.00  0.00    +0.030 A 
ATOM      4  C   UNL     1      -2.288   5.974   5.732  0.00  0.00    +0.030 A 
ATOM      5  C   UNL     1      -1.613   5.294   4.728  0.00  0.00    +0.066 A 
ATOM      6  C   UNL     1      -0.399   5.801   4.234  0.00  0.00    +0.091 A 
ATOM      7  C   UNL     1       0.116   6.988   4.761  0.00  0.00    +0.058 A 
ATOM      8  N   UNL     1       0.029   4.939   3.276  0.00  0.00    -0.234 NA
ATOM      9  C   UNL     1      -0.826   3.966   3.149  0.00  0.00    +0.091 A 
ATOM     10  N   UNL     1      -1.856   4.133   4.022  0.00  0.00    -0.343 N 
ATOM     11  H   UNL     1      -2.644   3.526   4.132  0.00  0.00    +0.167 HD
BRANCH   2  12
ATOM     12  S   UNL     1       0.093   9.140   6.412  0.00  0.00    +0.060 S 
ATOM     13  O   UNL     1       0.943   9.687   5.414  0.00  0.00    -0.153 OA
ATOM     14  O   UNL     1      -1.006   9.858   6.955  0.00  0.00    -0.153 OA
BRANCH  12  16
ATOM     15  C   UNL     1       2.488   8.457   7.466  0.00  0.00    +0.131 C 
ATOM     16  N   UNL     1       1.065   8.727   7.687  0.00  0.00    -0.183 NA
ATOM     17  C   UNL     1       0.502   8.631   9.036  0.00  0.00    +0.131 C 
ENDBRANCH  12  16
ENDBRANCH   2  12
ENDBRANCH   1   9
BRANCH   1  24
ATOM     18  C   UNL     1      -2.479   3.990   1.032  0.00  0.00    -0.077 C 
ATOM     19  C   UNL     1      -2.585   4.944  -0.132  0.00  0.00    -0.019 C 
ATOM     20  C   UNL     1      -3.442   4.360  -1.268  0.00  0.00    -0.002 C 
ATOM     21  C   UNL     1      -3.153   2.863  -1.496  0.00  0.00    -0.001 C 
ATOM     22  C   UNL     1      -1.683   2.538  -1.423  0.00  0.00    -0.011 C 
ATOM     23  C   UNL     1      -1.333   2.113   0.020  0.00  0.00    -0.037 C 
ATOM     24  N   UNL     1      -1.191   3.247   0.863  0.00  0.00    +0.389 N 
ATOM     25  H   UNL     1      -0.505   3.881   0.437  0.00  0.00    -0.080 HD
BRANCH  23  26
ATOM     26  C   UNL     1      -0.017   1.378   0.010  0.00  0.00    -0.061 A 
ATOM     27  C   UNL     1       1.170   2.088   0.002  0.00  0.00    +0.005 A 
ATOM     28  C   UNL     1       2.377   1.417  -0.013  0.00  0.00    +0.046 A 
ATOM     29  C   UNL     1       2.399   0.030  -0.021  0.00  0.00    +0.120 A 
ATOM     30  C   UNL     1       1.207  -0.680  -0.013  0.00  0.00    +0.046 A 
ATOM     31  C   UNL     1       0.002  -0.004   0.002  0.00  0.00    +0.005 A 
BRANCH  29  32
ATOM     32  O   UNL     1       3.586  -0.632  -0.035  0.00  0.00    -0.495 OA
ATOM     33  C   UNL     1       4.772   0.164  -0.042  0.00  0.00    +0.277 C 
ENDBRANCH  29  32
ENDBRANCH  23  26
ENDBRANCH   1  24
TORSDOF 6
