REMARK  Name = ZINC01445468
REMARK  9 active torsions:
REMARK  status: ('A' for Active; 'I' for Inactive)
REMARK    1  A    between atoms: C_1  and  C_2
REMARK    2  A    between atoms: N_8  and  O_19
REMARK    3  A    between atoms: C_9  and  C_11
REMARK    4  A    between atoms: O_19  and  C_20
REMARK    5  A    between atoms: C_20  and  C_21
REMARK    6  A    between atoms: C_21  and  C_23
REMARK    7  A    between atoms: C_21  and  O_31
REMARK    8  A    between atoms: C_23  and  O_24
REMARK    9  A    between atoms: O_24  and  C_25
REMARK                            x       y       z     vdW  Elec       q    Type
REMARK                         _______ _______ _______ _____ _____    ______ ____
ROOT
ATOM      1  C   UNL     1       4.536  -2.913  -1.921  0.00  0.00    +0.109 C 
ATOM      2  C   UNL     1       3.605  -2.437  -0.836  0.00  0.00    +0.215 C 
ATOM      3  O   UNL     1       4.047  -1.841   0.124  0.00  0.00    -0.276 OA
ATOM      4  N   UNL     1       2.282  -2.673  -0.931  0.00  0.00    -0.268 N 
ATOM      5  C   UNL     1       1.596  -3.463  -1.964  0.00  0.00    +0.208 C 
ATOM      6  C   UNL     1       0.127  -3.425  -1.628  0.00  0.00    +0.258 C 
ATOM      7  O   UNL     1      -0.753  -3.969  -2.261  0.00  0.00    -0.272 OA
ATOM      8  N   UNL     1      -0.053  -2.694  -0.516  0.00  0.00    -0.154 N 
ATOM      9  C   UNL     1       1.231  -2.195  -0.025  0.00  0.00    +0.226 C 
ENDROOT
BRANCH   9  10
ATOM     10  C   UNL     1       1.219  -0.688  -0.009  0.00  0.00    +0.011 A 
ATOM     11  C   UNL     1       1.689   0.018  -1.101  0.00  0.00    +0.010 A 
ATOM     12  C   UNL     1       1.678   1.400  -1.088  0.00  0.00    +0.020 A 
ATOM     13  C   UNL     1       1.197   2.078   0.019  0.00  0.00    +0.042 A 
ATOM     14  C   UNL     1       0.727   1.372   1.111  0.00  0.00    +0.040 A 
ATOM     15  C   UNL     1       0.738  -0.011   1.097  0.00  0.00    +0.049 A 
ATOM     16 CL   UNL     1       0.149  -0.898   2.468  0.00  0.00    -0.083 Cl
ATOM     17 CL   UNL     1       1.185   3.814   0.036  0.00  0.00    -0.083 Cl
ENDBRANCH   9  10
BRANCH   8  18
ATOM     18  O   UNL     1      -1.306  -2.442   0.093  0.00  0.00    -0.272 OA
BRANCH  18  19
ATOM     19  C   UNL     1      -2.015  -1.337  -0.471  0.00  0.00    +0.225 C 
BRANCH  19  20
ATOM     20  C   UNL     1      -3.400  -1.238   0.172  0.00  0.00    +0.180 C 
BRANCH  20  21
ATOM     21  O   UNL     1      -3.259  -0.928   1.560  0.00  0.00    -0.386 OA
ATOM     22  H   UNL     1      -2.804  -0.092   1.732  0.00  0.00    +0.210 HD
ENDBRANCH  20  21
BRANCH  20  23
ATOM     23  C   UNL     1      -4.205  -0.135  -0.518  0.00  0.00    +0.262 C 
BRANCH  23  24
ATOM     24  O   UNL     1      -5.535  -0.119   0.003  0.00  0.00    -0.489 OA
BRANCH  24  25
ATOM     25  C   UNL     1      -6.387   0.809  -0.507  0.00  0.00    +0.121 A 
ATOM     26  C   UNL     1      -5.949   1.690  -1.485  0.00  0.00    +0.045 A 
ATOM     27  C   UNL     1      -6.819   2.628  -2.007  0.00  0.00    +0.004 A 
ATOM     28  C   UNL     1      -8.120   2.698  -1.546  0.00  0.00    +0.000 A 
ATOM     29  C   UNL     1      -8.558   1.824  -0.568  0.00  0.00    +0.004 A 
ATOM     30  C   UNL     1      -7.694   0.880  -0.047  0.00  0.00    +0.045 A 
ENDBRANCH  24  25
ENDBRANCH  23  24
ENDBRANCH  20  23
ENDBRANCH  19  20
ENDBRANCH  18  19
ENDBRANCH   8  18
TORSDOF 8
