REMARK  Name = ZINC44392981
REMARK  10 active torsions:
REMARK  status: ('A' for Active; 'I' for Inactive)
REMARK    1  A    between atoms: C_1  and  C_2
REMARK    2  A    between atoms: C_2  and  O_3
REMARK    3  A    between atoms: O_3  and  C_4
REMARK    4  A    between atoms: C_7  and  C_10
REMARK    5  A    between atoms: N_15  and  C_17
REMARK    6  A    between atoms: C_17  and  C_19
REMARK    7  A    between atoms: C_17  and  C_20
REMARK    8  A    between atoms: N_22  and  C_23
REMARK    9  A    between atoms: C_26  and  C_30
REMARK   10  A    between atoms: C_28  and  C_29
REMARK                            x       y       z     vdW  Elec       q    Type
REMARK                         _______ _______ _______ _____ _____    ______ ____
ROOT
ATOM      1  C   UNL     1       1.105  -6.035  -1.839  0.00  0.00    +0.092 A 
ATOM      2  C   UNL     1       0.547  -6.908  -0.876  0.00  0.00    +0.035 A 
ATOM      3  C   UNL     1       0.664  -8.252  -1.079  0.00  0.00    +0.074 A 
ATOM      4  C   UNL     1       1.338  -8.689  -2.240  0.00  0.00    +0.268 A 
ATOM      5  O   UNL     1       1.468  -9.882  -2.464  0.00  0.00    -0.266 OA
ATOM      6  N   UNL     1       1.837  -7.780  -3.100  0.00  0.00    -0.217 N 
ATOM      7  N   UNL     1       1.713  -6.519  -2.897  0.00  0.00    -0.168 NA
ENDROOT
BRANCH   1  11
ATOM      8  C   UNL     1       0.798  -1.826  -1.312  0.00  0.00    +0.121 A 
ATOM      9  C   UNL     1       0.255  -2.684  -0.365  0.00  0.00    +0.046 A 
ATOM     10  C   UNL     1       0.353  -4.049  -0.533  0.00  0.00    +0.013 A 
ATOM     11  C   UNL     1       0.998  -4.567  -1.655  0.00  0.00    +0.002 A 
ATOM     12  C   UNL     1       1.542  -3.703  -2.604  0.00  0.00    +0.013 A 
ATOM     13  C   UNL     1       1.437  -2.339  -2.433  0.00  0.00    +0.046 A 
BRANCH   8  14
ATOM     14  O   UNL     1       0.700  -0.481  -1.144  0.00  0.00    -0.492 OA
BRANCH  14  16
ATOM     15  C   UNL     1       0.019   1.508   0.048  0.00  0.00    +0.048 C 
ATOM     16  C   UNL     1       0.031  -0.022   0.032  0.00  0.00    +0.225 C 
ENDBRANCH  14  16
ENDBRANCH   8  14
ENDBRANCH   1  11
BRANCH   6  17
ATOM     17  C   UNL     1       2.534  -8.244  -4.302  0.00  0.00    +0.194 C 
ATOM     18  C   UNL     1       3.972  -7.721  -4.290  0.00  0.00    +0.043 C 
BRANCH  17  19
ATOM     19  C   UNL     1       1.822  -7.729  -5.526  0.00  0.00    +0.242 C 
ATOM     20  O   UNL     1       0.830  -7.042  -5.406  0.00  0.00    -0.273 OA
ATOM     21  N   UNL     1       2.288  -8.031  -6.754  0.00  0.00    -0.284 N 
ATOM     22  H   UNL     1       3.125  -8.512  -6.850  0.00  0.00    +0.155 HD
BRANCH  21  23
ATOM     23  C   UNL     1       1.565  -7.652  -7.890  0.00  0.00    +0.036 A 
ATOM     24  C   UNL     1       0.194  -7.448  -7.805  0.00  0.00    +0.024 A 
ATOM     25  C   UNL     1      -0.518  -7.074  -8.928  0.00  0.00    +0.005 A 
ATOM     26  C   UNL     1       0.134  -6.902 -10.136  0.00  0.00    -0.050 A 
ATOM     27  C   UNL     1       1.499  -7.105 -10.223  0.00  0.00    +0.008 A 
ATOM     28  C   UNL     1       2.217  -7.473  -9.102  0.00  0.00    -0.029 A 
ATOM     29  C   UNL     1       3.706  -7.686  -9.197  0.00  0.00    +0.045 C 
ATOM     30  C   UNL     1      -0.645  -6.494 -11.360  0.00  0.00    +0.044 C 
ENDBRANCH  21  23
ENDBRANCH  17  19
ENDBRANCH   6  17
TORSDOF 6
