REMARK  Name = ZINC21131236
REMARK  9 active torsions:
REMARK  status: ('A' for Active; 'I' for Inactive)
REMARK    1  A    between atoms: C_1  and  C_2
REMARK    2  A    between atoms: C_2  and  O_3
REMARK    3  A    between atoms: O_3  and  C_4
REMARK    4  A    between atoms: C_4  and  C_6
REMARK    5  A    between atoms: C_10  and  N_11
REMARK    6  A    between atoms: C_12  and  C_14
REMARK    7  A    between atoms: C_14  and  C_16
REMARK    8  A    between atoms: C_14  and  N_17
REMARK    9  A    between atoms: C_20  and  C_23
REMARK                            x       y       z     vdW  Elec       q    Type
REMARK                         _______ _______ _______ _____ _____    ______ ____
ROOT
ATOM      1  N   UNL     1      -1.289   1.180   4.958  0.00  0.00    -0.281 N 
ATOM      2  C   UNL     1      -2.065   1.842   5.838  0.00  0.00    +0.204 C 
ATOM      3  O   UNL     1      -2.759   2.763   5.463  0.00  0.00    -0.277 OA
ATOM      4  H   UNL     1      -0.660   0.344   5.299  0.00  0.00    +0.155 HD
ENDROOT
BRANCH   1   9
ATOM      5  C   UNL     1      -0.558   0.998   2.576  0.00  0.00    +0.091 A 
ATOM      6  C   UNL     1      -0.732   1.580   1.257  0.00  0.00    -0.021 A 
ATOM      7  C   UNL     1      -1.601   2.614   1.194  0.00  0.00    -0.004 A 
ATOM      8  S   UNL     1      -2.178   2.821   2.855  0.00  0.00    -0.077 S 
ATOM      9  C   UNL     1      -1.283   1.552   3.623  0.00  0.00    +0.086 A 
ATOM     10  C   UNL     1      -1.979   3.405  -0.021  0.00  0.00    +0.043 C 
ATOM     11  C   UNL     1      -0.956   3.111  -1.127  0.00  0.00    +0.005 C 
ATOM     12  C   UNL     1      -0.758   1.595  -1.227  0.00  0.00    +0.005 C 
ATOM     13  C   UNL     1      -0.013   1.086   0.008  0.00  0.00    +0.037 C 
BRANCH   5  14
ATOM     14  C   UNL     1       0.350  -0.130   2.793  0.00  0.00    +0.342 C 
ATOM     15  O   UNL     1      -0.061  -1.270   2.694  0.00  0.00    -0.245 OA
BRANCH  14  16
ATOM     16  O   UNL     1       1.643   0.096   3.104  0.00  0.00    -0.461 OA
BRANCH  16  18
ATOM     17  C   UNL     1       3.907  -0.617   3.648  0.00  0.00    +0.048 C 
ATOM     18  C   UNL     1       2.486  -1.069   3.306  0.00  0.00    +0.229 C 
ENDBRANCH  16  18
ENDBRANCH  14  16
ENDBRANCH   5  14
ENDBRANCH   1   9
BRANCH   2  19
ATOM     19  C   UNL     1      -2.072   1.437   7.290  0.00  0.00    +0.016 C 
ATOM     20  C   UNL     1      -0.661   1.576   7.864  0.00  0.00    -0.004 C 
BRANCH  19  21
ATOM     21  N   UNL     1      -2.992   2.305   8.036  0.00  0.00    +0.387 N 
ATOM     22  C   UNL     1      -2.571   3.710   7.957  0.00  0.00    -0.077 C 
ATOM     23  C   UNL     1      -3.626   4.599   8.619  0.00  0.00    -0.006 C 
ATOM     24  C   UNL     1      -3.795   4.179  10.082  0.00  0.00    +0.071 C 
ATOM     25  C   UNL     1      -4.186   2.700  10.138  0.00  0.00    -0.006 C 
ATOM     26  C   UNL     1      -3.115   1.866   9.432  0.00  0.00    -0.077 C 
ATOM     27  H   UNL     1      -3.986   2.227   7.571  0.00  0.00    -0.081 HD
BRANCH  24  28
ATOM     28  C   UNL     1      -4.875   5.010  10.725  0.00  0.00    +0.213 C 
ATOM     29  O   UNL     1      -5.861   4.474  11.183  0.00  0.00    -0.276 OA
ATOM     30  N   UNL     1      -4.744   6.350  10.790  0.00  0.00    -0.329 N 
ATOM     31  H   UNL     1      -5.533   6.957  11.259  0.00  0.00    +0.145 HD
ATOM     32  H   UNL     1      -3.850   6.837  10.374  0.00  0.00    +0.145 HD
ENDBRANCH  24  28
ENDBRANCH  19  21
ENDBRANCH   2  19
TORSDOF 7
