REMARK  Name = ZINC05098766
REMARK  10 active torsions:
REMARK  status: ('A' for Active; 'I' for Inactive)
REMARK    1  A    between atoms: C_1  and  N_2
REMARK    2  A    between atoms: N_2  and  C_3
REMARK    3  A    between atoms: N_2  and  C_4
REMARK    4  A    between atoms: C_7  and  C_10
REMARK    5  A    between atoms: C_10  and  C_12
REMARK    6  A    between atoms: C_10  and  N_65
REMARK    7  A    between atoms: C_12  and  N_13
REMARK    8  A    between atoms: C_14  and  C_16
REMARK    9  A    between atoms: C_16  and  C_17
REMARK   10  A    between atoms: C_17  and  C_18
REMARK                            x       y       z     vdW  Elec       q    Type
REMARK                         _______ _______ _______ _____ _____    ______ ____
ROOT
ATOM      1  C   UNL     1      -0.586  -7.262   6.324  0.00  0.00    -0.020 C 
ENDROOT
BRANCH   1  11
ATOM      2  C   UNL     1      -1.646  -8.765   7.901  0.00  0.00    -0.073 C 
ATOM      3  C   UNL     1      -2.154  -8.820   9.342  0.00  0.00    +0.017 C 
ATOM      4  C   UNL     1      -3.287  -7.843   9.526  0.00  0.00    -0.048 A 
ATOM      5  C   UNL     1      -4.107  -7.984  10.635  0.00  0.00    +0.004 A 
ATOM      6  C   UNL     1      -5.151  -7.105  10.846  0.00  0.00    +0.000 A 
ATOM      7  C   UNL     1      -5.379  -6.080   9.946  0.00  0.00    +0.000 A 
ATOM      8  C   UNL     1      -4.564  -5.941   8.841  0.00  0.00    +0.002 A 
ATOM      9  C   UNL     1      -3.516  -6.824   8.627  0.00  0.00    -0.061 A 
ATOM     10  C   UNL     1      -2.656  -6.634   7.405  0.00  0.00    -0.042 C 
ATOM     11  N   UNL     1      -1.381  -7.351   7.569  0.00  0.00    +0.388 N 
ATOM     12  H   UNL     1      -0.851  -6.920   8.336  0.00  0.00    -0.080 HD
ENDBRANCH   1  11
BRANCH   1  16
ATOM     13  C   UNL     1      -1.658 -10.425   3.657  0.00  0.00    +0.029 A 
ATOM     14  C   UNL     1      -0.418 -10.432   4.283  0.00  0.00    +0.023 A 
ATOM     15  C   UNL     1      -0.075  -9.409   5.144  0.00  0.00    +0.004 A 
ATOM     16  C   UNL     1      -0.964  -8.377   5.384  0.00  0.00    -0.059 A 
ATOM     17  C   UNL     1      -2.201  -8.369   4.767  0.00  0.00    +0.004 A 
ATOM     18  C   UNL     1      -2.549  -9.387   3.900  0.00  0.00    +0.023 A 
BRANCH  13  20
ATOM     19  C   UNL     1      -1.025 -12.484   2.433  0.00  0.00    +0.129 C 
ATOM     20  N   UNL     1      -2.009 -11.459   2.786  0.00  0.00    -0.336 N 
ATOM     21  C   UNL     1      -3.361 -11.517   2.226  0.00  0.00    +0.129 C 
ENDBRANCH  13  20
ENDBRANCH   1  16
BRANCH   1  22
ATOM     22  C   UNL     1      -0.847  -5.914   5.648  0.00  0.00    +0.093 C 
BRANCH  22  23
ATOM     23  N   UNL     1      -0.593  -4.832   6.602  0.00  0.00    -0.317 N 
ATOM     24  C   UNL     1      -0.759  -3.549   6.226  0.00  0.00    +0.213 C 
ATOM     25  O   UNL     1      -1.119  -3.290   5.097  0.00  0.00    -0.276 OA
ATOM     26  H   UNL     1      -0.305  -5.039   7.505  0.00  0.00    +0.149 HD
BRANCH  24  27
ATOM     27  C   UNL     1      -0.498  -2.435   7.207  0.00  0.00    +0.100 C 
BRANCH  27  28
ATOM     28  C   UNL     1      -0.759  -1.088   6.531  0.00  0.00    +0.044 C 
BRANCH  28  29
ATOM     29  C   UNL     1      -0.498   0.026   7.513  0.00  0.00    -0.047 A 
ATOM     30  C   UNL     1      -1.522   0.496   8.313  0.00  0.00    +0.003 A 
ATOM     31  C   UNL     1      -1.281   1.514   9.217  0.00  0.00    +0.000 A 
ATOM     32  C   UNL     1      -0.018   2.068   9.313  0.00  0.00    +0.000 A 
ATOM     33  C   UNL     1       1.005   1.602   8.509  0.00  0.00    +0.000 A 
ATOM     34  C   UNL     1       0.765   0.580   7.609  0.00  0.00    +0.003 A 
ENDBRANCH  28  29
ENDBRANCH  27  28
ENDBRANCH  24  27
ENDBRANCH  22  23
ENDBRANCH   1  22
TORSDOF 8
