REMARK  Name = ZINC00499889
REMARK  7 active torsions:
REMARK  status: ('A' for Active; 'I' for Inactive)
REMARK    1  A    between atoms: C_1  and  C_2
REMARK    2  A    between atoms: C_2  and  C_3
REMARK    3  A    between atoms: C_2  and  C_4
REMARK    4  A    between atoms: C_2  and  C_5
REMARK    5  A    between atoms: C_12  and  N_28
REMARK    6  A    between atoms: C_13  and  C_26
REMARK    7  A    between atoms: C_14  and  C_16
REMARK                            x       y       z     vdW  Elec       q    Type
REMARK                         _______ _______ _______ _____ _____    ______ ____
ROOT
ATOM      1  C   UNL     1       0.760  -0.547  -2.001  0.00  0.00    +0.049 A 
ATOM      2  C   UNL     1       0.837  -1.839  -2.351  0.00  0.00    +0.050 A 
ATOM      3  C   UNL     1       1.532  -1.922  -3.577  0.00  0.00    +0.245 A 
ATOM      4  N   UNL     1       1.855  -0.715  -3.939  0.00  0.00    -0.135 NA
ATOM      5  N   UNL     1       1.376   0.176  -2.966  0.00  0.00    -0.277 N 
ATOM      6  H   UNL     1       1.471   1.141  -2.980  0.00  0.00    +0.189 HD
ATOM      7  O   UNL     1       1.774  -3.112  -4.190  0.00  0.00    -0.421 OA
ATOM      8  C   UNL     1       1.572  -4.234  -3.470  0.00  0.00    +0.201 C 
ATOM      9  C   UNL     1       0.912  -4.279  -2.294  0.00  0.00    +0.098 C 
ATOM     10  C   UNL     1       0.311  -3.061  -1.640  0.00  0.00    +0.102 C 
ENDROOT
BRANCH  10  11
ATOM     11  C   UNL     1      -1.190  -3.110  -1.757  0.00  0.00    -0.024 A 
ATOM     12  C   UNL     1      -1.804  -2.995  -2.972  0.00  0.00    +0.025 A 
ATOM     13  C   UNL     1      -3.194  -3.044  -3.055  0.00  0.00    +0.112 A 
ATOM     14  N   UNL     1      -3.944  -3.199  -1.992  0.00  0.00    -0.255 NA
ATOM     15  C   UNL     1      -3.407  -3.318  -0.774  0.00  0.00    +0.071 A 
ATOM     16  C   UNL     1      -1.999  -3.283  -0.618  0.00  0.00    +0.004 A 
ATOM     17  C   UNL     1      -1.439  -3.414   0.663  0.00  0.00    +0.010 A 
ATOM     18  C   UNL     1      -2.256  -3.579   1.740  0.00  0.00    +0.001 A 
ATOM     19  C   UNL     1      -3.640  -3.619   1.589  0.00  0.00    +0.002 A 
ATOM     20  C   UNL     1      -4.217  -3.483   0.364  0.00  0.00    +0.028 A 
ENDBRANCH  10  11
BRANCH   1  22
ATOM     21  C   UNL     1       0.378   1.504  -0.661  0.00  0.00    +0.017 C 
ATOM     22  C   UNL     1       0.103   0.003  -0.761  0.00  0.00    +0.004 C 
ATOM     23  C   UNL     1       0.669  -0.704   0.472  0.00  0.00    +0.017 C 
ATOM     24  C   UNL     1      -1.407  -0.236  -0.837  0.00  0.00    +0.017 C 
ENDBRANCH   1  22
BRANCH   8  25
ATOM     25  N   UNL     1       2.071  -5.411  -3.969  0.00  0.00    -0.328 N 
ATOM     26  H   UNL     1       2.551  -5.416  -4.812  0.00  0.00    +0.145 HD
ATOM     27  H   UNL     1       1.945  -6.238  -3.478  0.00  0.00    +0.145 HD
ENDBRANCH   8  25
BRANCH   9  28
ATOM     28  C   UNL     1       0.777  -5.544  -1.636  0.00  0.00    +0.101 C 
ATOM     29  N   UNL     1       0.669  -6.547  -1.114  0.00  0.00    -0.191 NA
ENDBRANCH   9  28
TORSDOF 4
