REMARK  Name = ZINC64277590
REMARK  9 active torsions:
REMARK  status: ('A' for Active; 'I' for Inactive)
REMARK    1  A    between atoms: C_1  and  C_2
REMARK    2  A    between atoms: C_2  and  C_3
REMARK    3  A    between atoms: C_2  and  C_4
REMARK    4  A    between atoms: C_7  and  C_10
REMARK    5  A    between atoms: N_29  and  C_32
REMARK    6  A    between atoms: C_34  and  C_40
REMARK    7  A    between atoms: C_34  and  C_41
REMARK    8  A    between atoms: C_36  and  C_38
REMARK    9  A    between atoms: C_36  and  C_39
REMARK                            x       y       z     vdW  Elec       q    Type
REMARK                         _______ _______ _______ _____ _____    ______ ____
ROOT
ATOM      1  C   UNL     1      -6.228  -0.757   0.082  0.00  0.00    +0.133 C 
ATOM      2  C   UNL     1      -6.261  -2.163   0.688  0.00  0.00    +0.131 C 
ATOM      3  C   UNL     1      -7.625  -2.752   0.353  0.00  0.00    -0.034 C 
ATOM      4  C   UNL     1      -8.173  -3.110   1.508  0.00  0.00    -0.001 A 
ATOM      5  C   UNL     1      -9.437  -3.794   1.823  0.00  0.00    +0.010 A 
ATOM      6  C   UNL     1      -9.698  -3.997   3.141  0.00  0.00    +0.001 A 
ATOM      7  C   UNL     1      -8.837  -3.591   4.166  0.00  0.00    +0.002 A 
ATOM      8  C   UNL     1      -7.652  -2.961   3.969  0.00  0.00    +0.026 A 
ATOM      9  C   UNL     1      -7.266  -2.697   2.623  0.00  0.00    +0.043 A 
ATOM     10  N   UNL     1      -6.171  -2.131   2.149  0.00  0.00    -0.375 N 
ATOM     11  C   UNL     1      -8.166  -2.788  -1.055  0.00  0.00    +0.065 C 
ATOM     12  C   UNL     1      -8.005  -1.366  -1.623  0.00  0.00    +0.167 C 
ATOM     13  N   UNL     1      -6.668  -0.863  -1.327  0.00  0.00    -0.279 N 
ATOM     14  C   UNL     1      -5.808  -0.490  -2.282  0.00  0.00    +0.234 C 
ATOM     15  O   UNL     1      -4.712  -0.105  -1.934  0.00  0.00    -0.274 OA
ATOM     16  C   UNL     1      -6.103  -0.513  -3.746  0.00  0.00    +0.204 C 
ATOM     17  N   UNL     1      -7.448  -0.985  -4.028  0.00  0.00    -0.288 N 
ATOM     18  C   UNL     1      -8.306  -1.373  -3.086  0.00  0.00    +0.237 C 
ATOM     19  O   UNL     1      -9.403  -1.750  -3.438  0.00  0.00    -0.274 OA
ATOM     20  H   UNL     1      -5.441  -1.755   2.665  0.00  0.00    +0.160 HD
ENDROOT
BRANCH  17  21
ATOM     21  C   UNL     1      -7.884  -1.042  -5.429  0.00  0.00    +0.074 C 
ATOM     22  C   UNL     1      -6.933  -1.948  -6.215  0.00  0.00    +0.009 C 
ATOM     23  C   UNL     1      -7.367  -2.007  -7.679  0.00  0.00    -0.072 C 
ATOM     24  N   UNL     1      -7.490  -0.682  -8.269  0.00  0.00    +0.386 N 
ATOM     25  C   UNL     1      -8.204   0.332  -7.509  0.00  0.00    -0.072 C 
ATOM     26  C   UNL     1      -7.819   0.360  -6.034  0.00  0.00    +0.009 C 
ATOM     27  C   UNL     1      -9.721   0.181  -7.650  0.00  0.00    -0.010 C 
ATOM     28  C   UNL     1      -7.831   1.709  -8.107  0.00  0.00    -0.010 C 
ATOM     29  C   UNL     1      -8.653  -2.820  -7.817  0.00  0.00    -0.010 C 
ATOM     30  C   UNL     1      -6.262  -2.762  -8.454  0.00  0.00    -0.010 C 
ATOM     31  H   UNL     1      -6.550  -0.331  -8.468  0.00  0.00    -0.084 HD
ATOM     32  H   UNL     1      -7.940  -0.777  -9.182  0.00  0.00    -0.084 HD
ENDBRANCH  17  21
BRANCH   1  36
ATOM     33  C   UNL     1      -2.252   0.798   0.242  0.00  0.00    -0.045 A 
ATOM     34  C   UNL     1      -2.458  -0.559   0.071  0.00  0.00    +0.004 A 
ATOM     35  C   UNL     1      -3.744  -1.062   0.020  0.00  0.00    +0.006 A 
ATOM     36  C   UNL     1      -4.825  -0.208   0.139  0.00  0.00    -0.025 A 
ATOM     37  C   UNL     1      -4.620   1.148   0.310  0.00  0.00    +0.006 A 
ATOM     38  C   UNL     1      -3.333   1.650   0.366  0.00  0.00    +0.004 A 
BRANCH  33  40
ATOM     39  C   UNL     1      -0.097   0.703   1.465  0.00  0.00    +0.012 C 
ATOM     40  C   UNL     1      -0.850   1.346   0.298  0.00  0.00    +0.013 C 
ATOM     41  C   UNL     1      -0.125   1.029  -1.012  0.00  0.00    +0.012 C 
ENDBRANCH  33  40
ENDBRANCH   1  36
TORSDOF 3
