REMARK  Name = ZINC36245359
REMARK  5 active torsions:
REMARK  status: ('A' for Active; 'I' for Inactive)
REMARK    1  A    between atoms: N_7  and  C_8
REMARK    2  A    between atoms: C_8  and  C_10
REMARK    3  A    between atoms: C_8  and  C_21
REMARK    4  A    between atoms: C_19  and  O_20
REMARK    5  A    between atoms: C_26  and  O_27
REMARK                            x       y       z     vdW  Elec       q    Type
REMARK                         _______ _______ _______ _____ _____    ______ ____
ROOT
ATOM      1  C   UNL     1       0.018  -2.819  -0.015  0.00  0.00    +0.139 C 
ENDROOT
BRANCH   1   2
ATOM      2  C   UNL     1       0.145  -4.266   0.386  0.00  0.00    +0.021 A 
ATOM      3  C   UNL     1       0.182  -5.250  -0.598  0.00  0.00    +0.010 A 
ATOM      4  C   UNL     1       0.297  -6.566  -0.269  0.00  0.00    +0.010 A 
ATOM      5  C   UNL     1       0.380  -6.941   1.083  0.00  0.00    +0.004 A 
ATOM      6  C   UNL     1       0.499  -8.291   1.462  0.00  0.00    +0.011 A 
ATOM      7  C   UNL     1       0.575  -8.582   2.794  0.00  0.00    +0.020 A 
ATOM      8  C   UNL     1       0.533  -7.553   3.733  0.00  0.00    +0.111 A 
ATOM      9  N   UNL     1       0.421  -6.297   3.376  0.00  0.00    -0.251 NA
ATOM     10  C   UNL     1       0.343  -5.946   2.089  0.00  0.00    +0.113 A 
ATOM     11  C   UNL     1       0.229  -4.591   1.710  0.00  0.00    +0.148 A 
BRANCH  11  12
ATOM     12  O   UNL     1       0.196  -3.617   2.656  0.00  0.00    -0.504 OA
ATOM     13  H   UNL     1      -0.696  -3.351   2.916  0.00  0.00    +0.292 HD
ENDBRANCH  11  12
ENDBRANCH   1   2
BRANCH   1  20
ATOM     14  C   UNL     1       0.301   1.333   0.517  0.00  0.00    +0.005 A 
ATOM     15  C   UNL     1       1.558   1.912   0.630  0.00  0.00    +0.018 A 
ATOM     16  C   UNL     1       2.680   1.110   0.565  0.00  0.00    +0.084 A 
ATOM     17  N   UNL     1       2.570  -0.195   0.398  0.00  0.00    -0.350 N 
ATOM     18  C   UNL     1       1.389  -0.783   0.285  0.00  0.00    +0.097 A 
ATOM     19  C   UNL     1       0.217  -0.036   0.342  0.00  0.00    +0.041 A 
ATOM     20  N   UNL     1       1.321  -2.160   0.110  0.00  0.00    -0.319 N 
ATOM     21  H   UNL     1       2.135  -2.686   0.070  0.00  0.00    +0.148 HD
ATOM     22  H   UNL     1       3.374  -0.735   0.355  0.00  0.00    +0.166 HD
ENDBRANCH   1  20
BRANCH   1  23
ATOM     23  C   UNL     1      -0.453  -2.733  -1.444  0.00  0.00    +0.020 A 
ATOM     24  C   UNL     1       0.465  -2.604  -2.468  0.00  0.00    +0.029 A 
ATOM     25  C   UNL     1       0.033  -2.525  -3.780  0.00  0.00    +0.042 A 
ATOM     26  C   UNL     1      -1.319  -2.577  -4.069  0.00  0.00    +0.023 A 
ATOM     27  C   UNL     1      -2.240  -2.707  -3.049  0.00  0.00    +0.047 A 
ATOM     28  C   UNL     1      -1.809  -2.791  -1.732  0.00  0.00    +0.122 A 
ATOM     29 CL   UNL     1       1.189  -2.362  -5.065  0.00  0.00    -0.084 Cl
BRANCH  28  30
ATOM     30  O   UNL     1      -2.713  -2.925  -0.727  0.00  0.00    -0.506 OA
ATOM     31  H   UNL     1      -3.027  -2.084  -0.366  0.00  0.00    +0.292 HD
ENDBRANCH  28  30
ENDBRANCH   1  23
TORSDOF 5
