REMARK  Name = ZINC46079333
REMARK  8 active torsions:
REMARK  status: ('A' for Active; 'I' for Inactive)
REMARK    1  A    between atoms: C_1  and  C_2
REMARK    2  A    between atoms: C_2  and  C_3
REMARK    3  A    between atoms: N_5  and  C_6
REMARK    4  A    between atoms: C_8  and  C_24
REMARK    5  A    between atoms: N_10  and  C_13
REMARK    6  A    between atoms: C_13  and  C_14
REMARK    7  A    between atoms: N_16  and  C_17
REMARK    8  A    between atoms: C_22  and  C_23
REMARK                            x       y       z     vdW  Elec       q    Type
REMARK                         _______ _______ _______ _____ _____    ______ ____
ROOT
ATOM      1  C   UNL     1       1.476  -2.383  -2.462  0.00  0.00    +0.102 A 
ATOM      2  C   UNL     1       2.064  -1.531  -3.352  0.00  0.00    +0.059 A 
ATOM      3  C   UNL     1       2.763  -2.053  -4.460  0.00  0.00    +0.093 A 
ATOM      4  N   UNL     1       2.852  -3.352  -4.641  0.00  0.00    -0.168 NA
ATOM      5  N   UNL     1       2.257  -4.244  -3.741  0.00  0.00    -0.218 N 
ATOM      6  C   UNL     1       1.586  -3.781  -2.668  0.00  0.00    +0.289 A 
ATOM      7  O   UNL     1       1.072  -4.560  -1.882  0.00  0.00    -0.264 OA
ENDROOT
BRANCH   3   8
ATOM      8  C   UNL     1       3.403  -1.129  -5.428  0.00  0.00    +0.002 A 
ATOM      9  C   UNL     1       3.318   0.249  -5.241  0.00  0.00    +0.011 A 
ATOM     10  C   UNL     1       3.915   1.104  -6.144  0.00  0.00    +0.020 A 
ATOM     11  C   UNL     1       4.597   0.595  -7.236  0.00  0.00    +0.041 A 
ATOM     12  C   UNL     1       4.684  -0.774  -7.427  0.00  0.00    +0.020 A 
ATOM     13  C   UNL     1       4.096  -1.637  -6.526  0.00  0.00    +0.011 A 
ATOM     14 CL   UNL     1       5.345   1.676  -8.370  0.00  0.00    -0.084 Cl
ENDBRANCH   3   8
BRANCH   1  17
ATOM     15  C   UNL     1      -0.517  -2.203  -1.179  0.00  0.00    +0.217 C 
ATOM     16  O   UNL     1      -1.103  -2.854  -2.018  0.00  0.00    -0.275 OA
ATOM     17  N   UNL     1       0.780  -1.883  -1.359  0.00  0.00    -0.281 N 
ATOM     18  H   UNL     1       1.230  -1.305  -0.723  0.00  0.00    +0.155 HD
BRANCH  15  20
ATOM     19  C   UNL     1      -2.687  -2.245   0.021  0.00  0.00    +0.013 C 
ATOM     20  C   UNL     1      -1.239  -1.752   0.065  0.00  0.00    +0.093 C 
ENDBRANCH  15  20
ENDBRANCH   1  17
BRANCH   5  21
ATOM     21  C   UNL     1       2.370  -5.687  -3.964  0.00  0.00    +0.243 C 
BRANCH  21  22
ATOM     22  C   UNL     1       1.212  -6.157  -4.807  0.00  0.00    +0.239 C 
ATOM     23  O   UNL     1       0.376  -5.364  -5.184  0.00  0.00    -0.273 OA
ATOM     24  N   UNL     1       1.107  -7.458  -5.141  0.00  0.00    -0.284 N 
ATOM     25  H   UNL     1       1.736  -8.104  -4.783  0.00  0.00    +0.155 HD
BRANCH  24  26
ATOM     26  C   UNL     1       0.090  -7.878  -6.005  0.00  0.00    +0.036 A 
ATOM     27  C   UNL     1      -1.147  -7.246  -5.985  0.00  0.00    +0.023 A 
ATOM     28  C   UNL     1      -2.148  -7.663  -6.839  0.00  0.00    +0.002 A 
ATOM     29  C   UNL     1      -1.922  -8.710  -7.714  0.00  0.00    +0.000 A 
ATOM     30  C   UNL     1      -0.693  -9.342  -7.737  0.00  0.00    +0.005 A 
ATOM     31  C   UNL     1       0.316  -8.925  -6.889  0.00  0.00    -0.029 A 
ATOM     32  C   UNL     1       1.658  -9.610  -6.920  0.00  0.00    +0.045 C 
ENDBRANCH  24  26
ENDBRANCH  21  22
ENDBRANCH   5  21
TORSDOF 6
