REMARK  Name = ZINC42080119
REMARK  3 active torsions:
REMARK  status: ('A' for Active; 'I' for Inactive)
REMARK    1  A    between atoms: C_1  and  C_2
REMARK    2  A    between atoms: C_8  and  N_10
REMARK    3  A    between atoms: N_10  and  C_11
REMARK                            x       y       z     vdW  Elec       q    Type
REMARK                         _______ _______ _______ _____ _____    ______ ____
ROOT
ATOM      1  C   UNL     1      -1.324  -0.546   2.461  0.00  0.00    +0.049 C 
ATOM      2  C   UNL     1      -2.089   0.023   3.633  0.00  0.00    -0.030 A 
ATOM      3  C   UNL     1      -2.426   1.307   3.998  0.00  0.00    +0.004 A 
ATOM      4  C   UNL     1      -3.150   1.529   5.156  0.00  0.00    +0.001 A 
ATOM      5  C   UNL     1      -3.533   0.459   5.944  0.00  0.00    +0.017 A 
ATOM      6  C   UNL     1      -3.196  -0.830   5.581  0.00  0.00    +0.039 A 
ATOM      7  C   UNL     1      -2.467  -1.061   4.415  0.00  0.00    +0.049 A 
ATOM      8  N   UNL     1      -2.012  -2.250   3.845  0.00  0.00    -0.285 N 
ATOM      9  C   UNL     1      -1.336  -2.041   2.699  0.00  0.00    +0.208 C 
ATOM     10  O   UNL     1      -0.831  -2.887   1.992  0.00  0.00    -0.277 OA
ATOM     11 BR   UNL     1      -3.725  -2.284   6.668  0.00  0.00    -0.048 Br
ATOM     12  H   UNL     1      -2.166  -3.128   4.228  0.00  0.00    +0.155 HD
ENDROOT
BRANCH   1  13
ATOM     13  N   UNL     1       0.054  -0.037   2.450  0.00  0.00    +0.391 N 
ATOM     14  H   UNL     1       0.524  -0.322   3.296  0.00  0.00    -0.084 HD
ATOM     15  H   UNL     1       0.041   0.970   2.395  0.00  0.00    -0.084 HD
BRANCH  13  22
ATOM     16  C   UNL     1       0.237   1.489  -0.007  0.00  0.00    +0.006 C 
ATOM     17  C   UNL     1       0.139  -0.038   0.003  0.00  0.00    -0.028 C 
ATOM     18  C   UNL     1       0.882  -0.605  -1.209  0.00  0.00    +0.002 C 
ATOM     19  C   UNL     1       2.353  -0.188  -1.145  0.00  0.00    +0.000 C 
ATOM     20  C   UNL     1       2.982  -0.731   0.139  0.00  0.00    -0.002 C 
ATOM     21  C   UNL     1       2.239  -0.164   1.351  0.00  0.00    -0.015 C 
ATOM     22  C   UNL     1       0.768  -0.581   1.287  0.00  0.00    -0.067 C 
ENDBRANCH  13  22
ENDBRANCH   1  13
TORSDOF 2
