REMARK  Name = ZINC18190885
REMARK  5 active torsions:
REMARK  status: ('A' for Active; 'I' for Inactive)
REMARK    1  A    between atoms: C_6  and  C_7
REMARK    2  A    between atoms: N_8  and  N_9
REMARK    3  A    between atoms: C_10  and  S_12
REMARK    4  A    between atoms: S_12  and  C_13
REMARK    5  A    between atoms: N_18  and  C_21
REMARK                            x       y       z     vdW  Elec       q    Type
REMARK                         _______ _______ _______ _____ _____    ______ ____
ROOT
ATOM      1  S   UNL     1      -3.933  -5.062   0.014  0.00  0.00    -0.078 S 
ENDROOT
BRANCH   1   2
ATOM      2  C   UNL     1      -3.406  -6.797  -0.001  0.00  0.00    +0.149 C 
ATOM      3  C   UNL     1      -4.626  -7.736   0.078  0.00  0.00    +0.120 C 
ATOM      4  C   UNL     1      -4.554  -8.521  -1.213  0.00  0.00    +0.228 C 
ATOM      5  O   UNL     1      -5.337  -9.381  -1.558  0.00  0.00    -0.275 OA
ATOM      6  N   UNL     1      -3.489  -8.116  -1.916  0.00  0.00    -0.208 N 
ATOM      7  C   UNL     1      -2.768  -7.149  -1.327  0.00  0.00    +0.240 C 
ATOM      8  O   UNL     1      -1.768  -6.637  -1.783  0.00  0.00    -0.274 OA
BRANCH   6   9
ATOM      9  C   UNL     1      -3.153  -8.658  -3.165  0.00  0.00    +0.064 A 
ATOM     10  C   UNL     1      -3.656  -8.091  -4.327  0.00  0.00    +0.045 A 
ATOM     11  C   UNL     1      -3.322  -8.627  -5.557  0.00  0.00    +0.043 A 
ATOM     12  C   UNL     1      -2.487  -9.729  -5.629  0.00  0.00    +0.021 A 
ATOM     13  C   UNL     1      -1.984 -10.295  -4.473  0.00  0.00    +0.023 A 
ATOM     14  C   UNL     1      -2.310  -9.760  -3.241  0.00  0.00    +0.063 A 
ATOM     15 CL   UNL     1      -1.673 -10.468  -1.790  0.00  0.00    -0.082 Cl
ATOM     16 CL   UNL     1      -3.951  -7.919  -7.012  0.00  0.00    -0.083 Cl
ENDBRANCH   6   9
ENDBRANCH   1   2
BRANCH   1  18
ATOM     17  N   UNL     1      -2.444  -2.779   0.011  0.00  0.00    -0.217 N 
ATOM     18  C   UNL     1      -2.422  -4.156   0.004  0.00  0.00    +0.146 C 
ATOM     19  N   UNL     1      -1.282  -4.790  -0.011  0.00  0.00    -0.380 N 
ATOM     20  H   UNL     1      -1.266  -5.760  -0.016  0.00  0.00    +0.158 HD
ATOM     21  H   UNL     1      -3.292  -2.308   0.022  0.00  0.00    +0.176 HD
ATOM     22  H   UNL     1      -0.450  -4.292  -0.017  0.00  0.00    +0.158 HD
BRANCH  17  24
ATOM     23  C   UNL     1      -1.263  -0.762   0.011  0.00  0.00    +0.138 C 
ATOM     24  N   UNL     1      -1.242  -2.059   0.003  0.00  0.00    -0.188 NA
BRANCH  23  30
ATOM     25  C   UNL     1      -0.017   1.393   0.010  0.00  0.00    +0.011 A 
ATOM     26  C   UNL     1       1.170   2.095   0.002  0.00  0.00    +0.020 A 
ATOM     27  C   UNL     1       2.378   1.419  -0.013  0.00  0.00    +0.041 A 
ATOM     28  C   UNL     1       2.404   0.035  -0.021  0.00  0.00    +0.020 A 
ATOM     29  C   UNL     1       1.224  -0.680  -0.014  0.00  0.00    +0.011 A 
ATOM     30  C   UNL     1       0.002  -0.004   0.002  0.00  0.00    -0.005 A 
ATOM     31 CL   UNL     1       3.868   2.311  -0.022  0.00  0.00    -0.084 Cl
ENDBRANCH  23  30
ENDBRANCH  17  24
ENDBRANCH   1  18
TORSDOF 5
