REMARK  Name = ZINC13059835
REMARK  5 active torsions:
REMARK  status: ('A' for Active; 'I' for Inactive)
REMARK    1  A    between atoms: C_2  and  C_23
REMARK    2  A    between atoms: N_8  and  N_9
REMARK    3  A    between atoms: N_9  and  S_10
REMARK    4  A    between atoms: S_10  and  C_13
REMARK    5  A    between atoms: C_15  and  C_21
REMARK                            x       y       z     vdW  Elec       q    Type
REMARK                         _______ _______ _______ _____ _____    ______ ____
ROOT
ATOM      1  N   UNL     1      -1.272   6.943   1.491  0.00  0.00    -0.109 NA
ATOM      2  H   UNL     1      -1.886   6.723   2.209  0.00  0.00    +0.172 HD
ENDROOT
BRANCH   1  10
ATOM      3  C   UNL     1       0.208  11.306   2.874  0.00  0.00    +0.037 A 
ATOM      4  C   UNL     1      -1.122  11.624   3.113  0.00  0.00    +0.074 A 
ATOM      5  C   UNL     1      -2.097  10.677   2.875  0.00  0.00    +0.125 A 
ATOM      6  N   UNL     1      -1.780   9.477   2.425  0.00  0.00    -0.237 NA
ATOM      7  C   UNL     1      -0.524   9.135   2.185  0.00  0.00    +0.152 A 
ATOM      8  C   UNL     1       0.511  10.039   2.408  0.00  0.00    +0.082 A 
ATOM      9 CL   UNL     1       2.158   9.585   2.100  0.00  0.00    -0.080 Cl
ATOM     10  N   UNL     1      -0.236   7.859   1.712  0.00  0.00    -0.245 N 
ATOM     11  H   UNL     1       0.683   7.604   1.535  0.00  0.00    +0.169 HD
BRANCH   4  12
ATOM     12  C   UNL     1      -1.498  12.991   3.626  0.00  0.00    +0.419 C 
ATOM     13  F   UNL     1      -2.886  13.064   3.784  0.00  0.00    -0.166 F 
ATOM     14  F   UNL     1      -0.876  13.213   4.859  0.00  0.00    -0.166 F 
ATOM     15  F   UNL     1      -1.081  13.963   2.711  0.00  0.00    -0.166 F 
ENDBRANCH   4  12
ENDBRANCH   1  10
BRANCH   1  16
ATOM     16  S   UNL     1      -1.450   6.237   0.003  0.00  0.00    +0.075 S 
ATOM     17  O   UNL     1      -2.644   5.468   0.059  0.00  0.00    -0.152 OA
ATOM     18  O   UNL     1      -0.191   5.667  -0.328  0.00  0.00    -0.152 OA
BRANCH  16  19
ATOM     19  C   UNL     1      -1.738   7.532  -1.157  0.00  0.00    +0.126 A 
ATOM     20  C   UNL     1      -0.822   7.773  -2.159  0.00  0.00    +0.046 A 
ATOM     21  C   UNL     1      -1.050   8.800  -3.078  0.00  0.00    +0.083 A 
ATOM     22  C   UNL     1      -2.206   9.580  -2.971  0.00  0.00    +0.057 A 
ATOM     23  C   UNL     1      -3.118   9.323  -1.968  0.00  0.00    +0.042 A 
ATOM     24  C   UNL     1      -2.884   8.304  -1.060  0.00  0.00    +0.069 A 
ATOM     25 CL   UNL     1      -4.032   7.992   0.204  0.00  0.00    -0.081 Cl
ATOM     26 CL   UNL     1      -2.497  10.863  -4.104  0.00  0.00    -0.083 Cl
BRANCH  21  27
ATOM     27  C   UNL     1      -0.074   9.064  -4.152  0.00  0.00    +0.388 C 
ATOM     28  O   UNL     1      -0.275   9.958  -4.950  0.00  0.00    -0.241 OA
ATOM     29  O   UNL     1       1.042   8.314  -4.248  0.00  0.00    -0.241 OA
ENDBRANCH  21  27
ENDBRANCH  16  19
ENDBRANCH   1  16
TORSDOF 5
