REMARK  Name = ZINC01077307
REMARK  7 active torsions:
REMARK  status: ('A' for Active; 'I' for Inactive)
REMARK    1  A    between atoms: C_1  and  C_2
REMARK    2  A    between atoms: C_2  and  O_3
REMARK    3  A    between atoms: O_3  and  C_4
REMARK    4  A    between atoms: C_7  and  C_12
REMARK    5  A    between atoms: C_9  and  O_10
REMARK    6  A    between atoms: O_10  and  C_11
REMARK    7  A    between atoms: C_17  and  C_27
REMARK                            x       y       z     vdW  Elec       q    Type
REMARK                         _______ _______ _______ _____ _____    ______ ____
ROOT
ATOM      1  C   UNL     1       6.610  -1.738   1.490  0.00  0.00    +0.032 C 
ATOM      2  C   UNL     1       5.137  -1.891   1.114  0.00  0.00    +0.059 C 
ATOM      3  C   UNL     1       4.547  -0.531   0.779  0.00  0.00    +0.017 C 
ATOM      4  C   UNL     1       4.973   0.569   1.422  0.00  0.00    +0.036 C 
ATOM      5  C   UNL     1       4.452   1.972   1.218  0.00  0.00    +0.136 C 
ATOM      6  N   UNL     1       3.601   2.131   0.058  0.00  0.00    -0.331 N 
ATOM      7  C   UNL     1       2.373   1.480  -0.028  0.00  0.00    +0.049 A 
ATOM      8  C   UNL     1       1.179   2.185  -0.019  0.00  0.00    +0.025 A 
ATOM      9  C   UNL     1      -0.020   1.494  -0.030  0.00  0.00    +0.002 A 
ATOM     10  C   UNL     1      -0.031   0.111  -0.057  0.00  0.00    +0.002 A 
ATOM     11  C   UNL     1       1.159  -0.596  -0.093  0.00  0.00    +0.025 A 
ATOM     12  C   UNL     1       2.358   0.094  -0.085  0.00  0.00    +0.052 A 
ATOM     13  N   UNL     1       3.587  -0.551  -0.180  0.00  0.00    -0.316 N 
ATOM     14  C   UNL     1       6.008   0.478   2.382  0.00  0.00    +0.163 C 
ATOM     15  O   UNL     1       6.360   1.488   2.960  0.00  0.00    -0.292 OA
ATOM     16  C   UNL     1       6.686  -0.817   2.713  0.00  0.00    +0.088 C 
ATOM     17  H   UNL     1       3.891   2.700  -0.673  0.00  0.00    +0.147 HD
ATOM     18  H   UNL     1       3.772  -1.050  -0.991  0.00  0.00    +0.152 HD
ENDROOT
BRANCH   5  19
ATOM     19  C   UNL     1       3.671   2.376   2.442  0.00  0.00    -0.019 A 
ATOM     20  C   UNL     1       4.109   3.429   3.224  0.00  0.00    +0.009 A 
ATOM     21  C   UNL     1       3.394   3.805   4.345  0.00  0.00    +0.050 A 
ATOM     22  C   UNL     1       2.241   3.121   4.694  0.00  0.00    +0.166 A 
ATOM     23  C   UNL     1       1.803   2.057   3.910  0.00  0.00    +0.167 A 
ATOM     24  C   UNL     1       2.522   1.688   2.785  0.00  0.00    +0.055 A 
ATOM     25  O   UNL     1       0.659   1.553   4.459  0.00  0.00    -0.453 OA
ATOM     26  C   UNL     1       0.178   2.575   5.352  0.00  0.00    +0.466 C 
ATOM     27  O   UNL     1       1.372   3.284   5.734  0.00  0.00    -0.453 OA
ENDBRANCH   5  19
BRANCH   1  31
ATOM     28  C   UNL     1       8.261  -5.563   2.456  0.00  0.00    +0.162 A 
ATOM     29  C   UNL     1       7.171  -5.078   3.161  0.00  0.00    +0.050 A 
ATOM     30  C   UNL     1       6.643  -3.839   2.850  0.00  0.00    +0.008 A 
ATOM     31  C   UNL     1       7.193  -3.086   1.829  0.00  0.00    -0.040 A 
ATOM     32  C   UNL     1       8.281  -3.564   1.122  0.00  0.00    +0.053 A 
ATOM     33  C   UNL     1       8.818  -4.803   1.432  0.00  0.00    +0.162 A 
BRANCH  33  34
ATOM     34  O   UNL     1       9.889  -5.275   0.738  0.00  0.00    -0.491 OA
ATOM     35  C   UNL     1      10.408  -4.440  -0.299  0.00  0.00    +0.277 C 
ENDBRANCH  33  34
BRANCH  28  36
ATOM     36  O   UNL     1       8.785  -6.779   2.764  0.00  0.00    -0.489 OA
BRANCH  36  38
ATOM     37  C   UNL     1       8.884  -8.838   4.027  0.00  0.00    +0.048 C 
ATOM     38  C   UNL     1       8.162  -7.504   3.827  0.00  0.00    +0.226 C 
ENDBRANCH  36  38
ENDBRANCH  28  36
ENDBRANCH   1  31
TORSDOF 5
