REMARK  Name = ZINC08185111
REMARK  6 active torsions:
REMARK  status: ('A' for Active; 'I' for Inactive)
REMARK    1  A    between atoms: C_1  and  C_2
REMARK    2  A    between atoms: C_2  and  C_3
REMARK    3  A    between atoms: C_3  and  N_4
REMARK    4  A    between atoms: N_4  and  C_5
REMARK    5  A    between atoms: C_11  and  C_13
REMARK    6  A    between atoms: C_13  and  N_14
REMARK                            x       y       z     vdW  Elec       q    Type
REMARK                         _______ _______ _______ _____ _____    ______ ____
ROOT
ATOM      1  N   UNL     1      -1.657  -3.219  -3.470  0.00  0.00    -0.215 N 
ATOM      2  C   UNL     1      -0.599  -3.823  -4.047  0.00  0.00    +0.251 C 
ATOM      3  O   UNL     1       0.576  -3.605  -3.837  0.00  0.00    -0.272 OA
ATOM      4  C   UNL     1      -1.184  -4.831  -5.011  0.00  0.00    +0.138 C 
ATOM      5  C   UNL     1      -0.763  -6.242  -4.620  0.00  0.00    +0.040 C 
ATOM      6  C   UNL     1       0.723  -6.415  -4.960  0.00  0.00    +0.008 C 
ATOM      7  C   UNL     1       0.874  -6.426  -6.479  0.00  0.00    +0.035 C 
ATOM      8  C   UNL     1       0.183  -5.237  -7.093  0.00  0.00    -0.042 A 
ATOM      9  C   UNL     1      -0.769  -4.505  -6.418  0.00  0.00    -0.012 A 
ATOM     10  C   UNL     1      -1.377  -3.424  -7.044  0.00  0.00    +0.006 A 
ATOM     11  C   UNL     1      -1.030  -3.075  -8.333  0.00  0.00    +0.000 A 
ATOM     12  C   UNL     1      -0.071  -3.806  -9.008  0.00  0.00    +0.000 A 
ATOM     13  C   UNL     1       0.531  -4.882  -8.389  0.00  0.00    +0.004 A 
ATOM     14  N   UNL     1      -2.636  -4.668  -4.856  0.00  0.00    -0.281 N 
ATOM     15  C   UNL     1      -2.815  -3.707  -3.929  0.00  0.00    +0.310 C 
ATOM     16  O   UNL     1      -3.906  -3.324  -3.556  0.00  0.00    -0.252 OA
ATOM     17  H   UNL     1      -3.329  -5.158  -5.325  0.00  0.00    +0.152 HD
ENDROOT
BRANCH   1  18
ATOM     18  C   UNL     1      -1.552  -2.163  -2.459  0.00  0.00    +0.214 C 
BRANCH  18  20
ATOM     19  N   UNL     1      -1.413  -1.998   0.005  0.00  0.00    -0.274 N 
ATOM     20  C   UNL     1      -1.510  -2.783  -1.087  0.00  0.00    +0.237 C 
ATOM     21  O   UNL     1      -1.562  -3.989  -0.964  0.00  0.00    -0.274 OA
BRANCH  19  22
ATOM     22  C   UNL     1      -1.265  -2.573   1.264  0.00  0.00    +0.010 C 
ATOM     23  C   UNL     1      -2.224  -2.404   2.132  0.00  0.00    -0.008 C 
ATOM     24  C   UNL     1      -2.198  -2.954   3.528  0.00  0.00    +0.029 C 
ATOM     25  C   UNL     1      -1.143  -4.057   3.640  0.00  0.00    +0.004 C 
ATOM     26  C   UNL     1       0.172  -3.533   3.050  0.00  0.00    +0.006 C 
ATOM     27  C   UNL     1      -0.014  -3.355   1.540  0.00  0.00    +0.051 C 
ENDBRANCH  19  22
BRANCH  19  28
ATOM     28  C   UNL     1      -1.465  -0.541  -0.134  0.00  0.00    +0.113 C 
BRANCH  28  30
ATOM     29  C   UNL     1      -0.096   1.537  -0.357  0.00  0.00    +0.005 C 
ATOM     30  C   UNL     1      -0.042   0.015  -0.212  0.00  0.00    +0.016 C 
ENDBRANCH  28  30
ENDBRANCH  19  28
ENDBRANCH  18  20
ENDBRANCH   1  18
TORSDOF 5
