REMARK  Name = ZINC39344674
REMARK  14 active torsions:
REMARK  status: ('A' for Active; 'I' for Inactive)
REMARK    1  A    between atoms: C_1  and  C_2
REMARK    2  A    between atoms: C_2  and  C_3
REMARK    3  A    between atoms: C_2  and  C_4
REMARK    4  A    between atoms: C_2  and  C_5
REMARK    5  A    between atoms: C_5  and  N_6
REMARK    6  A    between atoms: N_6  and  C_7
REMARK    7  A    between atoms: N_13  and  C_31
REMARK    8  A    between atoms: C_14  and  C_27
REMARK    9  A    between atoms: C_16  and  N_18
REMARK   10  A    between atoms: C_19  and  C_21
REMARK   11  A    between atoms: C_27  and  O_29
REMARK   12  A    between atoms: O_29  and  C_30
REMARK   13  A    between atoms: C_31  and  C_32
REMARK   14  A    between atoms: C_32  and  C_33
REMARK                            x       y       z     vdW  Elec       q    Type
REMARK                         _______ _______ _______ _____ _____    ______ ____
ROOT
ATOM      1  C   UNL     1       2.949  -0.311  -2.328  0.00  0.00    +0.044 A 
ATOM      2  C   UNL     1       4.262   0.160  -2.348  0.00  0.00    +0.033 A 
ATOM      3  C   UNL     1       5.068  -0.184  -3.416  0.00  0.00    +0.015 A 
ATOM      4  C   UNL     1       4.568  -0.981  -4.436  0.00  0.00    +0.105 A 
ATOM      5  N   UNL     1       3.308  -1.409  -4.378  0.00  0.00    -0.348 N 
ATOM      6  C   UNL     1       2.510  -1.108  -3.374  0.00  0.00    +0.107 A 
ATOM      7  N   UNL     1       5.529  -1.216  -5.418  0.00  0.00    -0.301 N 
ATOM      8  C   UNL     1       6.784  -0.545  -5.069  0.00  0.00    +0.208 C 
ATOM      9  C   UNL     1       6.506   0.157  -3.729  0.00  0.00    +0.138 C 
ATOM     10  H   UNL     1       2.967  -1.966  -5.096  0.00  0.00    +0.167 HD
ENDROOT
BRANCH   9  11
ATOM     11  N   UNL     1       7.394  -0.362  -2.686  0.00  0.00    -0.306 N 
ATOM     12  C   UNL     1       7.637   0.371  -1.581  0.00  0.00    +0.219 C 
ATOM     13  O   UNL     1       7.120   1.460  -1.450  0.00  0.00    -0.275 OA
ATOM     14  H   UNL     1       7.808  -1.234  -2.790  0.00  0.00    +0.149 HD
BRANCH  12  15
ATOM     15  C   UNL     1       8.550  -0.164  -0.508  0.00  0.00    +0.103 C 
ATOM     16  C   UNL     1       8.710   0.871   0.632  0.00  0.00    +0.043 C 
ATOM     17  C   UNL     1      10.219   0.755   0.968  0.00  0.00    +0.160 C 
ATOM     18  O   UNL     1      10.835   0.547  -0.322  0.00  0.00    -0.379 OA
ATOM     19  C   UNL     1       9.978  -0.347  -1.058  0.00  0.00    +0.172 C 
ENDBRANCH  12  15
ENDBRANCH   9  11
BRANCH   1  20
ATOM     20  N   UNL     1       2.093   0.010  -1.267  0.00  0.00    -0.342 N 
ATOM     21  H   UNL     1       2.409   0.568  -0.540  0.00  0.00    +0.146 HD
BRANCH  20  22
ATOM     22  C   UNL     1       0.718  -0.497  -1.257  0.00  0.00    +0.107 C 
BRANCH  22  24
ATOM     23  C   UNL     1      -0.019   1.526   0.010  0.00  0.00    +0.012 C 
ATOM     24  C   UNL     1       0.002  -0.004   0.002  0.00  0.00    -0.022 C 
ATOM     25  C   UNL     1       0.742  -0.511   1.242  0.00  0.00    +0.012 C 
ATOM     26  C   UNL     1      -1.433  -0.534   0.013  0.00  0.00    +0.012 C 
ENDBRANCH  22  24
ENDBRANCH  20  22
ENDBRANCH   1  20
BRANCH   8  27
ATOM     27  C   UNL     1       7.891  -1.555  -4.913  0.00  0.00    +0.330 C 
ATOM     28  O   UNL     1       7.625  -2.721  -4.741  0.00  0.00    -0.249 OA
BRANCH  27  29
ATOM     29  O   UNL     1       9.172  -1.159  -4.965  0.00  0.00    -0.467 OA
ATOM     30  C   UNL     1      10.170  -2.170  -4.809  0.00  0.00    +0.280 C 
ENDBRANCH  27  29
ENDBRANCH   8  27
BRANCH   7  31
ATOM     31  C   UNL     1       5.315  -2.019  -6.624  0.00  0.00    +0.112 C 
BRANCH  31  32
ATOM     32  C   UNL     1       4.807  -1.120  -7.752  0.00  0.00    +0.056 C 
BRANCH  32  33
ATOM     33  C   UNL     1       4.587  -1.946  -8.993  0.00  0.00    -0.021 A 
ATOM     34  C   UNL     1       3.386  -2.715  -9.327  0.00  0.00    +0.003 A 
ATOM     35  C   UNL     1       2.162  -2.928  -8.690  0.00  0.00    +0.010 A 
ATOM     36  C   UNL     1       1.219  -3.722  -9.280  0.00  0.00    +0.001 A 
ATOM     37  C   UNL     1       1.468  -4.318 -10.508  0.00  0.00    +0.002 A 
ATOM     38  C   UNL     1       2.669  -4.120 -11.155  0.00  0.00    +0.026 A 
ATOM     39  C   UNL     1       3.643  -3.316 -10.573  0.00  0.00    +0.047 A 
ATOM     40  N   UNL     1       4.909  -2.933 -10.955  0.00  0.00    -0.360 N 
ATOM     41  C   UNL     1       5.454  -2.113 -10.005  0.00  0.00    +0.087 A 
ATOM     42  H   UNL     1       5.348  -3.201 -11.778  0.00  0.00    +0.165 HD
ENDBRANCH  32  33
ENDBRANCH  31  32
ENDBRANCH   7  31
TORSDOF 10
