REMARK  Name = ZINC38974869
REMARK  3 active torsions:
REMARK  status: ('A' for Active; 'I' for Inactive)
REMARK    1  A    between atoms: C_4  and  C_7
REMARK    2  A    between atoms: C_9  and  C_13
REMARK    3  A    between atoms: C_21  and  C_24
REMARK                            x       y       z     vdW  Elec       q    Type
REMARK                         _______ _______ _______ _____ _____    ______ ____
ROOT
ATOM      1  C   UNL     1       5.782  -3.012   1.181  0.00  0.00    +0.206 C 
ATOM      2  N   UNL     1       5.485  -2.223   2.406  0.00  0.00    -0.231 NA
ATOM      3  N   UNL     1       6.523  -2.667   3.356  0.00  0.00    -0.225 NA
ATOM      4  C   UNL     1       7.728  -2.766   2.510  0.00  0.00    +0.234 C 
ATOM      5  N   UNL     1       7.239  -3.188   1.174  0.00  0.00    -0.207 N 
ATOM      6  N   UNL     1       8.047  -3.723   0.177  0.00  0.00    -0.184 NA
ATOM      7  C   UNL     1       9.209  -4.221   0.377  0.00  0.00    +0.077 C 
ATOM      8  C   UNL     1       9.952  -4.299   1.676  0.00  0.00    +0.130 C 
ATOM      9  S   UNL     1       8.817  -4.103   3.097  0.00  0.00    -0.114 S 
ATOM     10  H   UNL     1       4.562  -2.430   2.755  0.00  0.00    +0.143 HD
ATOM     11  H   UNL     1       6.287  -3.564   3.755  0.00  0.00    +0.143 HD
ENDROOT
BRANCH   7  12
ATOM     12  C   UNL     1       9.893  -4.782  -0.803  0.00  0.00    +0.012 A 
ATOM     13  C   UNL     1      11.162  -5.351  -0.674  0.00  0.00    +0.011 A 
ATOM     14  C   UNL     1      11.796  -5.874  -1.782  0.00  0.00    +0.001 A 
ATOM     15  C   UNL     1      11.178  -5.835  -3.020  0.00  0.00    +0.001 A 
ATOM     16  C   UNL     1       9.921  -5.272  -3.156  0.00  0.00    +0.016 A 
ATOM     17  C   UNL     1       9.272  -4.751  -2.055  0.00  0.00    +0.027 A 
ATOM     18 BR   UNL     1       7.551  -3.990  -2.241  0.00  0.00    -0.050 Br
ENDBRANCH   7  12
BRANCH   1  21
ATOM     19  C   UNL     1       3.699  -0.689  -0.037  0.00  0.00    +0.091 C 
ATOM     20  C   UNL     1       3.832  -2.029  -0.051  0.00  0.00    +0.034 C 
ATOM     21  C   UNL     1       5.335  -2.245  -0.065  0.00  0.00    +0.190 C 
ATOM     22  N   UNL     1       5.871  -0.874  -0.056  0.00  0.00    -0.176 NA
ATOM     23  N   UNL     1       4.919  -0.090  -0.047  0.00  0.00    -0.154 NA
BRANCH  19  27
ATOM     24  C   UNL     1      -0.017   1.379   0.010  0.00  0.00    +0.000 A 
ATOM     25  C   UNL     1       1.169   2.092   0.002  0.00  0.00    +0.001 A 
ATOM     26  C   UNL     1       2.377   1.426  -0.013  0.00  0.00    +0.010 A 
ATOM     27  C   UNL     1       2.402   0.033  -0.021  0.00  0.00    +0.002 A 
ATOM     28  C   UNL     1       1.205  -0.680  -0.013  0.00  0.00    +0.010 A 
ATOM     29  C   UNL     1       0.002  -0.004   0.002  0.00  0.00    +0.001 A 
ENDBRANCH  19  27
ENDBRANCH   1  21
TORSDOF 3
