REMARK  Name = ZINC58351879
REMARK  7 active torsions:
REMARK  status: ('A' for Active; 'I' for Inactive)
REMARK    1  A    between atoms: C_1  and  C_2
REMARK    2  A    between atoms: C_7  and  C_12
REMARK    3  A    between atoms: N_14  and  C_15
REMARK    4  A    between atoms: C_20  and  N_21
REMARK    5  A    between atoms: N_24  and  C_25
REMARK    6  A    between atoms: C_25  and  C_26
REMARK    7  A    between atoms: C_25  and  C_27
REMARK                            x       y       z     vdW  Elec       q    Type
REMARK                         _______ _______ _______ _____ _____    ______ ____
ROOT
ATOM      1  C   UNL     1       0.682  -5.482   2.485  0.00  0.00    +0.265 C 
ATOM      2  O   UNL     1       1.238  -6.453   2.007  0.00  0.00    -0.268 OA
ATOM      3  N   UNL     1       0.100  -5.568   3.698  0.00  0.00    -0.279 N 
ATOM      4  H   UNL     1      -0.272  -4.775   4.114  0.00  0.00    +0.155 HD
ENDROOT
BRANCH   1  11
ATOM      5  C   UNL     1      -0.282   1.430  -0.089  0.00  0.00    +0.044 C 
ATOM      6  C   UNL     1       0.143  -0.013   0.003  0.00  0.00    -0.048 A 
ATOM      7  C   UNL     1       0.855  -0.589  -1.041  0.00  0.00    +0.004 A 
ATOM      8  C   UNL     1       1.249  -1.893  -0.978  0.00  0.00    +0.010 A 
ATOM      9  C   UNL     1       0.935  -2.662   0.150  0.00  0.00    +0.000 A 
ATOM     10  C   UNL     1       1.191  -4.007   0.513  0.00  0.00    +0.040 A 
ATOM     11  C   UNL     1       0.643  -4.216   1.740  0.00  0.00    +0.103 A 
ATOM     12  N   UNL     1       0.045  -3.049   2.173  0.00  0.00    -0.351 N 
ATOM     13  H   UNL     1      -0.417  -2.931   3.018  0.00  0.00    +0.166 HD
ATOM     14  C   UNL     1       0.213  -2.081   1.211  0.00  0.00    +0.047 A 
ATOM     15  C   UNL     1      -0.174  -0.746   1.125  0.00  0.00    +0.029 A 
ENDBRANCH   1  11
BRANCH   3  16
ATOM     16  C   UNL     1       0.034  -6.801   4.357  0.00  0.00    +0.055 A 
ATOM     17  C   UNL     1       0.070  -7.982   3.629  0.00  0.00    +0.025 A 
ATOM     18  C   UNL     1       0.005  -9.198   4.282  0.00  0.00    +0.002 A 
ATOM     19  C   UNL     1      -0.097  -9.243   5.660  0.00  0.00    +0.002 A 
ATOM     20  C   UNL     1      -0.134  -8.072   6.394  0.00  0.00    +0.025 A 
ATOM     21  C   UNL     1      -0.063  -6.847   5.747  0.00  0.00    +0.056 A 
BRANCH  21  22
ATOM     22  N   UNL     1      -0.094  -5.659   6.489  0.00  0.00    -0.268 N 
ATOM     23  C   UNL     1      -0.674  -5.638   7.705  0.00  0.00    +0.304 C 
ATOM     24  O   UNL     1      -1.259  -6.622   8.117  0.00  0.00    -0.253 OA
ATOM     25  N   UNL     1      -0.607  -4.528   8.466  0.00  0.00    -0.297 N 
ATOM     26  H   UNL     1       0.301  -4.850   6.127  0.00  0.00    +0.156 HD
ATOM     27  H   UNL     1      -0.141  -3.743   8.138  0.00  0.00    +0.151 HD
BRANCH  25  28
ATOM     28  C   UNL     1      -1.237  -4.506   9.788  0.00  0.00    +0.068 C 
ATOM     29  C   UNL     1      -0.275  -5.095  10.822  0.00  0.00    +0.027 C 
ATOM     30  C   UNL     1      -1.574  -3.063  10.169  0.00  0.00    +0.027 C 
ENDBRANCH  25  28
ENDBRANCH  21  22
ENDBRANCH   3  16
TORSDOF 4
