REMARK  Name = ZINC06719615
REMARK  4 active torsions:
REMARK  status: ('A' for Active; 'I' for Inactive)
REMARK    1  A    between atoms: C_1  and  C_2
REMARK    2  A    between atoms: C_5  and  N_8
REMARK    3  A    between atoms: C_9  and  C_19
REMARK    4  A    between atoms: C_19  and  C_20
REMARK                            x       y       z     vdW  Elec       q    Type
REMARK                         _______ _______ _______ _____ _____    ______ ____
ROOT
ATOM      1  N   UNL     1      -0.160  -4.191   0.009  0.00  0.00    -0.264 N 
ATOM      2  C   UNL     1       0.170  -4.850   1.153  0.00  0.00    +0.119 A 
ATOM      3  N   UNL     1       0.402  -6.127   1.199  0.00  0.00    -0.233 NA
ATOM      4  C   UNL     1       0.329  -6.904   0.089  0.00  0.00    +0.078 A 
ATOM      5  C   UNL     1       0.578  -8.277   0.138  0.00  0.00    +0.028 A 
ATOM      6  C   UNL     1       0.492  -9.027  -1.013  0.00  0.00    +0.002 A 
ATOM      7  C   UNL     1       0.162  -8.435  -2.225  0.00  0.00    +0.001 A 
ATOM      8  C   UNL     1      -0.088  -7.083  -2.299  0.00  0.00    +0.015 A 
ATOM      9  C   UNL     1      -0.007  -6.305  -1.146  0.00  0.00    +0.065 A 
ATOM     10  C   UNL     1      -0.269  -4.859  -1.163  0.00  0.00    +0.266 A 
ATOM     11  O   UNL     1      -0.568  -4.283  -2.193  0.00  0.00    -0.267 OA
ENDROOT
BRANCH   1  16
ATOM     12  C   UNL     1      -1.111   1.401   0.162  0.00  0.00    +0.044 C 
ATOM     13  C   UNL     1      -0.858  -0.084   0.121  0.00  0.00    -0.050 A 
ATOM     14  C   UNL     1      -1.920  -0.962  -0.002  0.00  0.00    +0.005 A 
ATOM     15  C   UNL     1      -1.692  -2.323  -0.039  0.00  0.00    +0.026 A 
ATOM     16  C   UNL     1      -0.395  -2.811   0.046  0.00  0.00    +0.051 A 
ATOM     17  C   UNL     1       0.670  -1.927   0.170  0.00  0.00    +0.026 A 
ATOM     18  C   UNL     1       0.435  -0.567   0.201  0.00  0.00    +0.005 A 
ENDBRANCH   1  16
BRANCH   2  19
ATOM     19  C   UNL     1       0.272  -4.058   2.431  0.00  0.00    +0.092 C 
BRANCH  19  20
ATOM     20  C   UNL     1       0.514  -5.011   3.603  0.00  0.00    +0.114 C 
ATOM     21  C   UNL     1       0.696  -4.235   4.887  0.00  0.00    -0.014 A 
ATOM     22  C   UNL     1       1.621  -3.300   5.293  0.00  0.00    +0.006 A 
ATOM     23  C   UNL     1       1.534  -2.747   6.559  0.00  0.00    +0.000 A 
ATOM     24  C   UNL     1       0.517  -3.136   7.411  0.00  0.00    +0.002 A 
ATOM     25  C   UNL     1      -0.411  -4.073   7.007  0.00  0.00    +0.023 A 
ATOM     26  C   UNL     1      -0.330  -4.635   5.734  0.00  0.00    +0.037 A 
ATOM     27  N   UNL     1      -1.134  -5.584   5.103  0.00  0.00    -0.285 N 
ATOM     28  C   UNL     1      -0.711  -5.864   3.855  0.00  0.00    +0.225 C 
ATOM     29  O   UNL     1      -1.215  -6.648   3.079  0.00  0.00    -0.275 OA
ATOM     30  H   UNL     1      -1.909  -5.997   5.516  0.00  0.00    +0.155 HD
ENDBRANCH  19  20
ENDBRANCH   2  19
TORSDOF 3
