REMARK  Name = ZINC40022052
REMARK  5 active torsions:
REMARK  status: ('A' for Active; 'I' for Inactive)
REMARK    1  A    between atoms: C_4  and  N_7
REMARK    2  A    between atoms: C_9  and  C_22
REMARK    3  A    between atoms: C_10  and  C_12
REMARK    4  A    between atoms: C_24  and  C_35
REMARK    5  A    between atoms: N_26  and  C_29
REMARK                            x       y       z     vdW  Elec       q    Type
REMARK                         _______ _______ _______ _____ _____    ______ ____
ROOT
ATOM      1  N   UNL     1       3.597  -0.688   0.227  0.00  0.00    -0.239 N 
ATOM      2  C   UNL     1       3.781  -2.018   0.262  0.00  0.00    +0.122 A 
ATOM      3  C   UNL     1       5.121  -2.257  -0.014  0.00  0.00    +0.017 A 
ATOM      4  C   UNL     1       5.732  -0.993  -0.217  0.00  0.00    +0.077 A 
ATOM      5  N   UNL     1       4.818  -0.075  -0.077  0.00  0.00    -0.170 NA
ENDROOT
BRANCH   4   6
ATOM      6  C   UNL     1       7.184  -0.754  -0.544  0.00  0.00    +0.016 C 
ATOM      7  C   UNL     1       8.059  -1.316   0.578  0.00  0.00    +0.016 C 
ATOM      8  C   UNL     1       9.533  -1.073   0.246  0.00  0.00    -0.010 C 
ATOM      9  C   UNL     1       9.783   0.430   0.108  0.00  0.00    +0.007 C 
ATOM     10  C   UNL     1       8.908   0.992  -1.015  0.00  0.00    -0.010 C 
ATOM     11  C   UNL     1       7.435   0.749  -0.683  0.00  0.00    +0.016 C 
ATOM     12  C   UNL     1       9.256   0.293  -2.331  0.00  0.00    +0.007 C 
ATOM     13  C   UNL     1       9.006  -1.210  -2.192  0.00  0.00    -0.010 C 
ATOM     14  C   UNL     1       9.881  -1.772  -1.070  0.00  0.00    +0.007 C 
ATOM     15  C   UNL     1       7.532  -1.453  -1.860  0.00  0.00    +0.016 C 
ENDBRANCH   4   6
BRANCH   3  16
ATOM     16  C   UNL     1       5.757  -3.523  -0.080  0.00  0.00    +0.026 C 
ATOM     17  C   UNL     1       5.075  -4.614  -0.592  0.00  0.00    +0.071 C 
ATOM     18  C   UNL     1       5.507  -6.020  -0.594  0.00  0.00    +0.174 C 
ATOM     19  N   UNL     1       4.575  -6.716  -1.169  0.00  0.00    -0.167 NA
ATOM     20  N   UNL     1       3.514  -5.907  -1.575  0.00  0.00    -0.156 N 
ATOM     21  C   UNL     1       3.758  -4.622  -1.247  0.00  0.00    +0.272 C 
ATOM     22  O   UNL     1       3.036  -3.662  -1.454  0.00  0.00    -0.268 OA
BRANCH  20  23
ATOM     23  C   UNL     1       2.360  -6.364  -2.225  0.00  0.00    +0.060 A 
ATOM     24  C   UNL     1       1.366  -5.466  -2.591  0.00  0.00    +0.025 A 
ATOM     25  C   UNL     1       0.230  -5.920  -3.231  0.00  0.00    +0.002 A 
ATOM     26  C   UNL     1       0.081  -7.266  -3.508  0.00  0.00    +0.000 A 
ATOM     27  C   UNL     1       1.069  -8.163  -3.144  0.00  0.00    +0.002 A 
ATOM     28  C   UNL     1       2.211  -7.715  -2.509  0.00  0.00    +0.025 A 
ENDBRANCH  20  23
BRANCH  18  29
ATOM     29  C   UNL     1       6.798  -6.555  -0.030  0.00  0.00    +0.436 C 
ATOM     30  F   UNL     1       6.851  -7.941  -0.218  0.00  0.00    -0.164 F 
ATOM     31  F   UNL     1       7.878  -5.955  -0.685  0.00  0.00    -0.164 F 
ATOM     32  F   UNL     1       6.865  -6.268   1.338  0.00  0.00    -0.164 F 
ENDBRANCH  18  29
ENDBRANCH   3  16
BRANCH   1  36
ATOM     33  C   UNL     1      -0.013   1.286   0.894  0.00  0.00    +0.000 A 
ATOM     34  C   UNL     1       1.127   2.013   0.602  0.00  0.00    +0.002 A 
ATOM     35  C   UNL     1       2.325   1.361   0.380  0.00  0.00    +0.028 A 
ATOM     36  C   UNL     1       2.384  -0.024   0.452  0.00  0.00    +0.065 A 
ATOM     37  C   UNL     1       1.237  -0.751   0.745  0.00  0.00    +0.028 A 
ATOM     38  C   UNL     1       0.042  -0.094   0.965  0.00  0.00    +0.002 A 
ENDBRANCH   1  36
TORSDOF 5
