REMARK  Name = ZINC63175220
REMARK  4 active torsions:
REMARK  status: ('A' for Active; 'I' for Inactive)
REMARK    1  A    between atoms: C_6  and  S_7
REMARK    2  A    between atoms: S_7  and  N_10
REMARK    3  A    between atoms: N_10  and  C_11
REMARK    4  A    between atoms: C_16  and  N_18
REMARK                            x       y       z     vdW  Elec       q    Type
REMARK                         _______ _______ _______ _____ _____    ______ ____
ROOT
ATOM      1  N   UNL     1      -1.948  -1.148  -1.567  0.00  0.00    -0.188 NA
ATOM      2  H   UNL     1      -2.756  -0.738  -1.915  0.00  0.00    +0.148 HD
ENDROOT
BRANCH   1   3
ATOM      3  C   UNL     1      -1.115  -1.980  -2.438  0.00  0.00    +0.062 C 
ATOM      4  C   UNL     1      -1.682  -3.413  -2.501  0.00  0.00    +0.019 C 
ATOM      5  C   UNL     1      -2.554  -3.420  -3.781  0.00  0.00    -0.000 C 
ATOM      6  C   UNL     1      -1.728  -2.551  -4.762  0.00  0.00    -0.015 C 
ATOM      7  C   UNL     1      -1.143  -1.431  -3.875  0.00  0.00    -0.056 C 
BRANCH   7   8
ATOM      8  N   UNL     1       0.220  -1.100  -4.314  0.00  0.00    +0.381 N 
ATOM      9  H   UNL     1       0.793  -1.931  -4.287  0.00  0.00    -0.090 HD
ATOM     10  H   UNL     1       0.192  -0.742  -5.257  0.00  0.00    -0.090 HD
ATOM     11  H   UNL     1       0.611  -0.402  -3.700  0.00  0.00    -0.090 HD
ENDBRANCH   7   8
ENDBRANCH   1   3
BRANCH   1  12
ATOM     12  S   UNL     1      -1.512  -0.906   0.012  0.00  0.00    +0.059 S 
ATOM     13  O   UNL     1      -1.218  -2.186   0.553  0.00  0.00    -0.153 OA
ATOM     14  O   UNL     1      -2.492  -0.046   0.578  0.00  0.00    -0.153 OA
BRANCH  12  20
ATOM     15  C   UNL     1      -0.017   1.378   0.010  0.00  0.00    +0.029 A 
ATOM     16  C   UNL     1       1.171   2.086   0.002  0.00  0.00    +0.016 A 
ATOM     17  C   UNL     1       2.378   1.411  -0.013  0.00  0.00    +0.013 A 
ATOM     18  C   UNL     1       2.396   0.028  -0.021  0.00  0.00    +0.016 A 
ATOM     19  C   UNL     1       1.208  -0.679  -0.013  0.00  0.00    +0.029 A 
ATOM     20  C   UNL     1       0.002  -0.004   0.002  0.00  0.00    +0.105 A 
ATOM     21  I   UNL     1       4.178   2.482  -0.025  0.00  0.00    -0.044 I 
ENDBRANCH  12  20
ENDBRANCH   1  12
TORSDOF 4
