REMARK  Name = ZINC53202886
REMARK  4 active torsions:
REMARK  status: ('A' for Active; 'I' for Inactive)
REMARK    1  A    between atoms: C_1  and  N_2
REMARK    2  A    between atoms: N_2  and  C_3
REMARK    3  A    between atoms: N_8  and  S_10
REMARK    4  A    between atoms: S_10  and  C_13
REMARK                            x       y       z     vdW  Elec       q    Type
REMARK                         _______ _______ _______ _____ _____    ______ ____
ROOT
ATOM      1  S   UNL     1       2.737  -3.435  -2.443  0.00  0.00    +0.035 S 
ATOM      2  O   UNL     1       3.470  -3.338  -3.656  0.00  0.00    -0.158 OA
ATOM      3  O   UNL     1       3.288  -2.958  -1.223  0.00  0.00    -0.158 OA
ENDROOT
BRANCH   1   4
ATOM      4  C   UNL     1       2.106  -5.122  -2.226  0.00  0.00    +0.151 C 
ATOM      5  C   UNL     1       1.133  -5.147  -1.052  0.00  0.00    +0.050 C 
ATOM      6  C   UNL     1       0.389  -6.485  -1.018  0.00  0.00    +0.168 C 
ATOM      7  S   UNL     1       1.590  -7.819  -0.739  0.00  0.00    -0.031 S 
ATOM      8  O   UNL     1       0.950  -9.063  -0.986  0.00  0.00    -0.174 OA
ATOM      9  O   UNL     1       2.223  -7.602   0.515  0.00  0.00    -0.174 OA
ATOM     10  C   UNL     1       2.802  -7.521  -2.060  0.00  0.00    +0.168 C 
ATOM     11  C   UNL     1       3.277  -6.068  -1.977  0.00  0.00    +0.050 C 
ENDBRANCH   1   4
BRANCH   1  16
ATOM     12  C   UNL     1       0.632  -0.306  -1.950  0.00  0.00    -0.056 C 
ATOM     13  C   UNL     1      -0.121  -0.186  -3.277  0.00  0.00    -0.013 C 
ATOM     14  C   UNL     1       0.667  -0.898  -4.378  0.00  0.00    +0.016 C 
ATOM     15  C   UNL     1       0.797  -2.384  -4.029  0.00  0.00    +0.109 C 
ATOM     16  N   UNL     1       1.389  -2.505  -2.689  0.00  0.00    -0.182 NA
ATOM     17  C   UNL     1       0.762  -1.785  -1.572  0.00  0.00    +0.093 C 
BRANCH  12  19
ATOM     18  C   UNL     1      -0.133   1.841  -1.203  0.00  0.00    -0.100 C 
ATOM     19  N   UNL     1      -0.110   0.404  -0.900  0.00  0.00    +0.380 N 
ATOM     20  H   UNL     1       0.341   0.256  -0.010  0.00  0.00    -0.086 HD
ATOM     21  H   UNL     1      -1.056   0.054  -0.860  0.00  0.00    -0.086 HD
ENDBRANCH  12  19
ENDBRANCH   1  16
TORSDOF 3
