REMARK  Name = ZINC63818496
REMARK  10 active torsions:
REMARK  status: ('A' for Active; 'I' for Inactive)
REMARK    1  A    between atoms: C_6  and  C_11
REMARK    2  A    between atoms: C_11  and  C_12
REMARK    3  A    between atoms: C_12  and  N_13
REMARK    4  A    between atoms: C_14  and  C_16
REMARK    5  A    between atoms: C_16  and  N_17
REMARK    6  A    between atoms: C_18  and  C_20
REMARK    7  A    between atoms: C_21  and  C_26
REMARK    8  A    between atoms: N_28  and  C_29
REMARK    9  A    between atoms: C_29  and  C_30
REMARK   10  A    between atoms: C_30  and  C_31
REMARK                            x       y       z     vdW  Elec       q    Type
REMARK                         _______ _______ _______ _____ _____    ______ ____
ROOT
ATOM      1  C   UNL     1      11.153  -5.145   4.642  0.00  0.00    +0.137 A 
ATOM      2  C   UNL     1      11.865  -5.683   5.726  0.00  0.00    +0.067 A 
ATOM      3  C   UNL     1      13.260  -5.742   5.654  0.00  0.00    +0.017 A 
ATOM      4  C   UNL     1      13.880  -5.265   4.512  0.00  0.00    +0.020 A 
ATOM      5  C   UNL     1      13.109  -4.748   3.483  0.00  0.00    +0.111 A 
ATOM      6  N   UNL     1      11.796  -4.708   3.570  0.00  0.00    -0.250 NA
ENDROOT
BRANCH   1   8
ATOM      7  N   UNL     1       9.064  -3.895   4.939  0.00  0.00    -0.301 N 
ATOM      8  C   UNL     1       9.673  -5.073   4.695  0.00  0.00    +0.264 C 
ATOM      9  O   UNL     1       9.009  -6.075   4.518  0.00  0.00    -0.268 OA
ATOM     10  H   UNL     1       9.595  -3.095   5.080  0.00  0.00    +0.150 HD
BRANCH   7  11
ATOM     11  C   UNL     1       7.602  -3.823   4.991  0.00  0.00    +0.200 C 
BRANCH  11  13
ATOM     12  N   UNL     1       5.870  -2.099   5.370  0.00  0.00    -0.314 N 
ATOM     13  C   UNL     1       7.179  -2.405   5.277  0.00  0.00    +0.230 C 
ATOM     14  O   UNL     1       8.016  -1.540   5.422  0.00  0.00    -0.274 OA
ATOM     15  H   UNL     1       5.200  -2.791   5.254  0.00  0.00    +0.149 HD
BRANCH  12  16
ATOM     16  C   UNL     1       5.458  -0.721   5.648  0.00  0.00    +0.106 C 
BRANCH  16  17
ATOM     17  C   UNL     1       3.931  -0.646   5.702  0.00  0.00    +0.047 C 
BRANCH  17  23
ATOM     18  C   UNL     1       0.361   2.017   9.185  0.00  0.00    +0.001 A 
ATOM     19  C   UNL     1       1.544   2.179   9.919  0.00  0.00    +0.002 A 
ATOM     20  C   UNL     1       2.765   1.935   9.398  0.00  0.00    +0.026 A 
ATOM     21  C   UNL     1       2.896   1.493   8.052  0.00  0.00    +0.043 A 
ATOM     22  N   UNL     1       3.949   1.196   7.330  0.00  0.00    -0.378 N 
ATOM     23  C   UNL     1       3.501   0.794   5.992  0.00  0.00    +0.104 C 
ATOM     24  C   UNL     1       1.992   0.895   6.013  0.00  0.00    +0.007 C 
ATOM     25  C   UNL     1       1.661   1.315   7.256  0.00  0.00    -0.004 A 
ATOM     26  C   UNL     1       0.373   1.602   7.898  0.00  0.00    +0.010 A 
ATOM     27  H   UNL     1       4.871   1.235   7.630  0.00  0.00    +0.160 HD
ENDBRANCH  17  23
ENDBRANCH  16  17
ENDBRANCH  12  16
ENDBRANCH  11  13
ENDBRANCH   7  11
ENDBRANCH   1   8
BRANCH   2  28
ATOM     28  C   UNL     1      11.151  -6.179   6.924  0.00  0.00    +0.246 C 
ATOM     29  O   UNL     1       9.936  -6.212   6.937  0.00  0.00    -0.270 OA
ATOM     30  N   UNL     1      11.848  -6.593   8.001  0.00  0.00    -0.311 N 
ATOM     31  H   UNL     1      12.817  -6.567   7.990  0.00  0.00    +0.149 HD
BRANCH  30  32
ATOM     32  C   UNL     1      11.141  -7.084   9.186  0.00  0.00    +0.107 C 
BRANCH  32  33
ATOM     33  C   UNL     1      12.158  -7.488  10.255  0.00  0.00    +0.047 C 
BRANCH  33  34
ATOM     34  C   UNL     1      11.420  -8.001  11.494  0.00  0.00    +0.104 C 
ATOM     35  C   UNL     1      12.412  -8.464  12.537  0.00  0.00    +0.007 C 
ATOM     36  C   UNL     1      12.201  -7.689  13.625  0.00  0.00    -0.004 A 
ATOM     37  C   UNL     1      12.831  -7.642  14.950  0.00  0.00    +0.010 A 
ATOM     38  C   UNL     1      12.394  -6.734  15.853  0.00  0.00    +0.001 A 
ATOM     39  C   UNL     1      11.357  -5.840  15.555  0.00  0.00    +0.002 A 
ATOM     40  C   UNL     1      10.729  -5.822  14.360  0.00  0.00    +0.026 A 
ATOM     41  C   UNL     1      11.108  -6.733  13.336  0.00  0.00    +0.043 A 
ATOM     42  N   UNL     1      10.659  -6.911  12.116  0.00  0.00    -0.378 N 
ATOM     43  H   UNL     1       9.944  -6.408  11.695  0.00  0.00    +0.160 HD
ENDBRANCH  33  34
ENDBRANCH  32  33
ENDBRANCH  30  32
ENDBRANCH   2  28
TORSDOF 10
