REMARK  Name = ZINC57335298
REMARK  8 active torsions:
REMARK  status: ('A' for Active; 'I' for Inactive)
REMARK    1  A    between atoms: C_1  and  C_2
REMARK    2  A    between atoms: C_2  and  C_3
REMARK    3  A    between atoms: C_9  and  C_11
REMARK    4  A    between atoms: C_14  and  C_17
REMARK    5  A    between atoms: C_17  and  N_18
REMARK    6  A    between atoms: C_19  and  C_21
REMARK    7  A    between atoms: C_21  and  N_22
REMARK    8  A    between atoms: C_27  and  C_29
REMARK                            x       y       z     vdW  Elec       q    Type
REMARK                         _______ _______ _______ _____ _____    ______ ____
ROOT
ATOM      1  C   UNL     1       5.705  -1.050  -0.443  0.00  0.00    +0.009 A 
ATOM      2  C   UNL     1       5.833  -0.674   0.894  0.00  0.00    +0.011 A 
ATOM      3  C   UNL     1       7.074  -0.692   1.496  0.00  0.00    +0.006 A 
ATOM      4  C   UNL     1       8.190  -1.081   0.777  0.00  0.00    -0.030 A 
ATOM      5  C   UNL     1       8.069  -1.455  -0.549  0.00  0.00    +0.006 A 
ATOM      6  C   UNL     1       6.832  -1.447  -1.161  0.00  0.00    +0.011 A 
ENDROOT
BRANCH   1  13
ATOM      7  C   UNL     1       0.707  -0.490  -1.238  0.00  0.00    +0.155 A 
ATOM      8  N   UNL     1       0.149  -0.741  -2.388  0.00  0.00    -0.132 NA
ATOM      9  N   UNL     1       1.036  -1.139  -3.233  0.00  0.00    -0.120 NA
ATOM     10  C   UNL     1       2.200  -1.159  -2.657  0.00  0.00    +0.218 A 
ATOM     11  N   UNL     1       2.059  -0.742  -1.356  0.00  0.00    -0.190 N 
ATOM     12  N   UNL     1       3.217  -0.696  -0.591  0.00  0.00    -0.156 NA
ATOM     13  C   UNL     1       4.376  -1.034  -1.095  0.00  0.00    +0.132 A 
ATOM     14  S   UNL     1       3.942  -1.480  -2.769  0.00  0.00    -0.026 S 
BRANCH   7  16
ATOM     15  C   UNL     1      -0.019   1.526   0.010  0.00  0.00    +0.012 C 
ATOM     16  C   UNL     1       0.002  -0.004   0.002  0.00  0.00    +0.075 C 
ENDBRANCH   7  16
ENDBRANCH   1  13
BRANCH   4  17
ATOM     17  C   UNL     1       9.543  -1.098   1.441  0.00  0.00    +0.139 C 
BRANCH  17  18
ATOM     18  N   UNL     1       9.774  -2.413   2.044  0.00  0.00    -0.313 N 
ATOM     19  C   UNL     1      10.927  -2.662   2.697  0.00  0.00    +0.197 C 
ATOM     20  O   UNL     1      11.772  -1.796   2.786  0.00  0.00    -0.278 OA
ATOM     21  H   UNL     1       9.098  -3.105   1.974  0.00  0.00    +0.149 HD
BRANCH  19  22
ATOM     22  C   UNL     1      11.165  -4.014   3.318  0.00  0.00    +0.019 C 
BRANCH  22  23
ATOM     23  N   UNL     1      12.483  -4.031   3.965  0.00  0.00    +0.387 N 
ATOM     24  C   UNL     1      13.528  -3.872   2.947  0.00  0.00    -0.078 C 
ATOM     25  C   UNL     1      14.899  -3.807   3.624  0.00  0.00    -0.019 C 
ATOM     26  C   UNL     1      15.139  -5.102   4.405  0.00  0.00    -0.003 C 
ATOM     27  C   UNL     1      14.002  -5.296   5.413  0.00  0.00    -0.016 C 
ATOM     28  C   UNL     1      12.665  -5.305   4.670  0.00  0.00    -0.071 C 
ATOM     29  C   UNL     1      11.526  -5.498   5.674  0.00  0.00    -0.013 C 
ATOM     30  H   UNL     1      12.542  -3.270   4.626  0.00  0.00    -0.081 HD
ENDBRANCH  22  23
ENDBRANCH  19  22
ENDBRANCH  17  18
ENDBRANCH   4  17
TORSDOF 6
