REMARK  Name = ZINC62324038
REMARK  4 active torsions:
REMARK  status: ('A' for Active; 'I' for Inactive)
REMARK    1  A    between atoms: C_1  and  C_2
REMARK    2  A    between atoms: C_2  and  C_3
REMARK    3  A    between atoms: C_2  and  C_4
REMARK    4  A    between atoms: N_16  and  C_17
REMARK                            x       y       z     vdW  Elec       q    Type
REMARK                         _______ _______ _______ _____ _____    ______ ____
ROOT
ATOM      1  C   UNL     1       0.707  -0.490  -1.238  0.00  0.00    -0.043 A 
ATOM      2  C   UNL     1       0.222  -0.151  -2.487  0.00  0.00    +0.006 A 
ATOM      3  C   UNL     1       0.862  -0.594  -3.628  0.00  0.00    +0.025 A 
ATOM      4  C   UNL     1       2.000  -1.383  -3.522  0.00  0.00    +0.061 A 
ATOM      5  C   UNL     1       2.483  -1.718  -2.261  0.00  0.00    +0.134 A 
ATOM      6  C   UNL     1       1.845  -1.271  -1.126  0.00  0.00    +0.034 A 
ATOM      7  S   UNL     1       3.934  -2.715  -2.151  0.00  0.00    +0.103 S 
ATOM      8  O   UNL     1       4.837  -2.031  -1.294  0.00  0.00    -0.146 OA
ATOM      9  O   UNL     1       3.499  -4.045  -1.900  0.00  0.00    -0.146 OA
ATOM     10  N   UNL     1       4.609  -2.704  -3.665  0.00  0.00    -0.097 NA
ATOM     11  C   UNL     1       3.937  -2.290  -4.689  0.00  0.00    +0.205 C 
ATOM     12  N   UNL     1       2.652  -1.840  -4.664  0.00  0.00    -0.285 N 
ATOM     13  N   UNL     1       4.574  -2.304  -5.908  0.00  0.00    -0.313 N 
ATOM     14  H   UNL     1       2.158  -1.837  -5.499  0.00  0.00    +0.155 HD
ATOM     15  H   UNL     1       4.108  -2.002  -6.703  0.00  0.00    +0.149 HD
ENDROOT
BRANCH   1  17
ATOM     16  C   UNL     1      -0.019   1.526   0.010  0.00  0.00    +0.012 C 
ATOM     17  C   UNL     1       0.002  -0.004   0.002  0.00  0.00    +0.013 C 
ATOM     18  C   UNL     1      -1.433  -0.534   0.013  0.00  0.00    +0.012 C 
ENDBRANCH   1  17
BRANCH  13  19
ATOM     19  C   UNL     1       5.958  -2.776  -6.005  0.00  0.00    +0.073 C 
ATOM     20  C   UNL     1       6.307  -3.704  -7.170  0.00  0.00    +0.024 C 
ATOM     21  C   UNL     1       6.801  -2.256  -7.171  0.00  0.00    +0.024 C 
ENDBRANCH  13  19
TORSDOF 2
