REMARK  Name = ZINC27231993
REMARK  8 active torsions:
REMARK  status: ('A' for Active; 'I' for Inactive)
REMARK    1  A    between atoms: C_1  and  C_2
REMARK    2  A    between atoms: C_5  and  C_8
REMARK    3  A    between atoms: C_9  and  C_19
REMARK    4  A    between atoms: N_11  and  C_13
REMARK    5  A    between atoms: C_19  and  C_21
REMARK    6  A    between atoms: C_23  and  C_26
REMARK    7  A    between atoms: C_26  and  C_27
REMARK    8  A    between atoms: C_27  and  C_29
REMARK                            x       y       z     vdW  Elec       q    Type
REMARK                         _______ _______ _______ _____ _____    ______ ____
ROOT
ATOM      1  C   UNL     1      -2.524  -7.762  -0.027  0.00  0.00    +0.104 A 
ATOM      2  C   UNL     1      -1.620  -6.627  -0.238  0.00  0.00    +0.070 A 
ATOM      3  C   UNL     1      -0.336  -7.132  -0.162  0.00  0.00    +0.127 A 
ATOM      4  N   UNL     1      -0.427  -8.451   0.081  0.00  0.00    -0.239 N 
ATOM      5  N   UNL     1      -1.772  -8.823   0.158  0.00  0.00    -0.166 NA
ENDROOT
BRANCH   1  10
ATOM      6  C   UNL     1      -8.280  -7.601  -0.016  0.00  0.00    +0.044 C 
ATOM      7  C   UNL     1      -6.774  -7.643  -0.019  0.00  0.00    -0.050 A 
ATOM      8  C   UNL     1      -6.117  -8.751  -0.523  0.00  0.00    +0.004 A 
ATOM      9  C   UNL     1      -4.737  -8.795  -0.529  0.00  0.00    +0.010 A 
ATOM     10  C   UNL     1      -4.006  -7.721  -0.025  0.00  0.00    +0.003 A 
ATOM     11  C   UNL     1      -4.674  -6.609   0.488  0.00  0.00    +0.010 A 
ATOM     12  C   UNL     1      -6.053  -6.574   0.483  0.00  0.00    +0.004 A 
ENDBRANCH   1  10
BRANCH   4  13
ATOM     13  C   UNL     1       0.661  -9.321   0.229  0.00  0.00    +0.065 A 
ATOM     14  C   UNL     1       1.958  -8.837   0.127  0.00  0.00    +0.028 A 
ATOM     15  C   UNL     1       3.029  -9.696   0.278  0.00  0.00    +0.002 A 
ATOM     16  C   UNL     1       2.809 -11.040   0.521  0.00  0.00    +0.000 A 
ATOM     17  C   UNL     1       1.518 -11.526   0.618  0.00  0.00    +0.002 A 
ATOM     18  C   UNL     1       0.444 -10.671   0.473  0.00  0.00    +0.028 A 
ENDBRANCH   4  13
BRANCH   2  19
ATOM     19  C   UNL     1      -2.003  -5.228  -0.487  0.00  0.00    +0.223 C 
ATOM     20  O   UNL     1      -3.179  -4.919  -0.534  0.00  0.00    -0.284 OA
BRANCH  19  21
ATOM     21  C   UNL     1      -0.962  -4.200  -0.679  0.00  0.00    +0.168 A 
ATOM     22  N   UNL     1      -1.098  -2.897  -0.912  0.00  0.00    -0.219 NA
ATOM     23  C   UNL     1       0.023  -2.233  -1.040  0.00  0.00    +0.146 A 
ATOM     24  N   UNL     1       1.163  -2.868  -0.939  0.00  0.00    -0.193 NA
ATOM     25  S   UNL     1       0.762  -4.370  -0.661  0.00  0.00    +0.037 S 
BRANCH  23  26
ATOM     26  C   UNL     1      -0.000  -0.750  -1.307  0.00  0.00    +0.150 C 
BRANCH  26  27
ATOM     27  C   UNL     1       0.002  -0.004   0.002  0.00  0.00    +0.138 C 
ATOM     28  O   UNL     1       0.020  -0.613   1.044  0.00  0.00    -0.297 OA
ATOM     29  C   UNL     1      -0.018   1.503   0.010  0.00  0.00    +0.086 C 
ENDBRANCH  26  27
ENDBRANCH  23  26
ENDBRANCH  19  21
ENDBRANCH   2  19
TORSDOF 6
