REMARK  Name = ZINC39540252
REMARK  11 active torsions:
REMARK  status: ('A' for Active; 'I' for Inactive)
REMARK    1  A    between atoms: C_1  and  C_2
REMARK    2  A    between atoms: C_2  and  C_3
REMARK    3  A    between atoms: C_2  and  S_4
REMARK    4  A    between atoms: S_4  and  C_7
REMARK    5  A    between atoms: C_10  and  C_13
REMARK    6  A    between atoms: C_13  and  C_15
REMARK    7  A    between atoms: C_13  and  N_18
REMARK    8  A    between atoms: C_15  and  N_16
REMARK    9  A    between atoms: C_22  and  S_25
REMARK   10  A    between atoms: S_25  and  O_28
REMARK   11  A    between atoms: O_28  and  C_29
REMARK                            x       y       z     vdW  Elec       q    Type
REMARK                         _______ _______ _______ _____ _____    ______ ____
ROOT
ATOM      1  N   UNL     1      -1.899  -7.134   1.634  0.00  0.00    -0.296 NA
ATOM      2  C   UNL     1      -1.141  -6.967   2.883  0.00  0.00    +0.066 C 
ATOM      3  C   UNL     1      -1.988  -7.457   4.059  0.00  0.00    -0.064 C 
ATOM      4  N   UNL     1      -2.331  -8.871   3.860  0.00  0.00    +0.398 N 
ATOM      5  C   UNL     1      -3.108  -9.018   2.623  0.00  0.00    +0.130 C 
ATOM      6  C   UNL     1      -2.271  -8.541   1.434  0.00  0.00    +0.095 C 
ATOM      7  H   UNL     1      -1.485  -9.416   3.792  0.00  0.00    -0.083 HD
ATOM      8  H   UNL     1      -2.879  -9.197   4.642  0.00  0.00    -0.083 HD
ENDROOT
BRANCH   5   9
ATOM      9  S   UNL     1      -3.550 -10.762   2.390  0.00  0.00    +0.109 S 
ATOM     10  O   UNL     1      -4.449 -10.898   1.298  0.00  0.00    -0.138 OA
ATOM     11  O   UNL     1      -2.389 -11.577   2.478  0.00  0.00    -0.138 OA
BRANCH   9  12
ATOM     12  O   UNL     1      -4.372 -11.125   3.618  0.00  0.00    -0.347 OA
BRANCH  12  13
ATOM     13  C   UNL     1      -5.637 -10.627   3.603  0.00  0.00    +0.156 A 
ATOM     14  C   UNL     1      -5.898  -9.376   4.141  0.00  0.00    +0.048 A 
ATOM     15  C   UNL     1      -7.184  -8.872   4.124  0.00  0.00    +0.004 A 
ATOM     16  C   UNL     1      -8.211  -9.615   3.571  0.00  0.00    +0.000 A 
ATOM     17  C   UNL     1      -7.954 -10.863   3.034  0.00  0.00    +0.004 A 
ATOM     18  C   UNL     1      -6.668 -11.368   3.043  0.00  0.00    +0.048 A 
ENDBRANCH  12  13
ENDBRANCH   9  12
ENDBRANCH   5   9
BRANCH   1  19
ATOM     19  C   UNL     1      -1.140  -6.621   0.486  0.00  0.00    +0.103 C 
BRANCH  19  23
ATOM     20  C   UNL     1      -1.283  -2.352   0.475  0.00  0.00    +0.088 A 
ATOM     21  C   UNL     1      -0.717  -3.027  -0.590  0.00  0.00    +0.027 A 
ATOM     22  C   UNL     1      -0.671  -4.409  -0.587  0.00  0.00    +0.007 A 
ATOM     23  C   UNL     1      -1.190  -5.115   0.482  0.00  0.00    -0.029 A 
ATOM     24  C   UNL     1      -1.755  -4.440   1.548  0.00  0.00    +0.007 A 
ATOM     25  C   UNL     1      -1.797  -3.058   1.546  0.00  0.00    +0.027 A 
BRANCH  20  26
ATOM     26  S   UNL     1      -1.342  -0.591   0.471  0.00  0.00    -0.001 S 
ATOM     27  O   UNL     1      -2.447  -0.263   1.302  0.00  0.00    -0.169 OA
ATOM     28  O   UNL     1      -1.338  -0.231  -0.904  0.00  0.00    -0.169 OA
BRANCH  26  30
ATOM     29  C   UNL     1       0.210   1.451   1.421  0.00  0.00    +0.032 C 
ATOM     30  C   UNL     1       0.207  -0.070   1.257  0.00  0.00    +0.130 C 
ATOM     31  C   UNL     1       0.329  -0.732   2.631  0.00  0.00    +0.032 C 
ENDBRANCH  26  30
ENDBRANCH  20  26
ENDBRANCH  19  23
BRANCH  19  32
ATOM     32  C   UNL     1       0.315  -7.083   0.588  0.00  0.00    +0.140 C 
BRANCH  32  33
ATOM     33  N   UNL     1       0.361  -8.551   0.625  0.00  0.00    -0.157 NA
ATOM     34  F   UNL     1       1.587  -8.976   0.712  0.00  0.00    -0.136 F 
ATOM     35  H   UNL     1      -0.103  -8.948  -0.178  0.00  0.00    +0.159 HD
ENDBRANCH  32  33
ENDBRANCH  19  32
ENDBRANCH   1  19
TORSDOF 9
