REMARK  Name = ZINC40158349
REMARK  7 active torsions:
REMARK  status: ('A' for Active; 'I' for Inactive)
REMARK    1  A    between atoms: C_1  and  C_2
REMARK    2  A    between atoms: C_4  and  C_27
REMARK    3  A    between atoms: C_5  and  C_9
REMARK    4  A    between atoms: C_6  and  C_8
REMARK    5  A    between atoms: C_9  and  C_11
REMARK    6  A    between atoms: C_9  and  N_12
REMARK    7  A    between atoms: N_15  and  C_18
REMARK                            x       y       z     vdW  Elec       q    Type
REMARK                         _______ _______ _______ _____ _____    ______ ____
ROOT
ATOM      1  N   UNL     1      -0.659  -4.526   0.284  0.00  0.00    -0.293 NA
ATOM      2  C   UNL     1      -1.906  -3.836  -0.074  0.00  0.00    +0.104 C 
ATOM      3  C   UNL     1      -3.036  -4.323   0.840  0.00  0.00    +0.120 C 
ATOM      4  N   UNL     1      -3.094  -5.791   0.769  0.00  0.00    -0.326 N 
ATOM      5  C   UNL     1      -1.851  -6.548   0.982  0.00  0.00    +0.120 C 
ATOM      6  C   UNL     1      -0.768  -5.974   0.062  0.00  0.00    +0.104 C 
ENDROOT
BRANCH   4   7
ATOM      7  C   UNL     1      -4.299  -6.449   0.508  0.00  0.00    +0.048 A 
ATOM      8  C   UNL     1      -5.443  -5.725   0.179  0.00  0.00    +0.028 A 
ATOM      9  C   UNL     1      -6.613  -6.422  -0.071  0.00  0.00    +0.055 A 
ATOM     10  C   UNL     1      -6.608  -7.802   0.011  0.00  0.00    +0.215 A 
ATOM     11  N   UNL     1      -5.508  -8.458   0.325  0.00  0.00    -0.230 NA
ATOM     12  C   UNL     1      -4.372  -7.834   0.566  0.00  0.00    +0.136 A 
ATOM     13  N   UNL     1      -7.855  -8.554  -0.255  0.00  0.00    +0.075 N 
ATOM     14  O   UNL     1      -8.868  -7.960  -0.543  0.00  0.00    -0.125 OA
ATOM     15  O   UNL     1      -7.860  -9.761  -0.185  0.00  0.00    -0.125 OA
ENDBRANCH   4   7
BRANCH   1  16
ATOM     16  C   UNL     1       0.482  -3.965  -0.451  0.00  0.00    +0.084 C 
ATOM     17  C   UNL     1       1.774  -4.633   0.025  0.00  0.00    +0.029 C 
BRANCH  16  22
ATOM     18  C   UNL     1       0.790   1.724   0.512  0.00  0.00    +0.044 C 
ATOM     19  C   UNL     1       0.710   0.241   0.261  0.00  0.00    -0.050 A 
ATOM     20  C   UNL     1       0.480  -0.627   1.312  0.00  0.00    +0.007 A 
ATOM     21  C   UNL     1       0.406  -1.988   1.082  0.00  0.00    -0.045 A 
ATOM     22  C   UNL     1       0.562  -2.481  -0.200  0.00  0.00    -0.025 A 
ATOM     23  C   UNL     1       0.791  -1.614  -1.252  0.00  0.00    -0.045 A 
ATOM     24  C   UNL     1       0.861  -0.252  -1.022  0.00  0.00    +0.007 A 
ATOM     25  C   UNL     1       0.962  -2.151  -2.649  0.00  0.00    +0.044 C 
ATOM     26  C   UNL     1       0.156  -2.934   2.228  0.00  0.00    +0.044 C 
ENDBRANCH  16  22
ENDBRANCH   1  16
TORSDOF 3
