REMARK  Name = ZINC20323726
REMARK  6 active torsions:
REMARK  status: ('A' for Active; 'I' for Inactive)
REMARK    1  A    between atoms: C_4  and  C_7
REMARK    2  A    between atoms: C_9  and  C_12
REMARK    3  A    between atoms: C_12  and  N_13
REMARK    4  A    between atoms: N_13  and  C_14
REMARK    5  A    between atoms: N_17  and  C_20
REMARK    6  A    between atoms: C_23  and  C_26
REMARK                            x       y       z     vdW  Elec       q    Type
REMARK                         _______ _______ _______ _____ _____    ______ ____
ROOT
ATOM      1  C   UNL     1      -0.861   2.218   1.630  0.00  0.00    -0.068 C 
ATOM      2  C   UNL     1      -1.591   0.979   1.106  0.00  0.00    +0.003 C 
ATOM      3  C   UNL     1      -0.833   0.416  -0.098  0.00  0.00    +0.103 C 
ATOM      4  N   UNL     1      -0.751   1.438  -1.149  0.00  0.00    -0.330 N 
ATOM      5  C   UNL     1      -0.013   2.619  -0.684  0.00  0.00    +0.103 C 
ATOM      6  C   UNL     1      -0.747   3.248   0.502  0.00  0.00    +0.003 C 
ENDROOT
BRANCH   4   7
ATOM      7  C   UNL     1      -0.183   0.919  -2.307  0.00  0.00    +0.030 A 
ATOM      8  C   UNL     1       0.223  -0.412  -2.344  0.00  0.00    +0.024 A 
ATOM      9  C   UNL     1       0.780  -0.931  -3.490  0.00  0.00    +0.015 A 
ATOM     10  C   UNL     1       0.949  -0.116  -4.614  0.00  0.00    +0.037 A 
ATOM     11  C   UNL     1       0.544   1.221  -4.572  0.00  0.00    +0.015 A 
ATOM     12  C   UNL     1      -0.017   1.732  -3.424  0.00  0.00    +0.024 A 
BRANCH  10  13
ATOM     13  C   UNL     1       1.552  -0.667  -5.843  0.00  0.00    +0.247 C 
ATOM     14  O   UNL     1       1.051  -0.430  -6.925  0.00  0.00    -0.270 OA
ATOM     15  N   UNL     1       2.658  -1.434  -5.766  0.00  0.00    -0.293 N 
ATOM     16  C   UNL     1       3.326  -1.938  -6.976  0.00  0.00    +0.113 C 
ATOM     17  C   UNL     1       4.721  -1.307  -7.034  0.00  0.00    +0.054 C 
ATOM     18  C   UNL     1       5.415  -1.421  -5.702  0.00  0.00    -0.041 A 
ATOM     19  C   UNL     1       6.799  -1.291  -5.683  0.00  0.00    +0.004 A 
ATOM     20  C   UNL     1       7.495  -1.372  -4.496  0.00  0.00    +0.000 A 
ATOM     21  C   UNL     1       6.813  -1.585  -3.312  0.00  0.00    +0.000 A 
ATOM     22  C   UNL     1       5.440  -1.718  -3.328  0.00  0.00    +0.005 A 
ATOM     23  C   UNL     1       4.738  -1.640  -4.523  0.00  0.00    -0.027 A 
ATOM     24  C   UNL     1       3.240  -1.804  -4.471  0.00  0.00    +0.143 C 
ENDBRANCH  10  13
ENDBRANCH   4   7
BRANCH   1  25
ATOM     25  N   UNL     1      -1.616   2.797   2.749  0.00  0.00    +0.386 N 
ATOM     26  H   UNL     1      -2.691   2.666   2.554  0.00  0.00    -0.085 HD
ATOM     27  H   UNL     1      -1.383   3.870   2.814  0.00  0.00    -0.085 HD
BRANCH  25  28
ATOM     28  C   UNL     1      -1.264   2.142   4.016  0.00  0.00    -0.003 C 
BRANCH  28  31
ATOM     29  C   UNL     1      -3.580   3.172   6.639  0.00  0.00    +0.156 A 
ATOM     30  N   UNL     1      -3.234   2.300   5.642  0.00  0.00    -0.213 NA
ATOM     31  C   UNL     1      -2.057   2.761   5.138  0.00  0.00    +0.135 A 
ATOM     32  N   UNL     1      -1.745   3.842   5.800  0.00  0.00    -0.159 NA
ATOM     33  N   UNL     1      -2.641   4.091   6.688  0.00  0.00    -0.259 N 
ATOM     34  H   UNL     1      -2.540   4.971   7.340  0.00  0.00    +0.191 HD
BRANCH  29  38
ATOM     35  C   UNL     1      -7.030   2.951   9.107  0.00  0.00    +0.000 A 
ATOM     36  C   UNL     1      -6.121   3.979   9.284  0.00  0.00    +0.001 A 
ATOM     37  C   UNL     1      -4.999   4.056   8.486  0.00  0.00    +0.011 A 
ATOM     38  C   UNL     1      -4.781   3.095   7.498  0.00  0.00    +0.019 A 
ATOM     39  C   UNL     1      -5.705   2.064   7.321  0.00  0.00    +0.011 A 
ATOM     40  C   UNL     1      -6.821   1.995   8.129  0.00  0.00    +0.001 A 
ENDBRANCH  29  38
ENDBRANCH  28  31
ENDBRANCH  25  28
ENDBRANCH   1  25
TORSDOF 6
