REMARK  Name = ZINC09428286
REMARK  4 active torsions:
REMARK  status: ('A' for Active; 'I' for Inactive)
REMARK    1  A    between atoms: C_4  and  N_29
REMARK    2  A    between atoms: C_5  and  N_7
REMARK    3  A    between atoms: C_8  and  C_10
REMARK    4  A    between atoms: C_11  and  N_28
REMARK                            x       y       z     vdW  Elec       q    Type
REMARK                         _______ _______ _______ _____ _____    ______ ____
ROOT
ATOM      1  C   UNL     1      -1.346   7.207   0.802  0.00  0.00    +0.097 A 
ATOM      2  C   UNL     1      -1.083   5.883   1.081  0.00  0.00    +0.054 A 
ATOM      3  C   UNL     1      -1.100   4.931  -0.018  0.00  0.00    +0.031 A 
ATOM      4  C   UNL     1      -0.859   3.528   0.029  0.00  0.00    -0.030 A 
ATOM      5  C   UNL     1      -0.926   2.804  -1.115  0.00  0.00    -0.005 A 
ATOM      6  C   UNL     1      -1.223   3.443  -2.329  0.00  0.00    +0.103 A 
ATOM      7  C   UNL     1      -1.391   5.481  -1.284  0.00  0.00    +0.089 A 
ATOM      8  S   UNL     1      -1.626   7.210  -0.958  0.00  0.00    -0.064 S 
ATOM      9  N   UNL     1      -1.287   2.697  -3.497  0.00  0.00    -0.312 N 
ATOM     10  C   UNL     1      -0.174   3.032  -4.397  0.00  0.00    +0.134 C 
ATOM     11  C   UNL     1      -0.248   2.147  -5.644  0.00  0.00    +0.178 C 
ATOM     12  O   UNL     1      -1.522   2.320  -6.271  0.00  0.00    -0.377 OA
ATOM     13  C   UNL     1      -2.629   2.002  -5.422  0.00  0.00    +0.178 C 
ATOM     14  C   UNL     1      -2.579   2.886  -4.173  0.00  0.00    +0.134 C 
ATOM     15  C   UNL     1      -0.694   1.315  -1.147  0.00  0.00    +0.039 C 
ATOM     16  C   UNL     1       0.030   0.858   0.118  0.00  0.00    +0.005 C 
ATOM     17  C   UNL     1      -0.725   1.409   1.334  0.00  0.00    +0.005 C 
ATOM     18  C   UNL     1      -0.537   2.925   1.369  0.00  0.00    +0.036 C 
ATOM     19  N   UNL     1      -1.458   4.778  -2.440  0.00  0.00    -0.337 N 
ATOM     20  H   UNL     1      -1.671   5.224  -3.340  0.00  0.00    +0.168 HD
ENDROOT
BRANCH   1  22
ATOM     21  N   UNL     1      -1.662   9.539   1.240  0.00  0.00    -0.279 N 
ATOM     22  C   UNL     1      -1.385   8.302   1.698  0.00  0.00    +0.257 C 
ATOM     23  O   UNL     1      -1.167   8.126   2.884  0.00  0.00    -0.269 OA
ATOM     24  H   UNL     1      -1.911   9.667   0.312  0.00  0.00    +0.155 HD
BRANCH  21  29
ATOM     25  C   UNL     1      -0.558  11.761   3.953  0.00  0.00    +0.002 A 
ATOM     26  C   UNL     1      -1.450  12.809   3.812  0.00  0.00    +0.002 A 
ATOM     27  C   UNL     1      -2.411  12.773   2.819  0.00  0.00    +0.034 A 
ATOM     28  C   UNL     1      -2.485  11.690   1.965  0.00  0.00    +0.147 A 
ATOM     29  C   UNL     1      -1.591  10.636   2.104  0.00  0.00    +0.064 A 
ATOM     30  C   UNL     1      -0.629  10.673   3.106  0.00  0.00    +0.025 A 
BRANCH  28  31
ATOM     31  N   UNL     1      -3.515  11.653   0.903  0.00  0.00    +0.058 N 
ATOM     32  O   UNL     1      -4.354  12.533   0.837  0.00  0.00    -0.126 OA
ATOM     33  O   UNL     1      -3.523  10.742   0.094  0.00  0.00    -0.126 OA
ENDBRANCH  28  31
ENDBRANCH  21  29
ENDBRANCH   1  22
BRANCH   2  34
ATOM     34  N   UNL     1      -0.809   5.469   2.377  0.00  0.00    -0.356 N 
ATOM     35  H   UNL     1      -0.285   4.667   2.530  0.00  0.00    +0.142 HD
ATOM     36  H   UNL     1      -1.141   5.982   3.131  0.00  0.00    +0.142 HD
ENDBRANCH   2  34
TORSDOF 4
