REMARK  Name = ZINC35991090
REMARK  15 active torsions:
REMARK  status: ('A' for Active; 'I' for Inactive)
REMARK    1  A    between atoms: C_1  and  C_2
REMARK    2  A    between atoms: C_2  and  N_3
REMARK    3  A    between atoms: N_6  and  C_9
REMARK    4  A    between atoms: C_9  and  C_10
REMARK    5  A    between atoms: C_11  and  C_31
REMARK    6  A    between atoms: C_12  and  C_21
REMARK    7  A    between atoms: N_17  and  C_18
REMARK    8  A    between atoms: C_18  and  C_19
REMARK    9  A    between atoms: C_24  and  C_27
REMARK   10  A    between atoms: C_27  and  C_28
REMARK   11  A    between atoms: C_27  and  C_29
REMARK   12  A    between atoms: C_27  and  C_30
REMARK   13  A    between atoms: C_31  and  O_33
REMARK   14  A    between atoms: O_33  and  C_34
REMARK   15  A    between atoms: C_34  and  C_35
REMARK                            x       y       z     vdW  Elec       q    Type
REMARK                         _______ _______ _______ _____ _____    ______ ____
ROOT
ATOM      1  C   UNL     1       3.593  -4.017  -3.694  0.00  0.00    +0.041 C 
ATOM      2  C   UNL     1       2.808  -4.761  -4.503  0.00  0.00    +0.080 C 
ATOM      3  C   UNL     1       2.839  -6.265  -4.328  0.00  0.00    +0.144 C 
ATOM      4  N   UNL     1       3.729  -6.797  -3.282  0.00  0.00    -0.288 N 
ATOM      5  C   UNL     1       4.454  -5.926  -2.553  0.00  0.00    +0.307 C 
ATOM      6  O   UNL     1       5.192  -6.355  -1.688  0.00  0.00    -0.252 OA
ATOM      7  N   UNL     1       4.392  -4.603  -2.755  0.00  0.00    -0.254 N 
ATOM      8  H   UNL     1       3.792  -7.752  -3.122  0.00  0.00    +0.151 HD
ENDROOT
BRANCH   3   9
ATOM      9  C   UNL     1       1.437  -6.727  -4.022  0.00  0.00    -0.022 A 
ATOM     10  C   UNL     1       0.931  -6.598  -2.742  0.00  0.00    +0.006 A 
ATOM     11  C   UNL     1      -0.354  -7.021  -2.461  0.00  0.00    +0.004 A 
ATOM     12  C   UNL     1      -1.135  -7.572  -3.460  0.00  0.00    -0.042 A 
ATOM     13  C   UNL     1      -0.629  -7.700  -4.740  0.00  0.00    +0.004 A 
ATOM     14  C   UNL     1       0.655  -7.273  -5.022  0.00  0.00    +0.006 A 
BRANCH  12  15
ATOM     15  C   UNL     1      -2.536  -8.034  -3.154  0.00  0.00    -0.013 C 
ATOM     16  C   UNL     1      -3.364  -6.851  -2.649  0.00  0.00    +0.015 C 
ATOM     17  C   UNL     1      -3.175  -8.599  -4.424  0.00  0.00    +0.015 C 
ATOM     18  C   UNL     1      -2.491  -9.121  -2.078  0.00  0.00    +0.015 C 
ENDBRANCH  12  15
ENDBRANCH   3   9
BRANCH   2  19
ATOM     19  C   UNL     1       1.984  -4.155  -5.480  0.00  0.00    +0.339 C 
ATOM     20  O   UNL     1       0.798  -3.994  -5.261  0.00  0.00    -0.245 OA
BRANCH  19  21
ATOM     21  O   UNL     1       2.513  -3.757  -6.656  0.00  0.00    -0.462 OA
BRANCH  21  22
ATOM     22  C   UNL     1       1.622  -3.153  -7.597  0.00  0.00    +0.229 C 
ATOM     23  C   UNL     1       2.397  -2.770  -8.859  0.00  0.00    +0.048 C 
ENDBRANCH  21  22
ENDBRANCH  19  21
ENDBRANCH   2  19
BRANCH   1  24
ATOM     24  C   UNL     1       3.592  -2.517  -3.835  0.00  0.00    +0.136 C 
BRANCH  24  28
ATOM     25  N   UNL     1       1.193  -0.193  -1.244  0.00  0.00    +0.381 N 
ATOM     26  C   UNL     1       2.624   0.127  -1.332  0.00  0.00    -0.063 C 
ATOM     27  C   UNL     1       3.198  -0.456  -2.626  0.00  0.00    +0.066 C 
ATOM     28  N   UNL     1       3.003  -1.913  -2.633  0.00  0.00    -0.300 NA
ATOM     29  C   UNL     1       1.577  -2.248  -2.520  0.00  0.00    +0.066 C 
ATOM     30  C   UNL     1       1.016  -1.651  -1.227  0.00  0.00    -0.063 C 
ATOM     31  H   UNL     1       0.713   0.195  -2.042  0.00  0.00    -0.082 HD
BRANCH  25  33
ATOM     32  C   UNL     1       0.710   1.908  -0.083  0.00  0.00    -0.017 C 
ATOM     33  C   UNL     1       0.639   0.381  -0.011  0.00  0.00    -0.082 C 
ENDBRANCH  25  33
ENDBRANCH  24  28
ENDBRANCH   1  24
BRANCH   7  34
ATOM     34  C   UNL     1       5.223  -3.736  -1.915  0.00  0.00    +0.141 C 
BRANCH  34  35
ATOM     35  C   UNL     1       4.455  -3.350  -0.677  0.00  0.00    -0.015 C 
ATOM     36  C   UNL     1       4.965  -3.580   0.508  0.00  0.00    +0.005 C 
ENDBRANCH  34  35
ENDBRANCH   7  34
TORSDOF 10
