REMARK  Name = ZINC12242468
REMARK  12 active torsions:
REMARK  status: ('A' for Active; 'I' for Inactive)
REMARK    1  A    between atoms: C_1  and  N_2
REMARK    2  A    between atoms: C_10  and  C_11
REMARK    3  A    between atoms: C_11  and  N_56
REMARK    4  A    between atoms: C_12  and  N_56
REMARK    5  A    between atoms: C_13  and  C_14
REMARK    6  A    between atoms: C_13  and  N_56
REMARK    7  A    between atoms: C_17  and  S_26
REMARK    8  A    between atoms: N_18  and  C_19
REMARK    9  A    between atoms: S_26  and  C_27
REMARK   10  A    between atoms: C_27  and  C_28
REMARK   11  A    between atoms: C_28  and  C_29
REMARK   12  A    between atoms: C_29  and  O_30
REMARK                            x       y       z     vdW  Elec       q    Type
REMARK                         _______ _______ _______ _____ _____    ______ ____
ROOT
ATOM      1  C   UNL     1       2.277  -0.168   1.173  0.00  0.00    +0.122 A 
ATOM      2  N   UNL     1       3.184  -0.867   0.552  0.00  0.00    -0.135 NA
ATOM      3  N   UNL     1       4.355  -0.405   0.813  0.00  0.00    -0.122 NA
ATOM      4  C   UNL     1       4.260   0.618   1.630  0.00  0.00    +0.196 A 
ATOM      5  N   UNL     1       2.929   0.803   1.886  0.00  0.00    -0.276 N 
ENDROOT
BRANCH   5   6
ATOM      6  C   UNL     1       2.352   1.782   2.708  0.00  0.00    +0.052 A 
ATOM      7  C   UNL     1       2.570   1.755   4.080  0.00  0.00    +0.026 A 
ATOM      8  C   UNL     1       2.001   2.720   4.887  0.00  0.00    +0.003 A 
ATOM      9  C   UNL     1       1.215   3.713   4.332  0.00  0.00    +0.020 A 
ATOM     10  C   UNL     1       0.996   3.743   2.966  0.00  0.00    +0.043 A 
ATOM     11  C   UNL     1       1.567   2.782   2.153  0.00  0.00    +0.046 A 
ATOM     12 CL   UNL     1       0.009   4.992   2.273  0.00  0.00    -0.083 Cl
ENDBRANCH   5   6
BRANCH   1  13
ATOM     13  C   UNL     1       0.787  -0.391   1.121  0.00  0.00    -0.001 C 
BRANCH  13  15
ATOM     14  C   UNL     1       0.744  -2.625   2.053  0.00  0.00    -0.095 C 
ATOM     15  N   UNL     1       0.390  -1.209   2.287  0.00  0.00    +0.387 N 
ATOM     16  H   UNL     1       0.891  -0.872   3.117  0.00  0.00    -0.081 HD
BRANCH  15  17
ATOM     17  C   UNL     1      -1.064  -1.083   2.520  0.00  0.00    -0.003 C 
BRANCH  17  27
ATOM     18  C   UNL     1      -1.059   0.282   5.294  0.00  0.00    +0.150 C 
ATOM     19  N   UNL     1      -1.396  -1.121   5.041  0.00  0.00    -0.332 N 
ATOM     20  C   UNL     1      -1.764  -2.058   5.987  0.00  0.00    +0.069 A 
ATOM     21  C   UNL     1      -1.931  -2.026   7.364  0.00  0.00    +0.028 A 
ATOM     22  C   UNL     1      -2.318  -3.169   8.031  0.00  0.00    +0.002 A 
ATOM     23  C   UNL     1      -2.539  -4.349   7.335  0.00  0.00    +0.002 A 
ATOM     24  C   UNL     1      -2.379  -4.399   5.979  0.00  0.00    +0.030 A 
ATOM     25  C   UNL     1      -1.988  -3.252   5.282  0.00  0.00    +0.089 A 
ATOM     26  N   UNL     1      -1.756  -2.988   3.971  0.00  0.00    -0.234 NA
ATOM     27  C   UNL     1      -1.405  -1.743   3.831  0.00  0.00    +0.094 A 
ENDBRANCH  17  27
ENDBRANCH  15  17
ENDBRANCH  13  15
ENDBRANCH   1  13
BRANCH   4  28
ATOM     28  S   UNL     1       5.593   1.573   2.273  0.00  0.00    -0.086 S 
BRANCH  28  29
ATOM     29  C   UNL     1       6.990   0.730   1.490  0.00  0.00    +0.079 C 
BRANCH  29  30
ATOM     30  C   UNL     1       8.296   1.404   1.915  0.00  0.00    +0.039 C 
BRANCH  30  31
ATOM     31  C   UNL     1       9.477   0.691   1.253  0.00  0.00    +0.156 C 
BRANCH  31  32
ATOM     32  O   UNL     1      10.697   1.321   1.649  0.00  0.00    -0.395 OA
ATOM     33  H   UNL     1      11.489   0.920   1.267  0.00  0.00    +0.209 HD
ENDBRANCH  31  32
ENDBRANCH  30  31
ENDBRANCH  29  30
ENDBRANCH  28  29
ENDBRANCH   4  28
TORSDOF 10
