REMARK  Name = ZINC06301638
REMARK  7 active torsions:
REMARK  status: ('A' for Active; 'I' for Inactive)
REMARK    1  A    between atoms: C_1  and  C_2
REMARK    2  A    between atoms: C_4  and  C_39
REMARK    3  A    between atoms: C_7  and  C_14
REMARK    4  A    between atoms: C_14  and  C_16
REMARK    5  A    between atoms: C_14  and  N_71
REMARK    6  A    between atoms: N_20  and  C_21
REMARK    7  A    between atoms: C_32  and  C_34
REMARK                            x       y       z     vdW  Elec       q    Type
REMARK                         _______ _______ _______ _____ _____    ______ ____
ROOT
ATOM      1  C   UNL     1      -4.419   5.423  -0.212  0.00  0.00    +0.039 C 
ENDROOT
BRANCH   1   8
ATOM      2  C   UNL     1       1.208  -0.163  -1.081  0.00  0.00    +0.044 C 
ATOM      3  C   UNL     1      -0.004   0.727  -0.987  0.00  0.00    -0.048 A 
ATOM      4  C   UNL     1      -1.256   0.220  -1.312  0.00  0.00    +0.007 A 
ATOM      5  C   UNL     1      -2.367   1.011  -1.238  0.00  0.00    -0.041 A 
ATOM      6  C   UNL     1      -2.244   2.341  -0.821  0.00  0.00    +0.002 A 
ATOM      7  C   UNL     1      -3.415   3.215  -0.725  0.00  0.00    +0.018 A 
ATOM      8  C   UNL     1      -3.235   4.497  -0.322  0.00  0.00    +0.011 A 
ATOM      9  C   UNL     1      -1.943   4.967  -0.003  0.00  0.00    +0.251 A 
ATOM     10  O   UNL     1      -1.803   6.123   0.358  0.00  0.00    -0.268 OA
ATOM     11  N   UNL     1      -0.862   4.172  -0.088  0.00  0.00    -0.322 N 
ATOM     12  H   UNL     1       0.011   4.527   0.139  0.00  0.00    +0.169 HD
ATOM     13  C   UNL     1      -0.978   2.859  -0.492  0.00  0.00    +0.050 A 
ATOM     14  C   UNL     1       0.140   2.036  -0.580  0.00  0.00    +0.029 A 
ATOM     15  C   UNL     1      -3.719   0.452  -1.598  0.00  0.00    +0.044 C 
ENDBRANCH   1   8
BRANCH   1  23
ATOM     16  C   UNL     1      -5.362   7.500  -1.024  0.00  0.00    -0.058 C 
ATOM     17  C   UNL     1      -5.037   8.775  -1.811  0.00  0.00    +0.089 C 
ATOM     18  N   UNL     1      -4.627   8.393  -3.171  0.00  0.00    -0.299 N 
ATOM     19  C   UNL     1      -3.578   7.373  -3.321  0.00  0.00    +0.089 C 
ATOM     20  C   UNL     1      -3.960   6.154  -2.475  0.00  0.00    -0.058 C 
ATOM     21  C   UNL     1      -5.197   8.963  -4.251  0.00  0.00    +0.282 C 
ATOM     22  O   UNL     1      -4.934   8.552  -5.366  0.00  0.00    -0.267 OA
ATOM     23  N   UNL     1      -4.193   6.596  -1.083  0.00  0.00    +0.391 N 
ATOM     24  H   UNL     1      -3.363   7.102  -0.751  0.00  0.00    -0.080 HD
BRANCH  21  25
ATOM     25  C   UNL     1      -6.135  10.078  -4.082  0.00  0.00    +0.189 A 
ATOM     26  C   UNL     1      -6.874  10.660  -5.071  0.00  0.00    +0.054 A 
ATOM     27  C   UNL     1      -7.627  11.679  -4.466  0.00  0.00    +0.042 A 
ATOM     28  C   UNL     1      -7.317  11.674  -3.150  0.00  0.00    +0.196 A 
ATOM     29  O   UNL     1      -6.422  10.704  -2.922  0.00  0.00    -0.458 OA
ENDBRANCH  21  25
ENDBRANCH   1  23
BRANCH   1  30
ATOM     30  C   UNL     1      -4.559   5.894   1.212  0.00  0.00    +0.143 A 
ATOM     31  N   UNL     1      -3.812   6.784   1.819  0.00  0.00    -0.115 NA
ATOM     32  N   UNL     1      -4.247   6.912   3.025  0.00  0.00    -0.023 NA
ATOM     33  N   UNL     1      -5.251   6.127   3.204  0.00  0.00    -0.044 NA
ATOM     34  N   UNL     1      -5.478   5.486   2.107  0.00  0.00    -0.227 N 
BRANCH  34  35
ATOM     35  C   UNL     1      -6.535   4.497   1.880  0.00  0.00    +0.111 C 
ATOM     36  C   UNL     1      -7.900   5.150   2.103  0.00  0.00    +0.027 C 
ATOM     37  C   UNL     1      -9.004   4.117   1.865  0.00  0.00    +0.002 C 
ATOM     38  C   UNL     1      -8.830   2.951   2.841  0.00  0.00    +0.000 C 
ATOM     39  C   UNL     1      -7.465   2.299   2.618  0.00  0.00    +0.002 C 
ATOM     40  C   UNL     1      -6.361   3.331   2.855  0.00  0.00    +0.027 C 
ENDBRANCH  34  35
ENDBRANCH   1  30
TORSDOF 5
