REMARK  Name = ZINC08764906
REMARK  11 active torsions:
REMARK  status: ('A' for Active; 'I' for Inactive)
REMARK    1  A    between atoms: C_1  and  O_2
REMARK    2  A    between atoms: O_2  and  C_3
REMARK    3  A    between atoms: C_6  and  C_11
REMARK    4  A    between atoms: C_8  and  O_9
REMARK    5  A    between atoms: O_9  and  C_10
REMARK    6  A    between atoms: N_13  and  C_14
REMARK    7  A    between atoms: C_14  and  C_16
REMARK    8  A    between atoms: C_14  and  C_20
REMARK    9  A    between atoms: C_16  and  C_17
REMARK   10  A    between atoms: C_17  and  S_18
REMARK   11  A    between atoms: S_18  and  C_19
REMARK                            x       y       z     vdW  Elec       q    Type
REMARK                         _______ _______ _______ _____ _____    ______ ____
ROOT
ATOM      1  C   UNL     1      -1.261  -0.759   0.026  0.00  0.00    +0.160 C 
ENDROOT
BRANCH   1   2
ATOM      2  C   UNL     1      -1.209  -2.175   0.542  0.00  0.00    +0.236 C 
ATOM      3  O   UNL     1      -0.141  -2.682   0.813  0.00  0.00    -0.274 OA
ATOM      4  N   UNL     1      -2.349  -2.876   0.703  0.00  0.00    -0.300 N 
ATOM      5  C   UNL     1      -3.638  -2.318   0.272  0.00  0.00    +0.107 C 
ATOM      6  C   UNL     1      -4.616  -2.362   1.444  0.00  0.00    +0.013 C 
ATOM      7  C   UNL     1      -4.696  -3.789   1.986  0.00  0.00    -0.020 C 
ATOM      8  C   UNL     1      -3.320  -4.232   2.485  0.00  0.00    +0.013 C 
ATOM      9  C   UNL     1      -2.326  -4.210   1.318  0.00  0.00    +0.107 C 
ATOM     10  C   UNL     1      -5.689  -3.846   3.119  0.00  0.00    +0.051 A 
ATOM     11  C   UNL     1      -6.937  -4.352   2.985  0.00  0.00    +0.035 A 
ATOM     12  N   UNL     1      -7.545  -4.245   4.194  0.00  0.00    -0.348 N 
ATOM     13  H   UNL     1      -8.476  -4.532   4.420  0.00  0.00    +0.166 HD
ATOM     14  C   UNL     1      -6.652  -3.674   5.037  0.00  0.00    +0.196 A 
ATOM     15  N   UNL     1      -5.544  -3.440   4.381  0.00  0.00    -0.242 NA
ATOM     16  C   UNL     1      -7.472  -4.910   1.692  0.00  0.00    +0.036 C 
ATOM     17  C   UNL     1      -6.551  -4.441   0.557  0.00  0.00    -0.075 C 
ATOM     18  N   UNL     1      -5.142  -4.706   0.915  0.00  0.00    +0.387 N 
ATOM     19  H   UNL     1      -5.054  -5.676   1.242  0.00  0.00    -0.085 HD
ATOM     20  H   UNL     1      -4.551  -4.570   0.086  0.00  0.00    -0.085 HD
ENDBRANCH   1   2
BRANCH   1  23
ATOM     21  C   UNL     1       0.093   1.237   0.368  0.00  0.00    +0.245 C 
ATOM     22  O   UNL     1      -0.917   1.905   0.262  0.00  0.00    -0.270 OA
ATOM     23  N   UNL     1       0.028  -0.105   0.263  0.00  0.00    -0.300 N 
ATOM     24  H   UNL     1       0.834  -0.638   0.345  0.00  0.00    +0.150 HD
BRANCH  21  28
ATOM     25  C   UNL     1       3.836   3.129   1.057  0.00  0.00    +0.162 A 
ATOM     26  C   UNL     1       3.767   1.746   0.948  0.00  0.00    +0.050 A 
ATOM     27  C   UNL     1       2.554   1.129   0.730  0.00  0.00    +0.017 A 
ATOM     28  C   UNL     1       1.393   1.896   0.607  0.00  0.00    +0.040 A 
ATOM     29  C   UNL     1       1.462   3.287   0.716  0.00  0.00    +0.062 A 
ATOM     30  C   UNL     1       2.680   3.899   0.940  0.00  0.00    +0.162 A 
BRANCH  25  32
ATOM     31  C   UNL     1       6.177   2.882   1.386  0.00  0.00    +0.277 C 
ATOM     32  O   UNL     1       5.033   3.732   1.277  0.00  0.00    -0.491 OA
ENDBRANCH  25  32
BRANCH  30  33
ATOM     33  O   UNL     1       2.752   5.253   1.046  0.00  0.00    -0.491 OA
ATOM     34  C   UNL     1       1.528   5.979   0.916  0.00  0.00    +0.277 C 
ENDBRANCH  30  33
ENDBRANCH  21  28
ENDBRANCH   1  23
BRANCH   1  35
ATOM     35  C   UNL     1      -1.558  -0.774  -1.474  0.00  0.00    +0.042 C 
BRANCH  35  36
ATOM     36  C   UNL     1      -1.745   0.660  -1.972  0.00  0.00    +0.071 C 
BRANCH  36  37
ATOM     37  S   UNL     1      -2.096   0.643  -3.751  0.00  0.00    -0.164 S 
ATOM     38  C   UNL     1      -2.290   2.395  -4.178  0.00  0.00    +0.084 C 
ENDBRANCH  36  37
ENDBRANCH  35  36
ENDBRANCH   1  35
TORSDOF 8
