REMARK  Name = ZINC61882532
REMARK  9 active torsions:
REMARK  status: ('A' for Active; 'I' for Inactive)
REMARK    1  A    between atoms: C_1  and  C_2
REMARK    2  A    between atoms: C_2  and  C_3
REMARK    3  A    between atoms: C_3  and  C_4
REMARK    4  A    between atoms: C_4  and  C_6
REMARK    5  A    between atoms: C_4  and  N_8
REMARK    6  A    between atoms: C_6  and  C_7
REMARK    7  A    between atoms: N_8  and  S_9
REMARK    8  A    between atoms: S_9  and  C_12
REMARK    9  A    between atoms: C_16  and  N_19
REMARK                            x       y       z     vdW  Elec       q    Type
REMARK                         _______ _______ _______ _____ _____    ______ ____
ROOT
ATOM      1  S   UNL     1       0.693  -3.584   0.241  0.00  0.00    +0.060 S 
ATOM      2  O   UNL     1       1.045  -3.525  -1.134  0.00  0.00    -0.153 OA
ATOM      3  O   UNL     1       1.641  -3.382   1.280  0.00  0.00    -0.153 OA
ENDROOT
BRANCH   1   4
ATOM      4  C   UNL     1      -0.019  -5.173   0.511  0.00  0.00    +0.122 A 
ATOM      5  C   UNL     1      -0.192  -6.042  -0.550  0.00  0.00    +0.049 A 
ATOM      6  C   UNL     1      -0.750  -7.291  -0.343  0.00  0.00    +0.045 A 
ATOM      7  C   UNL     1      -1.138  -7.673   0.928  0.00  0.00    +0.044 A 
ATOM      8  C   UNL     1      -0.966  -6.803   1.996  0.00  0.00    +0.042 A 
ATOM      9  C   UNL     1      -0.400  -5.551   1.785  0.00  0.00    +0.065 A 
ATOM     10 BR   UNL     1      -0.157  -4.365   3.237  0.00  0.00    -0.046 Br
ATOM     11 CL   UNL     1      -0.965  -8.378  -1.679  0.00  0.00    -0.083 Cl
BRANCH   8  12
ATOM     12  N   UNL     1      -1.357  -7.186   3.282  0.00  0.00    -0.357 N 
ATOM     13  H   UNL     1      -1.749  -8.061   3.429  0.00  0.00    +0.142 HD
ATOM     14  H   UNL     1      -1.237  -6.577   4.027  0.00  0.00    +0.142 HD
ENDBRANCH   8  12
ENDBRANCH   1   4
BRANCH   1  15
ATOM     15  N   UNL     1      -0.506  -2.465   0.471  0.00  0.00    -0.187 NA
ATOM     16  H   UNL     1      -0.455  -1.845   1.216  0.00  0.00    +0.148 HD
BRANCH  15  17
ATOM     17  C   UNL     1      -1.643  -2.410  -0.451  0.00  0.00    +0.076 C 
BRANCH  17  18
ATOM     18  C   UNL     1      -2.948  -2.416   0.348  0.00  0.00    +0.017 C 
ATOM     19  C   UNL     1      -2.985  -3.649   1.254  0.00  0.00    +0.005 C 
ENDBRANCH  17  18
BRANCH  17  20
ATOM     20  C   UNL     1      -1.562  -1.130  -1.285  0.00  0.00    +0.020 C 
BRANCH  20  22
ATOM     21  C   UNL     1      -0.239   0.100  -3.011  0.00  0.00    +0.004 C 
ATOM     22  C   UNL     1      -0.320  -1.180  -2.177  0.00  0.00    -0.002 C 
ENDBRANCH  20  22
ENDBRANCH  17  20
ENDBRANCH  15  17
ENDBRANCH   1  15
TORSDOF 7
