REMARK  Name = ZINC22434443
REMARK  11 active torsions:
REMARK  status: ('A' for Active; 'I' for Inactive)
REMARK    1  A    between atoms: C_1  and  C_2
REMARK    2  A    between atoms: C_2  and  N_3
REMARK    3  A    between atoms: N_3  and  C_4
REMARK    4  A    between atoms: N_3  and  C_6
REMARK    5  A    between atoms: C_4  and  C_5
REMARK    6  A    between atoms: C_9  and  C_12
REMARK    7  A    between atoms: C_15  and  S_18
REMARK    8  A    between atoms: N_16  and  C_17
REMARK    9  A    between atoms: S_18  and  C_19
REMARK   10  A    between atoms: C_19  and  C_20
REMARK   11  A    between atoms: N_25  and  C_26
REMARK                            x       y       z     vdW  Elec       q    Type
REMARK                         _______ _______ _______ _____ _____    ______ ____
ROOT
ATOM      1  C   UNL     1      -8.534  -0.101   2.168  0.00  0.00    +0.173 C 
ENDROOT
BRANCH   1   2
ATOM      2  C   UNL     1      -7.041   0.100   2.179  0.00  0.00    +0.231 C 
ATOM      3  O   UNL     1      -6.517   0.705   3.090  0.00  0.00    -0.274 OA
ATOM      4  N   UNL     1      -6.287  -0.394   1.177  0.00  0.00    -0.239 N 
ATOM      5  C   UNL     1      -4.952  -0.214   1.186  0.00  0.00    +0.306 C 
ATOM      6  O   UNL     1      -4.427   0.393   2.099  0.00  0.00    -0.252 OA
ATOM      7  N   UNL     1      -4.198  -0.707   0.184  0.00  0.00    -0.294 N 
ATOM      8  H   UNL     1      -6.762  -0.943   0.350  0.00  0.00    +0.159 HD
ATOM      9  H   UNL     1      -4.673  -1.256  -0.643  0.00  0.00    +0.151 HD
BRANCH   7  10
ATOM     10  C   UNL     1      -2.746  -0.512   0.195  0.00  0.00    +0.037 C 
ATOM     11  C   UNL     1      -2.135  -1.165  -1.047  0.00  0.00    +0.029 C 
ATOM     12  C   UNL     1      -0.618  -0.961  -1.036  0.00  0.00    -0.008 C 
ATOM     13  C   UNL     1      -0.027  -1.602   0.221  0.00  0.00    +0.007 C 
ATOM     14  C   UNL     1      -0.638  -0.950   1.463  0.00  0.00    -0.008 C 
ATOM     15  C   UNL     1      -2.155  -1.153   1.451  0.00  0.00    +0.029 C 
ATOM     16  C   UNL     1      -0.325   0.548   1.458  0.00  0.00    +0.007 C 
ATOM     17  C   UNL     1      -0.916   1.189   0.201  0.00  0.00    -0.008 C 
ATOM     18  C   UNL     1      -0.305   0.537  -1.040  0.00  0.00    +0.007 C 
ATOM     19  C   UNL     1      -2.433   0.985   0.190  0.00  0.00    +0.029 C 
ENDBRANCH   7  10
ENDBRANCH   1   2
BRANCH   1  20
ATOM     20  S   UNL     1      -9.258   0.671   3.637  0.00  0.00    -0.077 S 
BRANCH  20  24
ATOM     21  C   UNL     1     -13.128   0.135   3.582  0.00  0.00    +0.165 A 
ATOM     22  N   UNL     1     -12.738  -0.464   2.480  0.00  0.00    -0.128 NA
ATOM     23  N   UNL     1     -11.463  -0.365   2.355  0.00  0.00    -0.122 NA
ATOM     24  C   UNL     1     -10.959   0.295   3.374  0.00  0.00    +0.192 A 
ATOM     25  N   UNL     1     -12.001   0.639   4.188  0.00  0.00    -0.305 N 
ATOM     26  C   UNL     1     -11.931   1.389   5.445  0.00  0.00    +0.153 C 
BRANCH  21  30
ATOM     27  C   UNL     1     -17.120   0.458   5.003  0.00  0.00    +0.030 A 
ATOM     28  C   UNL     1     -16.149   1.347   5.452  0.00  0.00    +0.024 A 
ATOM     29  C   UNL     1     -14.854   1.244   4.994  0.00  0.00    +0.013 A 
ATOM     30  C   UNL     1     -14.516   0.247   4.076  0.00  0.00    +0.019 A 
ATOM     31  C   UNL     1     -15.494  -0.640   3.623  0.00  0.00    +0.013 A 
ATOM     32  C   UNL     1     -16.787  -0.536   4.090  0.00  0.00    +0.024 A 
BRANCH  27  33
ATOM     33  N   UNL     1     -18.431   0.564   5.470  0.00  0.00    -0.330 N 
BRANCH  33  35
ATOM     34  C   UNL     1     -19.496  -1.590   5.920  0.00  0.00    +0.024 C 
ATOM     35  C   UNL     1     -19.454  -0.371   4.997  0.00  0.00    +0.102 C 
ENDBRANCH  33  35
BRANCH  33  36
ATOM     36  C   UNL     1     -18.783   1.611   6.431  0.00  0.00    +0.102 C 
ATOM     37  C   UNL     1     -19.221   2.869   5.678  0.00  0.00    +0.024 C 
ENDBRANCH  33  36
ENDBRANCH  27  33
ENDBRANCH  21  30
ENDBRANCH  20  24
ENDBRANCH   1  20
TORSDOF 8
