REMARK  Name = ZINC16310769
REMARK  6 active torsions:
REMARK  status: ('A' for Active; 'I' for Inactive)
REMARK    1  A    between atoms: C_1  and  C_2
REMARK    2  A    between atoms: C_5  and  S_8
REMARK    3  A    between atoms: S_8  and  C_11
REMARK    4  A    between atoms: C_14  and  C_16
REMARK    5  A    between atoms: C_17  and  N_29
REMARK    6  A    between atoms: C_19  and  C_20
REMARK                            x       y       z     vdW  Elec       q    Type
REMARK                         _______ _______ _______ _____ _____    ______ ____
ROOT
ATOM      1  C   UNL     1      -2.308   7.941  -0.966  0.00  0.00    +0.006 C 
ATOM      2  C   UNL     1      -1.392   7.546  -0.047  0.00  0.00    +0.039 C 
ATOM      3  C   UNL     1      -1.498   6.225   0.583  0.00  0.00    -0.025 C 
ATOM      4  C   UNL     1      -0.485   5.717   1.315  0.00  0.00    +0.013 C 
ATOM      5  C   UNL     1      -2.782   5.448   0.378  0.00  0.00    +0.037 C 
ATOM      6  C   UNL     1      -3.190   5.608  -1.090  0.00  0.00    +0.009 C 
ATOM      7  C   UNL     1      -3.467   7.082  -1.379  0.00  0.00    +0.040 C 
ENDROOT
BRANCH   1  11
ATOM      8  C   UNL     1      -2.683  11.053  -2.852  0.00  0.00    +0.208 A 
ATOM      9  C   UNL     1      -1.521  11.654  -2.477  0.00  0.00    +0.124 A 
ATOM     10  S   UNL     1      -0.838  10.407  -1.392  0.00  0.00    -0.054 S 
ATOM     11  C   UNL     1      -2.163   9.219  -1.562  0.00  0.00    +0.110 A 
ATOM     12  N   UNL     1      -2.981   9.860  -2.393  0.00  0.00    -0.219 NA
ATOM     13 CL   UNL     1      -0.882  13.205  -2.922  0.00  0.00    -0.072 Cl
BRANCH   8  14
ATOM     14  S   UNL     1      -3.786  11.877  -3.953  0.00  0.00    +0.044 S 
ATOM     15  O   UNL     1      -3.005  12.808  -4.688  0.00  0.00    -0.163 OA
ATOM     16  O   UNL     1      -4.560  10.866  -4.583  0.00  0.00    -0.163 OA
BRANCH  14  21
ATOM     17  C   UNL     1      -7.598  15.111  -0.573  0.00  0.00    +0.044 C 
ATOM     18  C   UNL     1      -6.645  14.303  -1.417  0.00  0.00    -0.050 A 
ATOM     19  C   UNL     1      -5.461  14.866  -1.854  0.00  0.00    +0.005 A 
ATOM     20  C   UNL     1      -4.588  14.125  -2.628  0.00  0.00    +0.028 A 
ATOM     21  C   UNL     1      -4.899  12.821  -2.965  0.00  0.00    +0.095 A 
ATOM     22  C   UNL     1      -6.085  12.259  -2.532  0.00  0.00    +0.028 A 
ATOM     23  C   UNL     1      -6.956  12.998  -1.754  0.00  0.00    +0.005 A 
ENDBRANCH  14  21
ENDBRANCH   8  14
ENDBRANCH   1  11
BRANCH   4  24
ATOM     24  C   UNL     1      -0.678   4.473   2.076  0.00  0.00    -0.025 A 
ATOM     25  C   UNL     1      -1.885   4.237   2.742  0.00  0.00    +0.008 A 
ATOM     26  C   UNL     1      -2.059   3.068   3.453  0.00  0.00    +0.001 A 
ATOM     27  C   UNL     1      -1.042   2.130   3.508  0.00  0.00    +0.000 A 
ATOM     28  C   UNL     1       0.157   2.358   2.856  0.00  0.00    +0.001 A 
ATOM     29  C   UNL     1       0.344   3.520   2.137  0.00  0.00    +0.008 A 
ENDBRANCH   4  24
BRANCH   2  30
ATOM     30  N   UNL     1      -0.347   8.397   0.300  0.00  0.00    -0.325 N 
ATOM     31  C   UNL     1      -0.503   9.390   1.375  0.00  0.00    +0.133 C 
ATOM     32  C   UNL     1       0.684   9.242   2.339  0.00  0.00    +0.178 C 
ATOM     33  O   UNL     1       1.903   9.300   1.595  0.00  0.00    -0.377 OA
ATOM     34  C   UNL     1       2.060   8.242   0.646  0.00  0.00    +0.178 C 
ATOM     35  C   UNL     1       0.945   8.335  -0.402  0.00  0.00    +0.133 C 
ENDBRANCH   2  30
TORSDOF 5
