REMARK  Name = ZINC02405825
REMARK  5 active torsions:
REMARK  status: ('A' for Active; 'I' for Inactive)
REMARK    1  A    between atoms: C_4  and  C_7
REMARK    2  A    between atoms: C_16  and  N_18
REMARK    3  A    between atoms: C_19  and  C_21
REMARK    4  A    between atoms: C_21  and  O_22
REMARK    5  A    between atoms: O_22  and  C_23
REMARK                            x       y       z     vdW  Elec       q    Type
REMARK                         _______ _______ _______ _____ _____    ______ ____
ROOT
ATOM      1  C   UNL     1       3.711  -0.707  -0.038  0.00  0.00    +0.149 C 
ATOM      2  C   UNL     1       3.817  -1.600   1.202  0.00  0.00    +0.128 C 
ATOM      3  C   UNL     1       2.968  -2.831   1.059  0.00  0.00    +0.222 C 
ATOM      4  O   UNL     1       2.410  -3.282   2.037  0.00  0.00    -0.275 OA
ATOM      5  N   UNL     1       2.809  -3.449  -0.133  0.00  0.00    -0.255 N 
ATOM      6  C   UNL     1       3.358  -2.838  -1.255  0.00  0.00    +0.222 A 
ATOM      7  N   UNL     1       3.787  -1.548  -1.232  0.00  0.00    -0.223 N 
ATOM      8  N   UNL     1       4.272  -1.255  -2.504  0.00  0.00    -0.127 NA
ATOM      9  C   UNL     1       4.122  -2.349  -3.226  0.00  0.00    +0.273 A 
ATOM     10  N   UNL     1       3.563  -3.310  -2.453  0.00  0.00    -0.176 NA
ATOM     11  H   UNL     1       2.329  -4.289  -0.203  0.00  0.00    +0.158 HD
ENDROOT
BRANCH   1  15
ATOM     12  C   UNL     1      -0.017   1.378   0.010  0.00  0.00    +0.000 A 
ATOM     13  C   UNL     1       1.171   2.086   0.002  0.00  0.00    +0.000 A 
ATOM     14  C   UNL     1       2.377   1.411  -0.013  0.00  0.00    +0.006 A 
ATOM     15  C   UNL     1       2.396   0.029  -0.020  0.00  0.00    -0.023 A 
ATOM     16  C   UNL     1       1.208  -0.679  -0.012  0.00  0.00    +0.006 A 
ATOM     17  C   UNL     1       0.002  -0.004   0.002  0.00  0.00    +0.000 A 
ENDBRANCH   1  15
BRANCH   9  18
ATOM     18  N   UNL     1       4.475  -2.489  -4.545  0.00  0.00    -0.171 NA
ATOM     19  C   UNL     1       4.278  -3.620  -5.154  0.00  0.00    +0.287 C 
ATOM     20  O   UNL     1       3.727  -4.657  -4.489  0.00  0.00    -0.267 OA
BRANCH  19  21
ATOM     21  C   UNL     1       4.665  -3.774  -6.602  0.00  0.00    +0.329 C 
BRANCH  21  22
ATOM     22  O   UNL     1       5.223  -2.548  -7.079  0.00  0.00    -0.482 OA
BRANCH  22  23
ATOM     23  C   UNL     1       5.627  -2.518  -8.376  0.00  0.00    +0.121 A 
ATOM     24  C   UNL     1       5.484  -3.643  -9.175  0.00  0.00    +0.047 A 
ATOM     25  C   UNL     1       5.895  -3.609 -10.493  0.00  0.00    +0.023 A 
ATOM     26  C   UNL     1       6.450  -2.455 -11.017  0.00  0.00    +0.041 A 
ATOM     27  C   UNL     1       6.594  -1.332 -10.222  0.00  0.00    +0.023 A 
ATOM     28  C   UNL     1       6.178  -1.359  -8.905  0.00  0.00    +0.047 A 
ATOM     29 CL   UNL     1       6.966  -2.416 -12.674  0.00  0.00    -0.084 Cl
ENDBRANCH  22  23
ENDBRANCH  21  22
ENDBRANCH  19  21
ENDBRANCH   9  18
TORSDOF 5
