REMARK  Name = ZINC65248816
REMARK  4 active torsions:
REMARK  status: ('A' for Active; 'I' for Inactive)
REMARK    1  A    between atoms: C_1  and  C_2
REMARK    2  A    between atoms: C_2  and  C_3
REMARK    3  A    between atoms: C_2  and  C_4
REMARK    4  A    between atoms: C_2  and  N_5
REMARK                            x       y       z     vdW  Elec       q    Type
REMARK                         _______ _______ _______ _____ _____    ______ ____
ROOT
ATOM      1  N   UNL     1       0.688  -0.476  -1.203  0.00  0.00    -0.294 N 
ATOM      2  C   UNL     1       1.972  -0.132  -1.427  0.00  0.00    +0.303 C 
ATOM      3  O   UNL     1       2.561   0.570  -0.628  0.00  0.00    -0.253 OA
ATOM      4  N   UNL     1       2.602  -0.567  -2.536  0.00  0.00    -0.284 N 
ATOM      5  C   UNL     1       2.009  -1.413  -3.583  0.00  0.00    +0.111 C 
ATOM      6  C   UNL     1       3.091  -1.635  -4.664  0.00  0.00    +0.041 C 
ATOM      7  C   UNL     1       4.059  -0.464  -4.423  0.00  0.00    +0.091 C 
ATOM      8  C   UNL     1       4.001  -0.267  -2.903  0.00  0.00    +0.130 C 
ATOM      9  C   UNL     1       5.444  -0.771  -4.904  0.00  0.00    -0.010 A 
ATOM     10  C   UNL     1       6.359  -1.757  -4.609  0.00  0.00    +0.006 A 
ATOM     11  C   UNL     1       7.591  -1.771  -5.240  0.00  0.00    +0.000 A 
ATOM     12  C   UNL     1       7.899  -0.794  -6.169  0.00  0.00    +0.002 A 
ATOM     13  C   UNL     1       6.986   0.196  -6.468  0.00  0.00    +0.023 A 
ATOM     14  C   UNL     1       5.745   0.219  -5.837  0.00  0.00    +0.038 A 
ATOM     15  N   UNL     1       4.671   1.103  -5.966  0.00  0.00    -0.284 N 
ATOM     16  C   UNL     1       3.639   0.770  -5.165  0.00  0.00    +0.229 C 
ATOM     17  O   UNL     1       2.581   1.354  -5.064  0.00  0.00    -0.274 OA
ATOM     18  H   UNL     1       0.218  -1.037  -1.840  0.00  0.00    +0.151 HD
ATOM     19  H   UNL     1       4.669   1.869  -6.562  0.00  0.00    +0.155 HD
ENDROOT
BRANCH   1  21
ATOM     20  C   UNL     1      -0.019   1.526   0.010  0.00  0.00    +0.031 C 
ATOM     21  C   UNL     1       0.002  -0.004   0.002  0.00  0.00    +0.028 C 
ATOM     22  C   UNL     1       0.742  -0.511   1.242  0.00  0.00    +0.031 C 
ATOM     23  C   UNL     1      -1.433  -0.534   0.013  0.00  0.00    +0.031 C 
ENDBRANCH   1  21
TORSDOF 1
