REMARK  Name = ZINC39404378
REMARK  9 active torsions:
REMARK  status: ('A' for Active; 'I' for Inactive)
REMARK    1  A    between atoms: C_1  and  C_2
REMARK    2  A    between atoms: C_2  and  S_3
REMARK    3  A    between atoms: S_3  and  C_4
REMARK    4  A    between atoms: C_10  and  C_12
REMARK    5  A    between atoms: C_12  and  S_13
REMARK    6  A    between atoms: S_13  and  C_14
REMARK    7  A    between atoms: N_20  and  N_21
REMARK    8  A    between atoms: C_22  and  C_23
REMARK    9  A    between atoms: C_22  and  C_24
REMARK                            x       y       z     vdW  Elec       q    Type
REMARK                         _______ _______ _______ _____ _____    ______ ____
ROOT
ATOM      1  C   UNL     1       0.179 -14.582  -0.150  0.00  0.00    +0.283 C 
ATOM      2  N   UNL     1      -0.656 -14.118  -1.272  0.00  0.00    -0.324 N 
ATOM      3  C   UNL     1      -1.853 -13.983  -0.772  0.00  0.00    +0.231 C 
ATOM      4  N   UNL     1      -1.871 -14.312   0.552  0.00  0.00    -0.116 NA
ATOM      5  N   UNL     1      -0.761 -14.663   0.979  0.00  0.00    -0.148 NA
ATOM      6  N   UNL     1      -2.954 -13.562  -1.486  0.00  0.00    -0.205 N 
ATOM      7  H   UNL     1      -2.867 -13.344  -2.427  0.00  0.00    +0.177 HD
ATOM      8  H   UNL     1      -0.376 -13.949  -2.186  0.00  0.00    +0.165 HD
ENDROOT
BRANCH   6   9
ATOM      9  N   UNL     1      -4.198 -13.450  -0.853  0.00  0.00    -0.184 NA
ATOM     10  C   UNL     1      -5.257 -13.167  -1.548  0.00  0.00    +0.063 C 
ATOM     11  C   UNL     1      -6.558 -12.862  -0.850  0.00  0.00    +0.068 C 
BRANCH  10  12
ATOM     12  C   UNL     1      -5.188 -13.143  -3.021  0.00  0.00    +0.001 A 
ATOM     13  C   UNL     1      -4.393 -14.070  -3.700  0.00  0.00    +0.013 A 
ATOM     14  C   UNL     1      -4.330 -14.045  -5.077  0.00  0.00    +0.050 A 
ATOM     15  C   UNL     1      -5.054 -13.103  -5.793  0.00  0.00    +0.166 A 
ATOM     16  C   UNL     1      -5.849 -12.175  -5.122  0.00  0.00    +0.167 A 
ATOM     17  C   UNL     1      -5.921 -12.197  -3.741  0.00  0.00    +0.059 A 
ATOM     18  O   UNL     1      -6.450 -11.368  -6.044  0.00  0.00    -0.453 OA
ATOM     19  C   UNL     1      -5.699 -11.547  -7.259  0.00  0.00    +0.466 C 
ATOM     20  O   UNL     1      -5.159 -12.876  -7.135  0.00  0.00    -0.453 OA
ENDBRANCH  10  12
ENDBRANCH   6   9
BRANCH   1  21
ATOM     21  S   UNL     1       1.497 -13.386   0.202  0.00  0.00    -0.102 S 
BRANCH  21  22
ATOM     22  C   UNL     1       0.607 -11.845   0.555  0.00  0.00    +0.169 C 
BRANCH  22  29
ATOM     23  C   UNL     1       3.531  -6.354   2.050  0.00  0.00    +0.160 A 
ATOM     24  N   UNL     1       4.089  -7.524   1.777  0.00  0.00    -0.133 NA
ATOM     25  N   UNL     1       3.400  -8.542   1.495  0.00  0.00    -0.125 NA
ATOM     26  C   UNL     1       2.078  -8.504   1.453  0.00  0.00    +0.189 A 
ATOM     27  S   UNL     1       1.802  -6.788   1.883  0.00  0.00    -0.024 S 
ATOM     28  N   UNL     1       1.163  -9.513   1.164  0.00  0.00    -0.263 N 
ATOM     29  C   UNL     1       1.598 -10.754   0.868  0.00  0.00    +0.229 C 
ATOM     30  O   UNL     1       2.787 -10.992   0.855  0.00  0.00    -0.275 OA
ATOM     31  H   UNL     1       0.211  -9.322   1.175  0.00  0.00    +0.157 HD
BRANCH  23  32
ATOM     32  S   UNL     1       4.277  -4.813   2.467  0.00  0.00    -0.097 S 
BRANCH  32  34
ATOM     33  C   UNL     1       6.833  -3.893   2.785  0.00  0.00    +0.016 C 
ATOM     34  C   UNL     1       6.056  -5.164   2.436  0.00  0.00    +0.073 C 
ENDBRANCH  32  34
ENDBRANCH  23  32
ENDBRANCH  22  29
ENDBRANCH  21  22
ENDBRANCH   1  21
TORSDOF 7
