REMARK  Name = ZINC10070598
REMARK  6 active torsions:
REMARK  status: ('A' for Active; 'I' for Inactive)
REMARK    1  A    between atoms: C_8  and  C_12
REMARK    2  A    between atoms: N_14  and  C_15
REMARK    3  A    between atoms: C_15  and  C_16
REMARK    4  A    between atoms: C_16  and  S_17
REMARK    5  A    between atoms: S_17  and  N_20
REMARK    6  A    between atoms: N_23  and  C_26
REMARK                            x       y       z     vdW  Elec       q    Type
REMARK                         _______ _______ _______ _____ _____    ______ ____
ROOT
ATOM      1  C   UNL     1      -0.734   1.954   1.269  0.00  0.00    +0.204 C 
ENDROOT
BRANCH   1   2
ATOM      2  S   UNL     1      -0.758   3.768   1.279  0.00  0.00    +0.033 S 
ATOM      3  O   UNL     1       0.558   4.274   1.449  0.00  0.00    -0.158 OA
ATOM      4  O   UNL     1      -1.592   4.252   0.234  0.00  0.00    -0.158 OA
BRANCH   2   5
ATOM      5  N   UNL     1      -1.551   4.175   2.675  0.00  0.00    -0.178 NA
ATOM      6  C   UNL     1      -3.011   4.355   2.689  0.00  0.00    +0.128 C 
ATOM      7  C   UNL     1      -3.590   3.506   3.831  0.00  0.00    +0.122 C 
ATOM      8  N   UNL     1      -2.910   3.853   5.086  0.00  0.00    -0.327 N 
ATOM      9  C   UNL     1      -1.479   3.528   5.024  0.00  0.00    +0.122 C 
ATOM     10  C   UNL     1      -0.813   4.372   3.932  0.00  0.00    +0.128 C 
BRANCH   8  11
ATOM     11  C   UNL     1      -3.519   3.226   6.176  0.00  0.00    +0.030 A 
ATOM     12  C   UNL     1      -2.770   2.417   7.021  0.00  0.00    +0.024 A 
ATOM     13  C   UNL     1      -3.373   1.803   8.101  0.00  0.00    +0.022 A 
ATOM     14  C   UNL     1      -4.725   1.984   8.335  0.00  0.00    +0.041 A 
ATOM     15  C   UNL     1      -5.475   2.785   7.492  0.00  0.00    +0.022 A 
ATOM     16  C   UNL     1      -4.876   3.406   6.414  0.00  0.00    +0.024 A 
ATOM     17 CL   UNL     1      -5.482   1.204   9.689  0.00  0.00    -0.084 Cl
ENDBRANCH   8  11
ENDBRANCH   2   5
ENDBRANCH   1   2
BRANCH   1  18
ATOM     18  C   UNL     1      -0.018   1.461   0.010  0.00  0.00    +0.128 C 
BRANCH  18  21
ATOM     19  C   UNL     1       0.585  -0.664  -1.018  0.00  0.00    +0.251 C 
ATOM     20  O   UNL     1       1.095  -0.044  -1.932  0.00  0.00    -0.270 OA
ATOM     21  N   UNL     1       0.002  -0.004   0.002  0.00  0.00    -0.310 N 
ATOM     22  H   UNL     1      -0.404  -0.499   0.731  0.00  0.00    +0.149 HD
BRANCH  19  30
ATOM     23  C   UNL     1      -0.458  -6.394   0.937  0.00  0.00    +0.001 A 
ATOM     24  C   UNL     1       0.152  -7.037  -0.131  0.00  0.00    +0.004 A 
ATOM     25  C   UNL     1       0.723  -6.311  -1.155  0.00  0.00    +0.047 A 
ATOM     26  C   UNL     1       0.690  -4.921  -1.124  0.00  0.00    +0.139 A 
ATOM     27  C   UNL     1       0.071  -4.271  -0.041  0.00  0.00    +0.018 A 
ATOM     28  C   UNL     1      -0.503  -5.030   0.990  0.00  0.00    +0.011 A 
ATOM     29  C   UNL     1       0.034  -2.855   0.010  0.00  0.00    +0.031 A 
ATOM     30  C   UNL     1       0.605  -2.137  -1.026  0.00  0.00    +0.122 A 
ATOM     31  C   UNL     1       1.236  -2.869  -2.130  0.00  0.00    +0.350 A 
ATOM     32  O   UNL     1       1.749  -2.258  -3.049  0.00  0.00    -0.244 OA
ATOM     33  O   UNL     1       1.250  -4.213  -2.128  0.00  0.00    -0.422 OA
ENDBRANCH  19  30
ENDBRANCH  18  21
ENDBRANCH   1  18
TORSDOF 6
