REMARK  Name = ZINC38743700
REMARK  7 active torsions:
REMARK  status: ('A' for Active; 'I' for Inactive)
REMARK    1  A    between atoms: C_1  and  C_2
REMARK    2  A    between atoms: C_3  and  C_7
REMARK    3  A    between atoms: C_10  and  S_18
REMARK    4  A    between atoms: N_11  and  C_12
REMARK    5  A    between atoms: S_18  and  C_19
REMARK    6  A    between atoms: C_19  and  C_20
REMARK    7  A    between atoms: C_20  and  C_22
REMARK                            x       y       z     vdW  Elec       q    Type
REMARK                         _______ _______ _______ _____ _____    ______ ____
ROOT
ATOM      1  C   UNL     1      -2.498  -0.288  -0.425  0.00  0.00    +0.169 A 
ATOM      2  N   UNL     1      -3.584  -1.013  -0.263  0.00  0.00    -0.128 NA
ATOM      3  N   UNL     1      -4.607  -0.248  -0.119  0.00  0.00    -0.122 NA
ATOM      4  C   UNL     1      -4.244   1.012  -0.181  0.00  0.00    +0.197 A 
ATOM      5  N   UNL     1      -2.886   1.035  -0.372  0.00  0.00    -0.270 N 
ENDROOT
BRANCH   1   8
ATOM      6  C   UNL     1      -1.748  -3.216  -0.752  0.00  0.00    +0.086 C 
ATOM      7  C   UNL     1      -0.770  -2.069  -0.771  0.00  0.00    +0.101 C 
ATOM      8  C   UNL     1      -1.132  -0.791  -0.620  0.00  0.00    +0.037 C 
ATOM      9  C   UNL     1       0.136   0.043  -0.687  0.00  0.00    +0.083 C 
ATOM     10  C   UNL     1       1.232  -1.034  -0.497  0.00  0.00    +0.233 C 
ATOM     11  O   UNL     1       0.561  -2.228  -0.936  0.00  0.00    -0.496 OA
ENDBRANCH   1   8
BRANCH   5  12
ATOM     12  C   UNL     1      -2.066   2.165  -0.492  0.00  0.00    +0.050 A 
ATOM     13  C   UNL     1      -1.197   2.506   0.536  0.00  0.00    +0.026 A 
ATOM     14  C   UNL     1      -0.389   3.620   0.414  0.00  0.00    +0.002 A 
ATOM     15  C   UNL     1      -0.446   4.395  -0.729  0.00  0.00    +0.000 A 
ATOM     16  C   UNL     1      -1.310   4.058  -1.755  0.00  0.00    +0.002 A 
ATOM     17  C   UNL     1      -2.116   2.942  -1.641  0.00  0.00    +0.026 A 
ENDBRANCH   5  12
BRANCH   4  18
ATOM     18  S   UNL     1      -5.303   2.413  -0.037  0.00  0.00    -0.078 S 
BRANCH  18  19
ATOM     19  C   UNL     1      -6.950   1.694   0.207  0.00  0.00    +0.156 C 
BRANCH  19  20
ATOM     20  C   UNL     1      -7.965   2.800   0.347  0.00  0.00    +0.172 C 
ATOM     21  O   UNL     1      -7.611   3.960   0.287  0.00  0.00    -0.291 OA
BRANCH  20  22
ATOM     22  C   UNL     1      -9.326   2.487   0.547  0.00  0.00    +0.024 C 
ATOM     23  C   UNL     1     -10.377   3.376   0.687  0.00  0.00    +0.006 A 
ATOM     24  C   UNL     1     -10.449   4.788   0.681  0.00  0.00    +0.010 A 
ATOM     25  C   UNL     1     -11.638   5.410   0.845  0.00  0.00    +0.001 A 
ATOM     26  C   UNL     1     -12.839   4.705   1.026  0.00  0.00    +0.002 A 
ATOM     27  C   UNL     1     -12.879   3.356   1.048  0.00  0.00    +0.026 A 
ATOM     28  C   UNL     1     -11.627   2.600   0.876  0.00  0.00    +0.043 A 
ATOM     29  N   UNL     1     -11.379   1.321   0.856  0.00  0.00    -0.380 N 
ATOM     30  C   UNL     1      -9.943   1.109   0.645  0.00  0.00    +0.152 C 
ATOM     31  H   UNL     1     -12.041   0.620   0.959  0.00  0.00    +0.160 HD
ENDBRANCH  20  22
ENDBRANCH  19  20
ENDBRANCH  18  19
ENDBRANCH   4  18
TORSDOF 6
