REMARK  Name = ZINC67244513
REMARK  5 active torsions:
REMARK  status: ('A' for Active; 'I' for Inactive)
REMARK    1  A    between atoms: C_1  and  N_2
REMARK    2  A    between atoms: N_2  and  C_3
REMARK    3  A    between atoms: N_2  and  C_4
REMARK    4  A    between atoms: N_13  and  S_15
REMARK    5  A    between atoms: S_15  and  C_18
REMARK                            x       y       z     vdW  Elec       q    Type
REMARK                         _______ _______ _______ _____ _____    ______ ____
ROOT
ATOM      1  C   UNL     1       0.674  -0.409   1.613  0.00  0.00    -0.046 C 
ATOM      2  C   UNL     1      -0.044  -0.096   2.926  0.00  0.00    +0.023 C 
ATOM      3  C   UNL     1       0.546  -0.900   4.054  0.00  0.00    -0.026 A 
ATOM      4  C   UNL     1       0.353  -0.470   5.356  0.00  0.00    +0.005 A 
ATOM      5  C   UNL     1       0.879  -1.187   6.413  0.00  0.00    +0.000 A 
ATOM      6  C   UNL     1       1.603  -2.342   6.177  0.00  0.00    +0.002 A 
ATOM      7  C   UNL     1       1.801  -2.777   4.882  0.00  0.00    +0.025 A 
ATOM      8  C   UNL     1       1.274  -2.055   3.817  0.00  0.00    +0.054 A 
ATOM      9  N   UNL     1       1.494  -2.509   2.511  0.00  0.00    -0.204 N 
ATOM     10  C   UNL     1       0.708  -1.930   1.414  0.00  0.00    +0.117 C 
ENDROOT
BRANCH   1  12
ATOM     11  C   UNL     1      -0.082   1.674   0.693  0.00  0.00    -0.096 C 
ATOM     12  N   UNL     1      -0.046   0.218   0.497  0.00  0.00    +0.379 N 
ATOM     13  C   UNL     1       0.643  -0.089  -0.764  0.00  0.00    -0.096 C 
ATOM     14  H   UNL     1      -0.988  -0.140   0.461  0.00  0.00    -0.082 HD
ENDBRANCH   1  12
BRANCH   9  15
ATOM     15  S   UNL     1       2.624  -3.680   2.207  0.00  0.00    +0.077 S 
ATOM     16  O   UNL     1       2.431  -4.695   3.182  0.00  0.00    -0.150 OA
ATOM     17  O   UNL     1       2.570  -3.944   0.811  0.00  0.00    -0.150 OA
BRANCH  15  18
ATOM     18  C   UNL     1       4.206  -2.972   2.523  0.00  0.00    +0.135 A 
ATOM     19  C   UNL     1       5.064  -3.332   3.491  0.00  0.00    +0.114 A 
ATOM     20  N   UNL     1       6.191  -2.557   3.427  0.00  0.00    -0.344 N 
ATOM     21  H   UNL     1       6.952  -2.631   4.024  0.00  0.00    +0.167 HD
ATOM     22  C   UNL     1       6.086  -1.657   2.393  0.00  0.00    +0.140 A 
ATOM     23  C   UNL     1       4.839  -1.883   1.778  0.00  0.00    +0.045 A 
ATOM     24  C   UNL     1       4.464  -1.105   0.680  0.00  0.00    +0.015 A 
ATOM     25  C   UNL     1       5.347  -0.137   0.238  0.00  0.00    +0.020 A 
ATOM     26  C   UNL     1       6.559   0.028   0.890  0.00  0.00    +0.113 A 
ATOM     27  N   UNL     1       6.890  -0.711   1.928  0.00  0.00    -0.237 NA
ENDBRANCH  15  18
ENDBRANCH   9  15
TORSDOF 3
