REMARK  Name = ZINC39668272
REMARK  7 active torsions:
REMARK  status: ('A' for Active; 'I' for Inactive)
REMARK    1  A    between atoms: C_1  and  C_2
REMARK    2  A    between atoms: C_2  and  C_3
REMARK    3  A    between atoms: C_3  and  C_5
REMARK    4  A    between atoms: C_3  and  C_11
REMARK    5  A    between atoms: C_15  and  C_24
REMARK    6  A    between atoms: N_26  and  C_27
REMARK    7  A    between atoms: C_27  and  C_28
REMARK                            x       y       z     vdW  Elec       q    Type
REMARK                         _______ _______ _______ _____ _____    ______ ____
ROOT
ATOM      1  C   UNL     1      -1.398  -2.197   0.093  0.00  0.00    +0.223 C 
ATOM      2  O   UNL     1      -1.936  -2.901  -0.735  0.00  0.00    -0.275 OA
ATOM      3  N   UNL     1      -0.849  -2.748   1.194  0.00  0.00    -0.300 N 
ATOM      4  C   UNL     1      -0.161  -2.057   2.309  0.00  0.00    +0.121 C 
ATOM      5  C   UNL     1      -0.626  -2.805   3.578  0.00  0.00    +0.100 C 
ATOM      6  C   UNL     1      -1.042  -4.200   3.082  0.00  0.00    -0.004 C 
ATOM      7  C   UNL     1      -0.804  -4.183   1.565  0.00  0.00    +0.115 C 
ATOM      8  C   UNL     1      -0.180  -5.274   3.740  0.00  0.00    -0.010 C 
ATOM      9  C   UNL     1      -0.650  -6.655   3.275  0.00  0.00    -0.082 C 
ATOM     10  N   UNL     1      -2.061  -6.841   3.636  0.00  0.00    +0.379 N 
ATOM     11  C   UNL     1      -2.893  -5.863   2.925  0.00  0.00    -0.082 C 
ATOM     12  C   UNL     1      -2.518  -4.448   3.376  0.00  0.00    -0.010 C 
ATOM     13  H   UNL     1      -2.351  -7.774   3.383  0.00  0.00    -0.086 HD
ATOM     14  H   UNL     1      -2.171  -6.715   4.631  0.00  0.00    -0.086 HD
ENDROOT
BRANCH   5  15
ATOM     15  C   UNL     1       0.505  -2.913   4.568  0.00  0.00    +0.218 C 
ATOM     16  O   UNL     1       1.650  -2.979   4.175  0.00  0.00    -0.275 OA
ATOM     17  N   UNL     1       0.243  -2.938   5.890  0.00  0.00    -0.311 N 
ATOM     18  H   UNL     1      -0.673  -2.885   6.205  0.00  0.00    +0.149 HD
BRANCH  17  19
ATOM     19  C   UNL     1       1.343  -3.043   6.853  0.00  0.00    +0.139 C 
BRANCH  19  20
ATOM     20  C   UNL     1       0.786  -3.049   8.253  0.00  0.00    -0.030 A 
ATOM     21  C   UNL     1       0.605  -1.859   8.933  0.00  0.00    +0.009 A 
ATOM     22  C   UNL     1       0.092  -1.859  10.213  0.00  0.00    +0.046 A 
ATOM     23  C   UNL     1      -0.249  -3.059  10.833  0.00  0.00    +0.124 A 
ATOM     24  C   UNL     1      -0.056  -4.248  10.142  0.00  0.00    -0.002 A 
ATOM     25  C   UNL     1       0.449  -4.245   8.860  0.00  0.00    +0.012 A 
ATOM     26  C   UNL     1      -0.487  -5.373  11.064  0.00  0.00    +0.080 C 
ATOM     27  C   UNL     1      -0.547  -4.657  12.434  0.00  0.00    +0.234 C 
ATOM     28  O   UNL     1      -0.774  -3.286  12.068  0.00  0.00    -0.491 OA
ENDBRANCH  19  20
ENDBRANCH  17  19
ENDBRANCH   5  15
BRANCH   1  29
ATOM     29  C   UNL     1      -1.343  -0.704  -0.109  0.00  0.00    +0.105 C 
BRANCH  29  30
ATOM     30  C   UNL     1      -2.022  -0.347  -1.406  0.00  0.00    -0.036 A 
ATOM     31  C   UNL     1      -1.554  -0.868  -2.598  0.00  0.00    +0.004 A 
ATOM     32  C   UNL     1      -2.177  -0.541  -3.787  0.00  0.00    +0.000 A 
ATOM     33  C   UNL     1      -3.269   0.307  -3.785  0.00  0.00    +0.000 A 
ATOM     34  C   UNL     1      -3.739   0.826  -2.593  0.00  0.00    +0.000 A 
ATOM     35  C   UNL     1      -3.118   0.496  -1.403  0.00  0.00    +0.004 A 
ENDBRANCH  29  30
BRANCH  29  37
ATOM     36  C   UNL     1       0.173   1.278  -0.236  0.00  0.00    +0.005 C 
ATOM     37  C   UNL     1       0.117  -0.249  -0.156  0.00  0.00    +0.014 C 
ENDBRANCH  29  37
ENDBRANCH   1  29
TORSDOF 6
