REMARK  Name = ZINC02270292
REMARK  8 active torsions:
REMARK  status: ('A' for Active; 'I' for Inactive)
REMARK    1  A    between atoms: C_1  and  C_2
REMARK    2  A    between atoms: C_6  and  C_31
REMARK    3  A    between atoms: C_7  and  N_8
REMARK    4  A    between atoms: C_10  and  C_29
REMARK    5  A    between atoms: C_10  and  C_30
REMARK    6  A    between atoms: N_11  and  C_15
REMARK    7  A    between atoms: C_18  and  O_21
REMARK    8  A    between atoms: O_21  and  C_22
REMARK                            x       y       z     vdW  Elec       q    Type
REMARK                         _______ _______ _______ _____ _____    ______ ____
ROOT
ATOM      1  N   UNL     1      -0.077   5.216   0.029  0.00  0.00    -0.234 NA
ATOM      2  C   UNL     1      -0.104   5.872  -1.095  0.00  0.00    +0.125 C 
ATOM      3  C   UNL     1      -0.117   7.376  -1.280  0.00  0.00    +0.091 C 
ATOM      4  N   UNL     1      -0.146   7.548  -2.743  0.00  0.00    -0.270 N 
ATOM      5  C   UNL     1      -0.158   6.318  -3.286  0.00  0.00    +0.143 C 
ATOM      6  S   UNL     1      -0.200   6.026  -4.972  0.00  0.00    -0.018 S 
ATOM      7  N   UNL     1      -0.135   5.348  -2.365  0.00  0.00    -0.283 N 
ATOM      8  C   UNL     1      -1.365   7.987  -0.640  0.00  0.00    +0.040 C 
ATOM      9  C   UNL     1       1.151   8.001  -0.694  0.00  0.00    +0.040 C 
ATOM     10  H   UNL     1      -0.139   4.399  -2.567  0.00  0.00    +0.155 HD
ENDROOT
BRANCH   1  17
ATOM     11  C   UNL     1       2.439   3.895  -0.037  0.00  0.00    +0.046 C 
ATOM     12  C   UNL     1       1.132   3.145  -0.010  0.00  0.00    -0.025 A 
ATOM     13  C   UNL     1       1.127   1.765  -0.017  0.00  0.00    +0.005 A 
ATOM     14  C   UNL     1      -0.072   1.075   0.009  0.00  0.00    +0.001 A 
ATOM     15  C   UNL     1      -1.272   1.762   0.035  0.00  0.00    +0.005 A 
ATOM     16  C   UNL     1      -1.281   3.142   0.048  0.00  0.00    -0.025 A 
ATOM     17  C   UNL     1      -0.075   3.844   0.022  0.00  0.00    +0.071 A 
ATOM     18  C   UNL     1      -2.589   3.889   0.082  0.00  0.00    +0.046 C 
ENDBRANCH   1  17
BRANCH   4  19
ATOM     19  C   UNL     1      -0.164   8.764  -3.437  0.00  0.00    +0.037 A 
ATOM     20  C   UNL     1      -0.287   9.960  -2.741  0.00  0.00    +0.027 A 
ATOM     21  C   UNL     1      -0.299  11.158  -3.426  0.00  0.00    +0.048 A 
ATOM     22  C   UNL     1      -0.199  11.168  -4.810  0.00  0.00    +0.129 A 
ATOM     23  C   UNL     1      -0.081   9.974  -5.506  0.00  0.00    +0.048 A 
ATOM     24  C   UNL     1      -0.064   8.775  -4.822  0.00  0.00    +0.027 A 
BRANCH  22  25
ATOM     25  O   UNL     1      -0.216  12.349  -5.484  0.00  0.00    -0.456 OA
BRANCH  25  26
ATOM     26  C   UNL     1      -0.224  13.498  -4.758  0.00  0.00    +0.129 A 
ATOM     27  C   UNL     1      -1.391  14.239  -4.643  0.00  0.00    +0.048 A 
ATOM     28  C   UNL     1      -1.398  15.403  -3.900  0.00  0.00    +0.023 A 
ATOM     29  C   UNL     1      -0.239  15.837  -3.280  0.00  0.00    +0.041 A 
ATOM     30  C   UNL     1       0.927  15.102  -3.399  0.00  0.00    +0.023 A 
ATOM     31  C   UNL     1       0.937  13.934  -4.136  0.00  0.00    +0.048 A 
ATOM     32 CL   UNL     1      -0.249  17.305  -2.353  0.00  0.00    -0.084 Cl
ENDBRANCH  25  26
ENDBRANCH  22  25
ENDBRANCH   4  19
TORSDOF 4
