REMARK  Name = ZINC09962943
REMARK  11 active torsions:
REMARK  status: ('A' for Active; 'I' for Inactive)
REMARK    1  A    between atoms: C_1  and  C_2
REMARK    2  A    between atoms: N_5  and  S_8
REMARK    3  A    between atoms: S_8  and  C_11
REMARK    4  A    between atoms: N_17  and  C_22
REMARK    5  A    between atoms: C_22  and  C_23
REMARK    6  A    between atoms: N_25  and  C_26
REMARK    7  A    between atoms: C_26  and  C_27
REMARK    8  A    between atoms: C_27  and  C_28
REMARK    9  A    between atoms: C_28  and  N_29
REMARK   10  A    between atoms: C_30  and  C_38
REMARK   11  A    between atoms: C_35  and  C_37
REMARK                            x       y       z     vdW  Elec       q    Type
REMARK                         _______ _______ _______ _____ _____    ______ ____
ROOT
ATOM      1  C   UNL     1      -0.795  -5.265   1.507  0.00  0.00    +0.107 A 
ATOM      2  C   UNL     1      -1.687  -5.898   0.662  0.00  0.00    +0.032 A 
ATOM      3  C   UNL     1      -1.397  -7.152   0.154  0.00  0.00    +0.049 A 
ATOM      4  C   UNL     1      -0.209  -7.775   0.493  0.00  0.00    +0.143 A 
ATOM      5  C   UNL     1       0.691  -7.137   1.346  0.00  0.00    +0.081 A 
ATOM      6  C   UNL     1       0.397  -5.879   1.847  0.00  0.00    +0.055 A 
ATOM      7  N   UNL     1       1.890  -7.780   1.683  0.00  0.00    -0.256 N 
ATOM      8  C   UNL     1       2.294  -8.838   0.948  0.00  0.00    +0.258 C 
ATOM      9  O   UNL     1       3.312  -9.430   1.240  0.00  0.00    -0.271 OA
ATOM     10  C   UNL     1       1.475  -9.282  -0.238  0.00  0.00    +0.325 C 
ATOM     11  O   UNL     1       0.093  -9.007   0.003  0.00  0.00    -0.481 OA
ENDROOT
BRANCH   1  12
ATOM     12  S   UNL     1      -1.173  -3.668   2.148  0.00  0.00    +0.061 S 
ATOM     13  O   UNL     1      -0.421  -3.521   3.344  0.00  0.00    -0.153 OA
ATOM     14  O   UNL     1      -2.589  -3.544   2.119  0.00  0.00    -0.153 OA
BRANCH  12  19
ATOM     15  C   UNL     1      -0.019   1.526   0.010  0.00  0.00    +0.007 C 
ATOM     16  C   UNL     1       0.002  -0.004   0.002  0.00  0.00    -0.012 C 
ATOM     17  C   UNL     1      -1.434  -0.533   0.011  0.00  0.00    +0.020 C 
ATOM     18  C   UNL     1      -1.409  -2.065  -0.032  0.00  0.00    +0.110 C 
ATOM     19  N   UNL     1      -0.578  -2.556   1.075  0.00  0.00    -0.177 NA
ATOM     20  C   UNL     1       0.791  -2.042   1.212  0.00  0.00    +0.110 C 
ATOM     21  C   UNL     1       0.742  -0.511   1.242  0.00  0.00    +0.020 C 
ENDBRANCH  12  19
ENDBRANCH   1  12
BRANCH   7  22
ATOM     22  C   UNL     1       2.692  -7.311   2.816  0.00  0.00    +0.209 C 
BRANCH  22  23
ATOM     23  C   UNL     1       2.255  -8.024   4.070  0.00  0.00    +0.231 C 
ATOM     24  O   UNL     1       1.361  -8.842   4.022  0.00  0.00    -0.274 OA
ATOM     25  N   UNL     1       2.857  -7.751   5.244  0.00  0.00    -0.314 N 
ATOM     26  H   UNL     1       3.572  -7.097   5.282  0.00  0.00    +0.149 HD
BRANCH  25  27
ATOM     27  C   UNL     1       2.433  -8.444   6.463  0.00  0.00    +0.102 C 
BRANCH  27  28
ATOM     28  C   UNL     1       3.271  -7.955   7.646  0.00  0.00    +0.000 C 
BRANCH  28  29
ATOM     29  C   UNL     1       2.827  -8.678   8.919  0.00  0.00    -0.077 C 
BRANCH  29  30
ATOM     30  N   UNL     1       3.631  -8.208  10.055  0.00  0.00    +0.383 N 
ATOM     31  C   UNL     1       5.034  -8.589   9.851  0.00  0.00    -0.071 C 
ATOM     32  C   UNL     1       5.889  -8.033  10.990  0.00  0.00    -0.016 C 
ATOM     33  C   UNL     1       5.392  -8.605  12.321  0.00  0.00    -0.003 C 
ATOM     34  C   UNL     1       3.909  -8.264  12.489  0.00  0.00    -0.016 C 
ATOM     35  C   UNL     1       3.126  -8.812  11.294  0.00  0.00    -0.071 C 
ATOM     36  C   UNL     1       1.643  -8.475  11.457  0.00  0.00    -0.013 C 
ATOM     37  C   UNL     1       5.148 -10.115   9.827  0.00  0.00    -0.013 C 
ATOM     38  H   UNL     1       3.564  -7.203  10.121  0.00  0.00    -0.081 HD
ENDBRANCH  29  30
ENDBRANCH  28  29
ENDBRANCH  27  28
ENDBRANCH  25  27
ENDBRANCH  22  23
ENDBRANCH   7  22
TORSDOF 8
