REMARK  Name = ZINC39942326
REMARK  8 active torsions:
REMARK  status: ('A' for Active; 'I' for Inactive)
REMARK    1  A    between atoms: C_1  and  C_2
REMARK    2  A    between atoms: C_4  and  S_9
REMARK    3  A    between atoms: C_5  and  C_8
REMARK    4  A    between atoms: S_9  and  N_12
REMARK    5  A    between atoms: C_15  and  C_18
REMARK    6  A    between atoms: N_20  and  C_21
REMARK    7  A    between atoms: C_21  and  C_22
REMARK    8  A    between atoms: C_22  and  C_23
REMARK                            x       y       z     vdW  Elec       q    Type
REMARK                         _______ _______ _______ _____ _____    ______ ____
ROOT
ATOM      1  N   UNL     1      -2.300  -1.212  -2.470  0.00  0.00    -0.177 NA
ATOM      2  C   UNL     1      -1.454  -0.688  -3.552  0.00  0.00    +0.110 C 
ATOM      3  C   UNL     1      -2.193  -0.862  -4.883  0.00  0.00    +0.030 C 
ATOM      4  C   UNL     1      -2.593  -2.329  -5.052  0.00  0.00    +0.077 C 
ATOM      5  C   UNL     1      -3.538  -2.736  -3.919  0.00  0.00    +0.030 C 
ATOM      6  C   UNL     1      -2.811  -2.585  -2.575  0.00  0.00    +0.110 C 
ENDROOT
BRANCH   4   7
ATOM      7  C   UNL     1      -3.290  -2.510  -6.376  0.00  0.00    +0.216 C 
ATOM      8  O   UNL     1      -3.450  -1.559  -7.112  0.00  0.00    -0.276 OA
ATOM      9  N   UNL     1      -3.734  -3.728  -6.743  0.00  0.00    -0.315 N 
ATOM     10  H   UNL     1      -3.606  -4.489  -6.154  0.00  0.00    +0.149 HD
BRANCH   9  11
ATOM     11  C   UNL     1      -4.411  -3.904  -8.030  0.00  0.00    +0.109 C 
BRANCH  11  12
ATOM     12  C   UNL     1      -4.812  -5.371  -8.200  0.00  0.00    +0.056 C 
BRANCH  12  13
ATOM     13  C   UNL     1      -5.508  -5.552  -9.524  0.00  0.00    -0.021 A 
ATOM     14  C   UNL     1      -4.868  -5.779 -10.821  0.00  0.00    +0.003 A 
ATOM     15  C   UNL     1      -3.542  -5.895 -11.242  0.00  0.00    +0.010 A 
ATOM     16  C   UNL     1      -3.265  -6.112 -12.562  0.00  0.00    +0.001 A 
ATOM     17  C   UNL     1      -4.293  -6.218 -13.490  0.00  0.00    +0.002 A 
ATOM     18  C   UNL     1      -5.608  -6.106 -13.096  0.00  0.00    +0.026 A 
ATOM     19  C   UNL     1      -5.913  -5.886 -11.757  0.00  0.00    +0.047 A 
ATOM     20  N   UNL     1      -7.094  -5.733 -11.066  0.00  0.00    -0.360 N 
ATOM     21  C   UNL     1      -6.834  -5.541  -9.737  0.00  0.00    +0.087 A 
ATOM     22  H   UNL     1      -7.979  -5.762 -11.462  0.00  0.00    +0.165 HD
ENDBRANCH  12  13
ENDBRANCH  11  12
ENDBRANCH   9  11
ENDBRANCH   4   7
BRANCH   1  23
ATOM     23  S   UNL     1      -2.666  -0.273  -1.156  0.00  0.00    +0.061 S 
ATOM     24  O   UNL     1      -3.870  -0.792  -0.609  0.00  0.00    -0.153 OA
ATOM     25  O   UNL     1      -2.539   1.079  -1.574  0.00  0.00    -0.153 OA
BRANCH  23  28
ATOM     26  C   UNL     1      -0.019   1.526   0.010  0.00  0.00    +0.047 C 
ATOM     27  C   UNL     1       0.002  -0.004   0.002  0.00  0.00    +0.196 C 
ATOM     28  C   UNL     1      -1.407  -0.548   0.046  0.00  0.00    +0.134 C 
ATOM     29  C   UNL     1      -1.526  -1.263   1.145  0.00  0.00    +0.061 C 
ATOM     30  N   UNL     1      -0.345  -1.271   1.865  0.00  0.00    -0.268 N 
ATOM     31  O   UNL     1       0.636  -0.500   1.190  0.00  0.00    -0.265 OA
ATOM     32  C   UNL     1      -2.784  -1.980   1.564  0.00  0.00    +0.067 C 
ATOM     33  H   UNL     1      -0.208  -1.735   2.706  0.00  0.00    +0.194 HD
ENDBRANCH  23  28
ENDBRANCH   1  23
TORSDOF 6
