REMARK  Name = ZINC35353629
REMARK  7 active torsions:
REMARK  status: ('A' for Active; 'I' for Inactive)
REMARK    1  A    between atoms: C_1  and  C_2
REMARK    2  A    between atoms: C_2  and  N_3
REMARK    3  A    between atoms: N_3  and  S_4
REMARK    4  A    between atoms: S_4  and  C_7
REMARK    5  A    between atoms: C_12  and  N_13
REMARK    6  A    between atoms: N_13  and  C_14
REMARK    7  A    between atoms: C_19  and  C_22
REMARK                            x       y       z     vdW  Elec       q    Type
REMARK                         _______ _______ _______ _____ _____    ______ ____
ROOT
ATOM      1  C   UNL     1      -1.038  -2.914   0.924  0.00  0.00    +0.126 A 
ATOM      2  C   UNL     1      -1.803  -3.764   1.699  0.00  0.00    +0.030 A 
ATOM      3  C   UNL     1      -1.220  -4.468   2.737  0.00  0.00    +0.002 A 
ATOM      4  C   UNL     1       0.129  -4.322   3.004  0.00  0.00    +0.002 A 
ATOM      5  C   UNL     1       0.899  -3.474   2.233  0.00  0.00    +0.025 A 
ATOM      6  C   UNL     1       0.318  -2.770   1.185  0.00  0.00    +0.054 A 
ENDROOT
BRANCH   1   7
ATOM      7  S   UNL     1      -1.781  -2.018  -0.398  0.00  0.00    +0.060 S 
ATOM      8  O   UNL     1      -1.383  -0.663  -0.245  0.00  0.00    -0.153 OA
ATOM      9  O   UNL     1      -3.146  -2.411  -0.439  0.00  0.00    -0.153 OA
BRANCH   7  10
ATOM     10  N   UNL     1      -1.091  -2.558  -1.804  0.00  0.00    -0.190 NA
ATOM     11  H   UNL     1      -0.560  -1.954  -2.346  0.00  0.00    +0.148 HD
BRANCH  10  13
ATOM     12  C   UNL     1      -0.899  -4.087  -3.703  0.00  0.00    +0.022 C 
ATOM     13  C   UNL     1      -1.284  -3.946  -2.228  0.00  0.00    +0.102 C 
ENDBRANCH  10  13
ENDBRANCH   7  10
ENDBRANCH   1   7
BRANCH   6  14
ATOM     14  N   UNL     1       1.096  -1.916   0.401  0.00  0.00    -0.339 N 
ATOM     15  H   UNL     1       0.709  -1.487  -0.379  0.00  0.00    +0.146 HD
BRANCH  14  16
ATOM     16  C   UNL     1       2.495  -1.667   0.754  0.00  0.00    +0.071 C 
ATOM     17  C   UNL     1       3.375  -2.770   0.164  0.00  0.00    +0.022 C 
ATOM     18  C   UNL     1       3.228  -2.780  -1.359  0.00  0.00    +0.002 C 
ATOM     19  C   UNL     1       3.663  -1.425  -1.922  0.00  0.00    +0.003 C 
ATOM     20  C   UNL     1       2.783  -0.321  -1.331  0.00  0.00    -0.012 C 
ATOM     21  C   UNL     1       2.930  -0.312   0.192  0.00  0.00    +0.025 C 
ATOM     22  C   UNL     1       3.218   1.034  -1.894  0.00  0.00    +0.007 C 
ENDBRANCH  14  16
ENDBRANCH   6  14
TORSDOF 5
