REMARK  Name = ZINC43861835
REMARK  8 active torsions:
REMARK  status: ('A' for Active; 'I' for Inactive)
REMARK    1  A    between atoms: C_1  and  C_2
REMARK    2  A    between atoms: C_2  and  C_5
REMARK    3  A    between atoms: N_3  and  O_4
REMARK    4  A    between atoms: C_10  and  C_32
REMARK    5  A    between atoms: C_21  and  C_31
REMARK    6  A    between atoms: C_24  and  O_27
REMARK    7  A    between atoms: O_27  and  C_28
REMARK    8  A    between atoms: C_28  and  C_30
REMARK                            x       y       z     vdW  Elec       q    Type
REMARK                         _______ _______ _______ _____ _____    ______ ____
ROOT
ATOM      1  C   UNL     1       0.078  -0.632  -1.208  0.00  0.00    -0.021 C 
ATOM      2  C   UNL     1       0.202  -0.096  -2.421  0.00  0.00    -0.021 C 
ATOM      3  C   UNL     1       0.121  -1.182  -3.483  0.00  0.00    +0.032 C 
ATOM      4  C   UNL     1      -0.647  -2.302  -2.751  0.00  0.00    +0.006 C 
ATOM      5  C   UNL     1      -0.081  -2.148  -1.325  0.00  0.00    -0.002 C 
ATOM      6  C   UNL     1       1.329  -2.733  -1.220  0.00  0.00    +0.012 C 
ATOM      7  C   UNL     1       1.373  -4.164  -1.746  0.00  0.00    +0.005 C 
ATOM      8  C   UNL     1       1.008  -4.141  -3.236  0.00  0.00    -0.001 C 
ATOM      9  C   UNL     1      -0.427  -3.664  -3.349  0.00  0.00    -0.003 C 
ATOM     10  C   UNL     1      -0.823  -3.678  -4.827  0.00  0.00    +0.004 C 
ATOM     11  C   UNL     1      -0.689  -5.099  -5.378  0.00  0.00    +0.004 C 
ATOM     12  C   UNL     1       0.761  -5.566  -5.234  0.00  0.00    -0.001 C 
ATOM     13  C   UNL     1       1.155  -5.552  -3.810  0.00  0.00    -0.026 C 
ATOM     14  C   UNL     1       0.260  -6.516  -3.029  0.00  0.00    +0.011 C 
ATOM     15  C   UNL     1       0.408  -7.927  -3.602  0.00  0.00    +0.045 C 
ATOM     16  C   UNL     1      -0.007  -7.925  -5.075  0.00  0.00    +0.177 C 
ATOM     17  C   UNL     1       0.897  -6.985  -5.789  0.00  0.00    +0.048 C 
ATOM     18  C   UNL     1       2.613  -6.001  -3.691  0.00  0.00    +0.012 C 
ATOM     19  C   UNL     1      -1.029  -2.715  -0.266  0.00  0.00    +0.016 C 
ENDROOT
BRANCH   1  21
ATOM     20  C   UNL     1       1.410   0.446   0.717  0.00  0.00    +0.069 C 
ATOM     21  C   UNL     1       0.097   0.120   0.053  0.00  0.00    +0.080 C 
ATOM     22  N   UNL     1      -1.016   0.502   0.596  0.00  0.00    -0.092 NA
BRANCH  22  23
ATOM     23  O   UNL     1      -2.241   0.301  -0.084  0.00  0.00    -0.409 OA
ATOM     24  H   UNL     1      -3.007   0.686   0.363  0.00  0.00    +0.328 HD
ENDBRANCH  22  23
ENDBRANCH   1  21
BRANCH  16  25
ATOM     25  O   UNL     1       0.131  -9.243  -5.610  0.00  0.00    -0.462 OA
BRANCH  25  26
ATOM     26  C   UNL     1      -0.937 -10.052  -5.521  0.00  0.00    +0.304 C 
ATOM     27  O   UNL     1      -1.955  -9.654  -5.006  0.00  0.00    -0.251 OA
ATOM     28  C   UNL     1      -0.866 -11.456  -6.064  0.00  0.00    +0.136 C 
ENDBRANCH  25  26
ENDBRANCH  16  25
TORSDOF 4
