REMARK  Name = ZINC60385507
REMARK  10 active torsions:
REMARK  status: ('A' for Active; 'I' for Inactive)
REMARK    1  A    between atoms: C_1  and  C_2
REMARK    2  A    between atoms: C_2  and  C_4
REMARK    3  A    between atoms: C_2  and  O_17
REMARK    4  A    between atoms: N_6  and  C_7
REMARK    5  A    between atoms: C_10  and  S_13
REMARK    6  A    between atoms: S_13  and  N_16
REMARK    7  A    between atoms: O_17  and  C_18
REMARK    8  A    between atoms: C_18  and  C_20
REMARK    9  A    between atoms: C_22  and  N_27
REMARK   10  A    between atoms: C_25  and  N_26
REMARK                            x       y       z     vdW  Elec       q    Type
REMARK                         _______ _______ _______ _____ _____    ______ ____
ROOT
ATOM      1  C   UNL     1      -0.081   1.478  -0.760  0.00  0.00    +0.062 C 
ATOM      2  C   UNL     1      -0.116  -0.051  -0.733  0.00  0.00    +0.259 C 
ENDROOT
BRANCH   2   3
ATOM      3  C   UNL     1       0.413  -0.588  -2.038  0.00  0.00    +0.258 C 
ATOM      4  O   UNL     1      -0.320  -1.205  -2.782  0.00  0.00    -0.271 OA
ATOM      5  N   UNL     1       1.701  -0.384  -2.377  0.00  0.00    -0.282 N 
ATOM      6  H   UNL     1       2.271   0.163  -1.814  0.00  0.00    +0.155 HD
BRANCH   5   7
ATOM      7  C   UNL     1       2.217  -0.961  -3.543  0.00  0.00    +0.034 A 
ATOM      8  C   UNL     1       3.532  -1.408  -3.575  0.00  0.00    +0.025 A 
ATOM      9  C   UNL     1       4.038  -1.977  -4.727  0.00  0.00    +0.030 A 
ATOM     10  C   UNL     1       3.238  -2.101  -5.848  0.00  0.00    +0.105 A 
ATOM     11  C   UNL     1       1.929  -1.656  -5.820  0.00  0.00    +0.030 A 
ATOM     12  C   UNL     1       1.415  -1.092  -4.669  0.00  0.00    +0.025 A 
BRANCH  10  13
ATOM     13  S   UNL     1       3.888  -2.827  -7.316  0.00  0.00    +0.056 S 
ATOM     14  O   UNL     1       3.107  -2.332  -8.395  0.00  0.00    -0.153 OA
ATOM     15  O   UNL     1       5.299  -2.664  -7.260  0.00  0.00    -0.153 OA
BRANCH  13  16
ATOM     16  N   UNL     1       3.595  -4.455  -7.228  0.00  0.00    -0.204 NA
ATOM     17  H   UNL     1       3.461  -4.968  -8.040  0.00  0.00    +0.144 HD
ATOM     18  H   UNL     1       3.559  -4.895  -6.365  0.00  0.00    +0.144 HD
ENDBRANCH  13  16
ENDBRANCH  10  13
ENDBRANCH   5   7
ENDBRANCH   2   3
BRANCH   2  19
ATOM     19  O   UNL     1      -1.463  -0.493  -0.548  0.00  0.00    -0.449 OA
BRANCH  19  20
ATOM     20  C   UNL     1      -1.880  -0.665   0.722  0.00  0.00    +0.342 C 
ATOM     21  O   UNL     1      -1.122  -0.446   1.646  0.00  0.00    -0.245 OA
BRANCH  20  22
ATOM     22  C   UNL     1      -3.256  -1.119   0.990  0.00  0.00    +0.082 A 
ATOM     23  C   UNL     1      -4.096  -1.480  -0.068  0.00  0.00    +0.049 A 
ATOM     24  C   UNL     1      -5.381  -1.903   0.189  0.00  0.00    +0.127 A 
ATOM     25  C   UNL     1      -5.848  -1.974   1.492  0.00  0.00    +0.034 A 
ATOM     26  C   UNL     1      -5.032  -1.621   2.547  0.00  0.00    +0.026 A 
ATOM     27  C   UNL     1      -3.730  -1.197   2.309  0.00  0.00    +0.039 A 
BRANCH  27  28
ATOM     28  N   UNL     1      -2.905  -0.848   3.369  0.00  0.00    -0.357 N 
ATOM     29  H   UNL     1      -1.975  -0.622   3.206  0.00  0.00    +0.142 HD
ATOM     30  H   UNL     1      -3.257  -0.829   4.272  0.00  0.00    +0.142 HD
ENDBRANCH  27  28
BRANCH  24  31
ATOM     31  N   UNL     1      -6.269  -2.284  -0.932  0.00  0.00    +0.056 N 
ATOM     32  O   UNL     1      -5.865  -2.223  -2.071  0.00  0.00    -0.126 OA
ATOM     33  O   UNL     1      -7.397  -2.656  -0.711  0.00  0.00    -0.126 OA
ENDBRANCH  24  31
ENDBRANCH  20  22
ENDBRANCH  19  20
ENDBRANCH   2  19
TORSDOF 9
