REMARK  Name = ZINC49561728
REMARK  7 active torsions:
REMARK  status: ('A' for Active; 'I' for Inactive)
REMARK    1  A    between atoms: C_1  and  C_2
REMARK    2  A    between atoms: C_2  and  C_3
REMARK    3  A    between atoms: C_2  and  C_4
REMARK    4  A    between atoms: C_4  and  C_6
REMARK    5  A    between atoms: C_4  and  N_11
REMARK    6  A    between atoms: C_12  and  C_14
REMARK    7  A    between atoms: C_19  and  N_20
REMARK                            x       y       z     vdW  Elec       q    Type
REMARK                         _______ _______ _______ _____ _____    ______ ____
ROOT
ATOM      1  N   UNL     1      -2.142  -0.048  -1.174  0.00  0.00    -0.304 N 
ATOM      2  C   UNL     1      -2.727   1.166  -1.160  0.00  0.00    +0.249 C 
ATOM      3  O   UNL     1      -2.667   1.859  -0.162  0.00  0.00    -0.270 OA
ATOM      4  H   UNL     1      -2.190  -0.601  -1.970  0.00  0.00    +0.150 HD
ENDROOT
BRANCH   2   5
ATOM      5  C   UNL     1      -3.437   1.652  -2.349  0.00  0.00    +0.095 A 
ATOM      6  C   UNL     1      -3.597   0.963  -3.575  0.00  0.00    +0.149 A 
ATOM      7  N   UNL     1      -4.285   1.721  -4.380  0.00  0.00    -0.180 NA
ATOM      8  N   UNL     1      -4.600   2.919  -3.730  0.00  0.00    -0.264 N 
ATOM      9  H   UNL     1      -5.106   3.654  -4.110  0.00  0.00    +0.190 HD
ATOM     10  C   UNL     1      -4.086   2.877  -2.484  0.00  0.00    +0.124 A 
BRANCH  10  11
ATOM     11  N   UNL     1      -4.183   3.864  -1.524  0.00  0.00    -0.343 N 
ATOM     12  H   UNL     1      -3.774   3.735  -0.653  0.00  0.00    +0.144 HD
ATOM     13  H   UNL     1      -4.660   4.685  -1.719  0.00  0.00    +0.144 HD
ENDBRANCH  10  11
ENDBRANCH   2   5
BRANCH   1  14
ATOM     14  C   UNL     1      -1.433  -0.534   0.013  0.00  0.00    +0.113 C 
BRANCH  14  15
ATOM     15  C   UNL     1      -1.413  -2.041   0.005  0.00  0.00    +0.010 A 
ATOM     16  C   UNL     1      -1.580  -2.902   1.038  0.00  0.00    +0.013 A 
ATOM     17  C   UNL     1      -1.521  -4.261   0.793  0.00  0.00    +0.008 A 
ATOM     18  C   UNL     1      -1.299  -4.692  -0.473  0.00  0.00    +0.045 A 
ATOM     19  S   UNL     1      -1.171  -3.154  -1.370  0.00  0.00    -0.100 S 
ENDBRANCH  14  15
BRANCH  14  21
ATOM     20  C   UNL     1      -0.019   1.526   0.010  0.00  0.00    +0.009 C 
ATOM     21  C   UNL     1       0.002  -0.004   0.002  0.00  0.00    +0.008 C 
ATOM     22  C   UNL     1       0.742  -0.511   1.242  0.00  0.00    +0.009 C 
ENDBRANCH  14  21
ENDBRANCH   1  14
TORSDOF 5
