REMARK  Name = ZINC08820745
REMARK  6 active torsions:
REMARK  status: ('A' for Active; 'I' for Inactive)
REMARK    1  A    between atoms: C_2  and  C_3
REMARK    2  A    between atoms: C_3  and  O_4
REMARK    3  A    between atoms: O_4  and  C_5
REMARK    4  A    between atoms: C_10  and  C_11
REMARK    5  A    between atoms: N_17  and  C_18
REMARK    6  A    between atoms: C_23  and  C_24
REMARK                            x       y       z     vdW  Elec       q    Type
REMARK                         _______ _______ _______ _____ _____    ______ ____
ROOT
ATOM      1  C   UNL     1      -0.788  -4.821  -1.904  0.00  0.00    +0.032 C 
ATOM      2  C   UNL     1      -0.850  -5.672  -2.960  0.00  0.00    +0.078 C 
ATOM      3  C   UNL     1       0.179  -5.989  -3.968  0.00  0.00    +0.256 C 
ATOM      4  O   UNL     1       1.279  -5.468  -3.940  0.00  0.00    -0.269 OA
ATOM      5  N   UNL     1      -0.147  -6.866  -4.903  0.00  0.00    -0.260 N 
ATOM      6  C   UNL     1      -1.397  -7.445  -4.917  0.00  0.00    +0.166 C 
ATOM      7  N   UNL     1      -1.880  -8.325  -5.765  0.00  0.00    -0.225 NA
ATOM      8  S   UNL     1      -2.198  -6.714  -3.499  0.00  0.00    -0.049 S 
ATOM      9  H   UNL     1       0.500  -7.103  -5.585  0.00  0.00    +0.157 HD
ENDROOT
BRANCH   7  10
ATOM     10  C   UNL     1      -3.181  -8.737  -5.657  0.00  0.00    +0.078 A 
ATOM     11  C   UNL     1      -4.209  -7.797  -5.559  0.00  0.00    +0.030 A 
ATOM     12  C   UNL     1      -5.518  -8.219  -5.449  0.00  0.00    +0.022 A 
ATOM     13  C   UNL     1      -5.813  -9.572  -5.436  0.00  0.00    +0.042 A 
ATOM     14  C   UNL     1      -4.798 -10.509  -5.533  0.00  0.00    +0.034 A 
ATOM     15  C   UNL     1      -3.486 -10.100  -5.649  0.00  0.00    +0.082 A 
ATOM     16 CL   UNL     1      -7.462 -10.096  -5.298  0.00  0.00    -0.084 Cl
BRANCH  15  17
ATOM     17  C   UNL     1      -2.383 -11.121  -5.761  0.00  0.00    +0.419 C 
ATOM     18  F   UNL     1      -2.934 -12.407  -5.730  0.00  0.00    -0.166 F 
ATOM     19  F   UNL     1      -1.697 -10.936  -6.965  0.00  0.00    -0.166 F 
ATOM     20  F   UNL     1      -1.496 -10.969  -4.690  0.00  0.00    -0.166 F 
ENDBRANCH  15  17
ENDBRANCH   7  10
BRANCH   1  26
ATOM     21  C   UNL     1      -1.918  -3.958   0.141  0.00  0.00    +0.128 A 
ATOM     22  C   UNL     1      -3.075  -3.644   0.835  0.00  0.00    +0.046 A 
ATOM     23  C   UNL     1      -4.311  -3.858   0.255  0.00  0.00    +0.004 A 
ATOM     24  C   UNL     1      -4.405  -4.388  -1.022  0.00  0.00    +0.001 A 
ATOM     25  C   UNL     1      -3.266  -4.706  -1.728  0.00  0.00    +0.011 A 
ATOM     26  C   UNL     1      -2.007  -4.490  -1.156  0.00  0.00    +0.018 A 
BRANCH  21  27
ATOM     27  O   UNL     1      -0.703  -3.748   0.710  0.00  0.00    -0.487 OA
BRANCH  27  28
ATOM     28  C   UNL     1      -0.691  -3.205   2.032  0.00  0.00    +0.256 C 
BRANCH  28  30
ATOM     29  C   UNL     1       1.106  -1.938   3.092  0.00  0.00    +0.007 C 
ATOM     30  C   UNL     1       0.734  -3.043   2.495  0.00  0.00    +0.006 C 
ENDBRANCH  28  30
ENDBRANCH  27  28
ENDBRANCH  21  27
ENDBRANCH   1  26
TORSDOF 6
