REMARK  Name = ZINC28606066
REMARK  8 active torsions:
REMARK  status: ('A' for Active; 'I' for Inactive)
REMARK    1  A    between atoms: C_1  and  C_2
REMARK    2  A    between atoms: C_5  and  C_17
REMARK    3  A    between atoms: N_8  and  C_10
REMARK    4  A    between atoms: C_17  and  O_19
REMARK    5  A    between atoms: O_19  and  C_20
REMARK    6  A    between atoms: C_20  and  C_21
REMARK    7  A    between atoms: N_23  and  C_24
REMARK    8  A    between atoms: C_24  and  C_25
REMARK                            x       y       z     vdW  Elec       q    Type
REMARK                         _______ _______ _______ _____ _____    ______ ____
ROOT
ATOM      1  C   UNL     1      10.604  10.890  -3.103  0.00  0.00    +0.068 C 
ATOM      2  C   UNL     1       9.117  11.033  -3.300  0.00  0.00    +0.069 A 
ATOM      3  C   UNL     1       8.135  10.047  -2.959  0.00  0.00    +0.031 A 
ATOM      4  C   UNL     1       8.070   8.763  -2.397  0.00  0.00    +0.034 A 
ATOM      5  C   UNL     1       6.859   8.152  -2.247  0.00  0.00    +0.099 A 
ATOM      6  S   UNL     1       5.724   9.373  -2.884  0.00  0.00    -0.062 S 
ATOM      7  C   UNL     1       6.906  10.620  -3.321  0.00  0.00    +0.113 A 
ATOM      8  N   UNL     1       7.138  11.846  -3.836  0.00  0.00    -0.225 N 
ATOM      9  N   UNL     1       8.521  12.070  -3.808  0.00  0.00    -0.170 NA
ENDROOT
BRANCH   8  10
ATOM     10  C   UNL     1       6.168  12.736  -4.314  0.00  0.00    +0.067 A 
ATOM     11  C   UNL     1       5.042  12.253  -4.966  0.00  0.00    +0.029 A 
ATOM     12  C   UNL     1       4.085  13.133  -5.433  0.00  0.00    +0.022 A 
ATOM     13  C   UNL     1       4.253  14.495  -5.259  0.00  0.00    +0.041 A 
ATOM     14  C   UNL     1       5.377  14.980  -4.614  0.00  0.00    +0.022 A 
ATOM     15  C   UNL     1       6.334  14.104  -4.141  0.00  0.00    +0.029 A 
ATOM     16 CL   UNL     1       3.051  15.599  -5.853  0.00  0.00    -0.084 Cl
ENDBRANCH   8  10
BRANCH   5  17
ATOM     17  C   UNL     1       6.565   6.828  -1.696  0.00  0.00    +0.346 C 
ATOM     18  O   UNL     1       7.471   6.118  -1.302  0.00  0.00    -0.244 OA
BRANCH  17  19
ATOM     19  O   UNL     1       5.289   6.396  -1.624  0.00  0.00    -0.451 OA
BRANCH  19  20
ATOM     20  C   UNL     1       5.071   5.073  -1.066  0.00  0.00    +0.328 C 
BRANCH  20  21
ATOM     21  C   UNL     1       3.596   4.764  -1.066  0.00  0.00    +0.251 C 
ATOM     22  O   UNL     1       2.806   5.579  -1.494  0.00  0.00    -0.272 OA
ATOM     23  N   UNL     1       3.155   3.583  -0.590  0.00  0.00    -0.310 N 
ATOM     24  H   UNL     1       3.872   2.844  -0.202  0.00  0.00    +0.149 HD
BRANCH  23  25
ATOM     25  C   UNL     1       1.721   3.283  -0.590  0.00  0.00    +0.135 C 
BRANCH  25  26
ATOM     26  C   UNL     1       1.492   1.889  -0.002  0.00  0.00    +0.135 C 
ATOM     27  C   UNL     1      -0.019   1.544   0.011  0.00  0.00    +0.035 C 
ATOM     28  C   UNL     1       0.002  -0.004   0.002  0.00  0.00    +0.031 C 
ATOM     29  C   UNL     1       1.398  -0.360  -0.546  0.00  0.00    +0.160 C 
ATOM     30  O   UNL     1       2.062   0.876  -0.858  0.00  0.00    -0.375 OA
ENDBRANCH  25  26
ENDBRANCH  23  25
ENDBRANCH  20  21
ENDBRANCH  19  20
ENDBRANCH  17  19
ENDBRANCH   5  17
TORSDOF 7
