REMARK  Name = ZINC14889099
REMARK  8 active torsions:
REMARK  status: ('A' for Active; 'I' for Inactive)
REMARK    1  A    between atoms: C_1  and  O_2
REMARK    2  A    between atoms: O_2  and  C_3
REMARK    3  A    between atoms: C_8  and  C_9
REMARK    4  A    between atoms: C_9  and  C_10
REMARK    5  A    between atoms: C_10  and  N_11
REMARK    6  A    between atoms: C_12  and  C_14
REMARK    7  A    between atoms: C_22  and  C_23
REMARK    8  A    between atoms: C_22  and  N_61
REMARK                            x       y       z     vdW  Elec       q    Type
REMARK                         _______ _______ _______ _____ _____    ______ ____
ROOT
ATOM      1  C   UNL     1      -3.312  -4.788   5.214  0.00  0.00    +0.082 C 
ATOM      2  C   UNL     1      -4.283  -4.201   4.186  0.00  0.00    +0.020 C 
ATOM      3  C   UNL     1      -2.817  -4.418   3.817  0.00  0.00    -0.021 C 
ATOM      4  C   UNL     1      -2.485  -5.559   2.850  0.00  0.00    -0.011 C 
ATOM      5  C   UNL     1      -2.428  -4.994   1.427  0.00  0.00    -0.078 C 
ATOM      6  C   UNL     1      -1.901  -2.755   2.206  0.00  0.00    -0.078 C 
ATOM      7  C   UNL     1      -1.925  -3.180   3.679  0.00  0.00    -0.011 C 
ATOM      8  N   UNL     1      -1.436  -3.896   1.388  0.00  0.00    +0.384 N 
ATOM      9  H   UNL     1      -0.547  -4.239   1.771  0.00  0.00    -0.081 HD
ENDROOT
BRANCH   1  11
ATOM     10  N   UNL     1      -3.877  -6.636   6.757  0.00  0.00    -0.315 N 
ATOM     11  C   UNL     1      -3.444  -6.253   5.539  0.00  0.00    +0.217 C 
ATOM     12  O   UNL     1      -3.162  -7.088   4.706  0.00  0.00    -0.275 OA
ATOM     13  H   UNL     1      -4.102  -5.969   7.424  0.00  0.00    +0.149 HD
BRANCH  10  14
ATOM     14  C   UNL     1      -4.005  -8.061   7.074  0.00  0.00    +0.109 C 
BRANCH  14  15
ATOM     15  C   UNL     1      -4.511  -8.220   8.509  0.00  0.00    +0.057 C 
BRANCH  15  21
ATOM     16  C   UNL     1      -3.543 -10.399   9.285  0.00  0.00    +0.123 A 
ATOM     17  C   UNL     1      -3.668 -11.748   9.585  0.00  0.00    +0.046 A 
ATOM     18  C   UNL     1      -4.889 -12.377   9.434  0.00  0.00    +0.004 A 
ATOM     19  C   UNL     1      -5.985 -11.664   8.985  0.00  0.00    +0.000 A 
ATOM     20  C   UNL     1      -5.864 -10.318   8.691  0.00  0.00    +0.007 A 
ATOM     21  C   UNL     1      -4.644  -9.686   8.835  0.00  0.00    -0.004 A 
BRANCH  16  23
ATOM     22  C   UNL     1      -1.253 -10.575   9.901  0.00  0.00    +0.277 C 
ATOM     23  O   UNL     1      -2.343  -9.778   9.433  0.00  0.00    -0.495 OA
ENDBRANCH  16  23
ENDBRANCH  15  21
ENDBRANCH  14  15
ENDBRANCH  10  14
ENDBRANCH   1  11
BRANCH   8  24
ATOM     24  C   UNL     1      -1.221  -3.462  -0.007  0.00  0.00    -0.003 C 
BRANCH  24  25
ATOM     25  C   UNL     1      -0.429  -2.179  -0.007  0.00  0.00    +0.090 A 
ATOM     26  C   UNL     1       0.908  -2.104  -0.019  0.00  0.00    +0.051 A 
ATOM     27  C   UNL     1       1.237  -0.673  -0.013  0.00  0.00    +0.020 A 
ATOM     28  C   UNL     1       2.427   0.053  -0.020  0.00  0.00    +0.011 A 
ATOM     29  C   UNL     1       2.386   1.420  -0.012  0.00  0.00    +0.001 A 
ATOM     30  C   UNL     1       1.170   2.087   0.002  0.00  0.00    +0.004 A 
ATOM     31  C   UNL     1      -0.017   1.385   0.010  0.00  0.00    +0.047 A 
ATOM     32  C   UNL     1       0.002  -0.004   0.002  0.00  0.00    +0.135 A 
ATOM     33  O   UNL     1      -0.963  -0.945   0.005  0.00  0.00    -0.462 OA
ENDBRANCH  24  25
ENDBRANCH   8  24
TORSDOF 7
