REMARK  Name = ZINC64416737
REMARK  14 active torsions:
REMARK  status: ('A' for Active; 'I' for Inactive)
REMARK    1  A    between atoms: C_1  and  C_2
REMARK    2  A    between atoms: C_3  and  C_37
REMARK    3  A    between atoms: N_6  and  C_26
REMARK    4  A    between atoms: C_10  and  N_11
REMARK    5  A    between atoms: N_11  and  C_12
REMARK    6  A    between atoms: C_14  and  O_24
REMARK    7  A    between atoms: C_15  and  O_22
REMARK    8  A    between atoms: C_17  and  C_18
REMARK    9  A    between atoms: C_18  and  O_20
REMARK   10  A    between atoms: O_20  and  C_21
REMARK   11  A    between atoms: O_22  and  C_23
REMARK   12  A    between atoms: O_24  and  C_25
REMARK   13  A    between atoms: C_26  and  C_27
REMARK   14  A    between atoms: C_27  and  C_28
REMARK                            x       y       z     vdW  Elec       q    Type
REMARK                         _______ _______ _______ _____ _____    ______ ____
ROOT
ATOM      1  C   UNL     1       0.055   1.514   0.020  0.00  0.00    +0.046 C 
ATOM      2  C   UNL     1       0.086   0.007   0.008  0.00  0.00    -0.015 C 
ATOM      3  C   UNL     1       0.101  -0.689  -1.192  0.00  0.00    +0.118 C 
ATOM      4  C   UNL     1       0.131  -2.153  -1.177  0.00  0.00    +0.264 C 
ATOM      5  O   UNL     1       0.145  -2.765  -2.230  0.00  0.00    -0.269 OA
ATOM      6  N   UNL     1       0.145  -2.830  -0.016  0.00  0.00    -0.233 N 
ATOM      7  C   UNL     1       0.131  -2.190   1.167  0.00  0.00    +0.255 C 
ATOM      8  O   UNL     1       0.144  -2.831   2.202  0.00  0.00    -0.269 OA
ATOM      9  C   UNL     1       0.105  -0.722   1.217  0.00  0.00    +0.055 C 
ATOM     10  C   UNL     1       0.097  -0.059   2.440  0.00  0.00    +0.085 C 
ENDROOT
BRANCH  10  11
ATOM     11  N   UNL     1      -0.022  -0.759   3.585  0.00  0.00    -0.319 N 
ATOM     12  H   UNL     1      -0.024  -1.728   3.562  0.00  0.00    +0.152 HD
BRANCH  11  13
ATOM     13  C   UNL     1      -0.141  -0.090   4.800  0.00  0.00    +0.049 A 
ATOM     14  C   UNL     1      -0.270   1.290   4.825  0.00  0.00    +0.073 A 
ATOM     15  C   UNL     1      -0.389   1.955   6.034  0.00  0.00    +0.163 A 
ATOM     16  C   UNL     1      -0.380   1.241   7.234  0.00  0.00    +0.162 A 
ATOM     17  C   UNL     1      -0.252  -0.133   7.222  0.00  0.00    +0.066 A 
ATOM     18  C   UNL     1      -0.137  -0.813   6.005  0.00  0.00    +0.084 A 
BRANCH  18  19
ATOM     19  C   UNL     1      -0.007  -2.278   5.987  0.00  0.00    +0.341 C 
ATOM     20  O   UNL     1      -0.013  -2.876   4.928  0.00  0.00    -0.245 OA
BRANCH  19  21
ATOM     21  O   UNL     1       0.119  -2.958   7.144  0.00  0.00    -0.464 OA
ATOM     22  C   UNL     1       0.241  -4.379   7.051  0.00  0.00    +0.280 C 
ENDBRANCH  19  21
ENDBRANCH  18  19
BRANCH  16  23
ATOM     23  O   UNL     1      -0.497   1.901   8.417  0.00  0.00    -0.491 OA
ATOM     24  C   UNL     1      -0.481   1.109   9.607  0.00  0.00    +0.277 C 
ENDBRANCH  16  23
BRANCH  15  25
ATOM     25  O   UNL     1      -0.514   3.307   6.053  0.00  0.00    -0.491 OA
ATOM     26  C   UNL     1      -0.515   3.976   4.790  0.00  0.00    +0.277 C 
ENDBRANCH  15  25
ENDBRANCH  11  13
ENDBRANCH  10  11
BRANCH   3  27
ATOM     27  C   UNL     1       0.087   0.019  -2.437  0.00  0.00    +0.105 C 
ATOM     28  N   UNL     1       0.075   0.580  -3.424  0.00  0.00    -0.191 NA
ENDBRANCH   3  27
BRANCH   6  29
ATOM     29  C   UNL     1       0.175  -4.294  -0.039  0.00  0.00    +0.121 C 
BRANCH  29  30
ATOM     30  C   UNL     1       1.628  -4.774  -0.047  0.00  0.00    +0.052 C 
BRANCH  30  31
ATOM     31  C   UNL     1       1.659  -6.281  -0.071  0.00  0.00    -0.040 C 
ATOM     32  C   UNL     1       1.776  -7.074  -1.161  0.00  0.00    -0.001 A 
ATOM     33  C   UNL     1       1.902  -6.784  -2.594  0.00  0.00    +0.010 A 
ATOM     34  C   UNL     1       2.002  -7.813  -3.466  0.00  0.00    +0.001 A 
ATOM     35  C   UNL     1       1.988  -9.147  -3.036  0.00  0.00    +0.002 A 
ATOM     36  C   UNL     1       1.875  -9.493  -1.736  0.00  0.00    +0.026 A 
ATOM     37  C   UNL     1       1.764  -8.491  -0.732  0.00  0.00    +0.043 A 
ATOM     38  N   UNL     1       1.644  -8.571   0.571  0.00  0.00    -0.380 N 
ATOM     39  C   UNL     1       1.573  -7.211   1.118  0.00  0.00    +0.144 C 
ATOM     40  H   UNL     1       1.613  -9.391   1.087  0.00  0.00    +0.160 HD
ENDBRANCH  30  31
ENDBRANCH  29  30
ENDBRANCH   6  29
TORSDOF 10
