REMARK  Name = ZINC06894460
REMARK  6 active torsions:
REMARK  status: ('A' for Active; 'I' for Inactive)
REMARK    1  A    between atoms: C_1  and  C_2
REMARK    2  A    between atoms: C_7  and  N_8
REMARK    3  A    between atoms: C_9  and  C_11
REMARK    4  A    between atoms: C_12  and  C_27
REMARK    5  A    between atoms: C_23  and  C_25
REMARK    6  A    between atoms: C_23  and  C_26
REMARK                            x       y       z     vdW  Elec       q    Type
REMARK                         _______ _______ _______ _____ _____    ______ ____
ROOT
ATOM      1  C   UNL     1      -0.301  -2.023  -0.526  0.00  0.00    +0.194 A 
ATOM      2  C   UNL     1      -0.974  -0.930  -0.079  0.00  0.00    +0.008 A 
ATOM      3  C   UNL     1      -0.014  -0.056   0.481  0.00  0.00    +0.038 A 
ATOM      4  C   UNL     1       1.232  -0.689   0.337  0.00  0.00    +0.137 A 
ATOM      5  O   UNL     1       1.016  -1.871  -0.275  0.00  0.00    -0.450 OA
ATOM      6  C   UNL     1       2.381  -0.057   0.804  0.00  0.00    +0.050 A 
ATOM      7  C   UNL     1       2.309   1.179   1.407  0.00  0.00    +0.050 A 
ATOM      8  C   UNL     1       1.086   1.827   1.564  0.00  0.00    +0.133 A 
ATOM      9  C   UNL     1      -0.083   1.213   1.097  0.00  0.00    +0.070 A 
ATOM     10  C   UNL     1      -1.367   1.907   1.252  0.00  0.00    +0.171 C 
ATOM     11  O   UNL     1      -2.369   1.531   0.679  0.00  0.00    -0.292 OA
ATOM     12  C   UNL     1      -1.379   3.120   2.166  0.00  0.00    +0.127 C 
ATOM     13  C   UNL     1      -0.076   3.891   1.909  0.00  0.00    +0.112 C 
ATOM     14  O   UNL     1       1.037   3.037   2.170  0.00  0.00    -0.485 OA
ATOM     15  C   UNL     1      -0.013   5.109   2.834  0.00  0.00    +0.056 C 
ATOM     16  C   UNL     1      -0.034   4.355   0.452  0.00  0.00    +0.056 C 
ATOM     17  C   UNL     1      -2.461  -0.696  -0.162  0.00  0.00    +0.048 C 
ENDROOT
BRANCH   1  19
ATOM     18  N   UNL     1      -0.141  -4.217  -1.585  0.00  0.00    -0.279 N 
ATOM     19  C   UNL     1      -0.913  -3.189  -1.182  0.00  0.00    +0.284 C 
ATOM     20  O   UNL     1      -2.116  -3.225  -1.360  0.00  0.00    -0.266 OA
ATOM     21  H   UNL     1       0.808  -4.218  -1.387  0.00  0.00    +0.155 HD
BRANCH  18  28
ATOM     22  C   UNL     1       1.506  -5.653  -3.408  0.00  0.00    +0.045 C 
ATOM     23  C   UNL     1       0.059  -6.012  -3.188  0.00  0.00    -0.029 A 
ATOM     24  C   UNL     1      -0.506  -7.065  -3.881  0.00  0.00    +0.005 A 
ATOM     25  C   UNL     1      -1.833  -7.396  -3.679  0.00  0.00    +0.000 A 
ATOM     26  C   UNL     1      -2.600  -6.673  -2.783  0.00  0.00    +0.002 A 
ATOM     27  C   UNL     1      -2.041  -5.622  -2.084  0.00  0.00    +0.023 A 
ATOM     28  C   UNL     1      -0.709  -5.284  -2.288  0.00  0.00    +0.037 A 
ENDBRANCH  18  28
ENDBRANCH   1  19
TORSDOF 2
