REMARK  Name = ZINC08816321
REMARK  8 active torsions:
REMARK  status: ('A' for Active; 'I' for Inactive)
REMARK    1  A    between atoms: C_1  and  C_2
REMARK    2  A    between atoms: C_5  and  C_8
REMARK    3  A    between atoms: N_13  and  C_16
REMARK    4  A    between atoms: C_19  and  N_36
REMARK    5  A    between atoms: C_20  and  N_22
REMARK    6  A    between atoms: N_22  and  C_23
REMARK    7  A    between atoms: C_23  and  C_25
REMARK    8  A    between atoms: C_23  and  C_26
REMARK                            x       y       z     vdW  Elec       q    Type
REMARK                         _______ _______ _______ _____ _____    ______ ____
ROOT
ATOM      1  C   UNL     1      -2.377   3.845  -2.150  0.00  0.00    +0.032 A 
ATOM      2  C   UNL     1      -2.782   5.169  -2.032  0.00  0.00    +0.025 A 
ATOM      3  C   UNL     1      -1.997   6.182  -2.547  0.00  0.00    +0.036 A 
ATOM      4  C   UNL     1      -0.804   5.883  -3.177  0.00  0.00    +0.147 A 
ATOM      5  C   UNL     1      -0.391   4.561  -3.294  0.00  0.00    +0.060 A 
ATOM      6  C   UNL     1      -1.178   3.542  -2.777  0.00  0.00    +0.048 A 
ENDROOT
BRANCH   1  12
ATOM      7  C   UNL     1      -6.599   0.620  -1.450  0.00  0.00    +0.247 C 
ATOM      8  O   UNL     1      -7.559   1.117  -0.892  0.00  0.00    -0.270 OA
ATOM      9  N   UNL     1      -5.370   1.144  -1.269  0.00  0.00    -0.295 N 
ATOM     10  C   UNL     1      -5.147   2.233  -0.307  0.00  0.00    +0.127 C 
ATOM     11  C   UNL     1      -4.393   3.363  -1.016  0.00  0.00    +0.124 C 
ATOM     12  N   UNL     1      -3.175   2.821  -1.634  0.00  0.00    -0.327 N 
ATOM     13  C   UNL     1      -3.498   1.832  -2.671  0.00  0.00    +0.124 C 
ATOM     14  C   UNL     1      -4.216   0.640  -2.030  0.00  0.00    +0.127 C 
BRANCH   7  19
ATOM     15  C   UNL     1      -7.302  -3.962  -4.858  0.00  0.00    +0.044 C 
ATOM     16  C   UNL     1      -7.118  -2.762  -3.966  0.00  0.00    -0.050 A 
ATOM     17  C   UNL     1      -8.105  -1.795  -3.900  0.00  0.00    +0.004 A 
ATOM     18  C   UNL     1      -7.943  -0.694  -3.085  0.00  0.00    +0.013 A 
ATOM     19  C   UNL     1      -6.780  -0.557  -2.325  0.00  0.00    +0.037 A 
ATOM     20  C   UNL     1      -5.786  -1.534  -2.400  0.00  0.00    +0.013 A 
ATOM     21  C   UNL     1      -5.963  -2.633  -3.215  0.00  0.00    +0.004 A 
ENDBRANCH   7  19
ENDBRANCH   1  12
BRANCH   4  22
ATOM     22  N   UNL     1       0.035   6.971  -3.727  0.00  0.00    +0.058 N 
ATOM     23  O   UNL     1      -0.269   8.134  -3.528  0.00  0.00    -0.126 OA
ATOM     24  O   UNL     1       1.029   6.704  -4.378  0.00  0.00    -0.126 OA
ENDBRANCH   4  22
BRANCH   5  25
ATOM     25  N   UNL     1       0.815   4.260  -3.931  0.00  0.00    -0.339 N 
ATOM     26  H   UNL     1       1.322   4.963  -4.367  0.00  0.00    +0.146 HD
BRANCH  25  27
ATOM     27  C   UNL     1       1.314   2.883  -3.941  0.00  0.00    +0.074 C 
ATOM     28  C   UNL     1       0.678   2.118  -5.103  0.00  0.00    +0.028 C 
BRANCH  27  29
ATOM     29  C   UNL     1       2.835   2.892  -4.109  0.00  0.00    -0.010 C 
ATOM     30  C   UNL     1       3.471   3.657  -2.946  0.00  0.00    +0.012 C 
ATOM     31  C   UNL     1       4.992   3.667  -3.114  0.00  0.00    -0.010 C 
ATOM     32  C   UNL     1       5.513   2.228  -3.124  0.00  0.00    +0.007 C 
ATOM     33  C   UNL     1       4.877   1.463  -4.286  0.00  0.00    -0.010 C 
ATOM     34  C   UNL     1       3.356   1.454  -4.119  0.00  0.00    +0.012 C 
ATOM     35  C   UNL     1       5.240   2.147  -5.606  0.00  0.00    +0.007 C 
ATOM     36  C   UNL     1       4.719   3.585  -5.596  0.00  0.00    -0.010 C 
ATOM     37  C   UNL     1       5.355   4.350  -4.433  0.00  0.00    +0.007 C 
ATOM     38  C   UNL     1       3.198   3.576  -5.428  0.00  0.00    +0.012 C 
ENDBRANCH  27  29
ENDBRANCH  25  27
ENDBRANCH   5  25
TORSDOF 6
