REMARK  Name = ZINC40370218
REMARK  6 active torsions:
REMARK  status: ('A' for Active; 'I' for Inactive)
REMARK    1  A    between atoms: C_1  and  C_2
REMARK    2  A    between atoms: C_2  and  C_3
REMARK    3  A    between atoms: C_3  and  C_5
REMARK    4  A    between atoms: C_3  and  N_9
REMARK    5  A    between atoms: N_6  and  O_7
REMARK    6  A    between atoms: C_10  and  C_12
REMARK                            x       y       z     vdW  Elec       q    Type
REMARK                         _______ _______ _______ _____ _____    ______ ____
ROOT
ATOM      1  C   UNL     1       0.718  -0.497  -1.257  0.00  0.00    +0.140 C 
ENDROOT
BRANCH   1   2
ATOM      2  C   UNL     1       0.632  -2.000  -1.327  0.00  0.00    +0.152 C 
ATOM      3  N   UNL     1      -0.408  -2.564  -1.848  0.00  0.00    -0.075 NA
ATOM      4  N   UNL     1       1.661  -2.773  -0.837  0.00  0.00    -0.342 N 
ATOM      5  H   UNL     1       2.441  -2.350  -0.446  0.00  0.00    +0.144 HD
ATOM      6  H   UNL     1       1.605  -3.740  -0.883  0.00  0.00    +0.144 HD
BRANCH   3   7
ATOM      7  O   UNL     1      -0.489  -3.976  -1.915  0.00  0.00    -0.408 OA
ATOM      8  H   UNL     1      -1.303  -4.304  -2.320  0.00  0.00    +0.328 HD
ENDBRANCH   3   7
ENDBRANCH   1   2
BRANCH   1   9
ATOM      9  N   UNL     1       2.125  -0.091  -1.209  0.00  0.00    -0.299 N 
ATOM     10  C   UNL     1       2.487   1.134  -1.640  0.00  0.00    +0.280 C 
ATOM     11  O   UNL     1       1.646   1.902  -2.068  0.00  0.00    -0.267 OA
ATOM     12  H   UNL     1       2.795  -0.703  -0.868  0.00  0.00    +0.150 HD
BRANCH  10  13
ATOM     13  C   UNL     1       3.895   1.540  -1.592  0.00  0.00    +0.191 A 
ATOM     14  C   UNL     1       4.395   2.748  -1.989  0.00  0.00    +0.056 A 
ATOM     15  C   UNL     1       5.780   2.703  -1.770  0.00  0.00    +0.058 A 
ATOM     16  C   UNL     1       6.062   1.484  -1.254  0.00  0.00    +0.171 A 
ATOM     17  O   UNL     1       4.922   0.789  -1.143  0.00  0.00    -0.444 OA
ATOM     18 BR   UNL     1       7.781   0.868  -0.762  0.00  0.00    -0.008 Br
ENDBRANCH  10  13
ENDBRANCH   1   9
BRANCH   1  20
ATOM     19  C   UNL     1      -0.019   1.526   0.010  0.00  0.00    +0.006 C 
ATOM     20  C   UNL     1       0.002  -0.004   0.002  0.00  0.00    +0.027 C 
ENDBRANCH   1  20
TORSDOF 5
