REMARK  Name = ZINC36383383
REMARK  3 active torsions:
REMARK  status: ('A' for Active; 'I' for Inactive)
REMARK    1  A    between atoms: C_10  and  C_12
REMARK    2  A    between atoms: C_14  and  N_29
REMARK    3  A    between atoms: C_16  and  C_21
REMARK                            x       y       z     vdW  Elec       q    Type
REMARK                         _______ _______ _______ _____ _____    ______ ____
ROOT
ATOM      1  C   UNL     1       4.700   0.082   1.005  0.00  0.00    +0.030 C 
ATOM      2  C   UNL     1       5.698   0.741   0.390  0.00  0.00    +0.186 C 
ATOM      3  C   UNL     1       6.750   1.476   1.177  0.00  0.00    +0.187 C 
ATOM      4  C   UNL     1       6.149   1.970   2.495  0.00  0.00    +0.063 C 
ATOM      5  C   UNL     1       5.593   0.769   3.267  0.00  0.00    +0.090 C 
ATOM      6  C   UNL     1       4.586   0.056   2.402  0.00  0.00    +0.162 C 
ATOM      7  O   UNL     1       3.669  -0.550   2.921  0.00  0.00    -0.292 OA
ATOM      8  O   UNL     1       5.757   0.744  -0.956  0.00  0.00    -0.290 OA
ENDROOT
BRANCH   1  18
ATOM      9  C   UNL     1      -0.103   1.293   0.688  0.00  0.00    +0.000 A 
ATOM     10  C   UNL     1       1.057   2.036   0.568  0.00  0.00    +0.000 A 
ATOM     11  C   UNL     1       2.269   1.398   0.403  0.00  0.00    +0.002 A 
ATOM     12  C   UNL     1       2.331   0.013   0.357  0.00  0.00    -0.054 A 
ATOM     13  C   UNL     1       1.175  -0.728   0.480  0.00  0.00    -0.047 A 
ATOM     14  C   UNL     1      -0.043  -0.086   0.644  0.00  0.00    +0.004 A 
ATOM     15  C   UNL     1       1.199  -2.234   0.443  0.00  0.00    +0.016 C 
ATOM     16  C   UNL     1       2.528  -2.717  -0.138  0.00  0.00    -0.077 C 
ATOM     17  N   UNL     1       3.624  -2.048   0.580  0.00  0.00    +0.387 N 
ATOM     18  C   UNL     1       3.675  -0.642   0.171  0.00  0.00    -0.003 C 
ATOM     19  H   UNL     1       3.461  -2.105   1.574  0.00  0.00    -0.085 HD
ATOM     20  H   UNL     1       4.499  -2.497   0.355  0.00  0.00    -0.085 HD
ENDBRANCH   1  18
BRANCH   4  21
ATOM     21  C   UNL     1       7.218   2.649   3.314  0.00  0.00    +0.012 A 
ATOM     22  C   UNL     1       7.621   2.099   4.519  0.00  0.00    +0.128 A 
ATOM     23  C   UNL     1       8.602   2.723   5.270  0.00  0.00    +0.039 A 
ATOM     24  C   UNL     1       9.179   3.895   4.816  0.00  0.00    +0.004 A 
ATOM     25  C   UNL     1       8.776   4.444   3.614  0.00  0.00    +0.020 A 
ATOM     26  C   UNL     1       7.800   3.818   2.859  0.00  0.00    +0.047 A 
ATOM     27 CL   UNL     1       7.300   4.504   1.345  0.00  0.00    -0.083 Cl
ATOM     28  F   UNL     1       7.057   0.954   4.962  0.00  0.00    -0.205 F 
ENDBRANCH   4  21
BRANCH   3  29
ATOM     29  N   UNL     1       7.869   0.572   1.458  0.00  0.00    -0.241 N 
ATOM     30  C   UNL     1       7.796  -0.747   1.705  0.00  0.00    +0.219 A 
ATOM     31  N   UNL     1       9.011  -1.190   1.906  0.00  0.00    -0.223 NA
ATOM     32  C   UNL     1       9.881  -0.188   1.796  0.00  0.00    +0.245 A 
ATOM     33  N   UNL     1       9.230   0.911   1.518  0.00  0.00    -0.158 NA
ENDBRANCH   3  29
TORSDOF 3
