REMARK  Name = ZINC22258353
REMARK  6 active torsions:
REMARK  status: ('A' for Active; 'I' for Inactive)
REMARK    1  A    between atoms: C_1  and  C_2
REMARK    2  A    between atoms: C_2  and  C_4
REMARK    3  A    between atoms: C_2  and  O_18
REMARK    4  A    between atoms: C_9  and  C_12
REMARK    5  A    between atoms: O_18  and  C_19
REMARK    6  A    between atoms: C_19  and  C_21
REMARK                            x       y       z     vdW  Elec       q    Type
REMARK                         _______ _______ _______ _____ _____    ______ ____
ROOT
ATOM      1  C   UNL     1       2.049  -6.720   3.465  0.00  0.00    +0.062 C 
ATOM      2  C   UNL     1       1.554  -5.587   4.367  0.00  0.00    +0.259 C 
ENDROOT
BRANCH   2   3
ATOM      3  C   UNL     1       2.156  -5.738   5.740  0.00  0.00    +0.259 C 
ATOM      4  O   UNL     1       2.852  -4.856   6.197  0.00  0.00    -0.271 OA
ATOM      5  N   UNL     1       1.922  -6.853   6.460  0.00  0.00    -0.262 N 
ATOM      6  C   UNL     1       2.478  -6.993   7.726  0.00  0.00    +0.165 A 
ATOM      7  N   UNL     1       2.370  -7.994   8.579  0.00  0.00    -0.225 NA
ATOM      8  C   UNL     1       2.974  -7.961   9.758  0.00  0.00    +0.080 A 
ATOM      9  C   UNL     1       3.723  -6.869  10.097  0.00  0.00    +0.076 A 
ATOM     10  S   UNL     1       3.534  -5.867   8.627  0.00  0.00    -0.060 S 
ATOM     11  H   UNL     1       1.291  -7.653   6.045  0.00  0.00    +0.157 HD
BRANCH   8  12
ATOM     12  C   UNL     1       2.839  -9.098  10.700  0.00  0.00    +0.001 A 
ATOM     13  C   UNL     1       3.480  -9.061  11.938  0.00  0.00    +0.010 A 
ATOM     14  C   UNL     1       3.346 -10.119  12.813  0.00  0.00    +0.001 A 
ATOM     15  C   UNL     1       2.587 -11.220  12.460  0.00  0.00    +0.000 A 
ATOM     16  C   UNL     1       1.952 -11.264  11.232  0.00  0.00    +0.001 A 
ATOM     17  C   UNL     1       2.074 -10.209  10.351  0.00  0.00    +0.010 A 
ENDBRANCH   8  12
ENDBRANCH   2   3
BRANCH   2  18
ATOM     18  O   UNL     1       1.951  -4.310   3.802  0.00  0.00    -0.449 OA
BRANCH  18  19
ATOM     19  C   UNL     1       1.092  -3.727   2.944  0.00  0.00    +0.340 C 
ATOM     20  O   UNL     1       0.039  -4.270   2.675  0.00  0.00    -0.245 OA
BRANCH  19  21
ATOM     21  C   UNL     1       1.429  -2.428   2.331  0.00  0.00    +0.063 A 
ATOM     22  C   UNL     1       2.639  -1.802   2.640  0.00  0.00    +0.017 A 
ATOM     23  C   UNL     1       2.955  -0.589   2.068  0.00  0.00    +0.028 A 
ATOM     24  C   UNL     1       2.070   0.013   1.183  0.00  0.00    +0.076 A 
ATOM     25  C   UNL     1       0.858  -0.608   0.870  0.00  0.00    +0.143 A 
ATOM     26  C   UNL     1       0.537  -1.822   1.440  0.00  0.00    +0.062 A 
ATOM     27  O   UNL     1       0.002  -0.004   0.002  0.00  0.00    -0.481 OA
ATOM     28  C   UNL     1      -0.017   1.426   0.010  0.00  0.00    +0.325 C 
ATOM     29  C   UNL     1       1.396   1.951  -0.001  0.00  0.00    +0.255 C 
ATOM     30  O   UNL     1       1.649   3.006  -0.543  0.00  0.00    -0.272 OA
ATOM     31  N   UNL     1       2.379   1.242   0.595  0.00  0.00    -0.280 N 
ATOM     32  H   UNL     1       3.412   1.620   0.621  0.00  0.00    +0.155 HD
ENDBRANCH  19  21
ENDBRANCH  18  19
ENDBRANCH   2  18
TORSDOF 5
