REMARK  Name = ZINC11612252
REMARK  7 active torsions:
REMARK  status: ('A' for Active; 'I' for Inactive)
REMARK    1  A    between atoms: C_1  and  C_2
REMARK    2  A    between atoms: C_2  and  O_3
REMARK    3  A    between atoms: O_3  and  C_4
REMARK    4  A    between atoms: C_7  and  N_10
REMARK    5  A    between atoms: C_15  and  C_30
REMARK    6  A    between atoms: N_17  and  C_23
REMARK    7  A    between atoms: C_33  and  C_36
REMARK                            x       y       z     vdW  Elec       q    Type
REMARK                         _______ _______ _______ _____ _____    ______ ____
ROOT
ATOM      1  N   UNL     1      -1.989  -5.992  -0.010  0.00  0.00    -0.208 N 
ATOM      2  C   UNL     1      -3.187  -6.579   0.086  0.00  0.00    +0.235 C 
ATOM      3  O   UNL     1      -4.246  -5.998   0.197  0.00  0.00    -0.274 OA
ATOM      4  C   UNL     1      -3.016  -8.079   0.035  0.00  0.00    +0.145 C 
ATOM      5  C   UNL     1      -3.372  -8.683   1.413  0.00  0.00    +0.157 C 
ATOM      6  N   UNL     1      -2.227  -9.587   1.679  0.00  0.00    -0.244 N 
ATOM      7  O   UNL     1      -1.088  -8.877   1.190  0.00  0.00    -0.257 OA
ATOM      8  C   UNL     1      -1.478  -8.263  -0.074  0.00  0.00    +0.249 C 
ATOM      9  C   UNL     1      -0.961  -6.842  -0.118  0.00  0.00    +0.259 C 
ATOM     10  O   UNL     1       0.203  -6.522  -0.231  0.00  0.00    -0.272 OA
ENDROOT
BRANCH   6  11
ATOM     11  C   UNL     1      -2.256 -10.850   2.277  0.00  0.00    +0.065 A 
ATOM     12  C   UNL     1      -3.463 -11.396   2.693  0.00  0.00    +0.029 A 
ATOM     13  C   UNL     1      -3.489 -12.644   3.282  0.00  0.00    +0.022 A 
ATOM     14  C   UNL     1      -2.312 -13.352   3.459  0.00  0.00    +0.041 A 
ATOM     15  C   UNL     1      -1.108 -12.810   3.045  0.00  0.00    +0.022 A 
ATOM     16  C   UNL     1      -1.077 -11.565   2.450  0.00  0.00    +0.029 A 
ATOM     17 CL   UNL     1      -2.348 -14.921   4.201  0.00  0.00    -0.084 Cl
ENDBRANCH   6  11
BRANCH   1  21
ATOM     18  C   UNL     1      -1.499  -1.849   0.008  0.00  0.00    +0.121 A 
ATOM     19  C   UNL     1      -2.146  -2.466  -1.053  0.00  0.00    +0.047 A 
ATOM     20  C   UNL     1      -2.308  -3.837  -1.060  0.00  0.00    +0.027 A 
ATOM     21  C   UNL     1      -1.824  -4.598  -0.004  0.00  0.00    +0.044 A 
ATOM     22  C   UNL     1      -1.177  -3.980   1.057  0.00  0.00    +0.027 A 
ATOM     23  C   UNL     1      -1.011  -2.609   1.060  0.00  0.00    +0.047 A 
BRANCH  18  24
ATOM     24  O   UNL     1      -1.339  -0.499   0.013  0.00  0.00    -0.492 OA
BRANCH  24  26
ATOM     25  C   UNL     1      -1.594   1.716  -0.920  0.00  0.00    +0.048 C 
ATOM     26  C   UNL     1      -1.867   0.222  -1.102  0.00  0.00    +0.225 C 
ENDBRANCH  24  26
ENDBRANCH  18  24
ENDBRANCH   1  21
BRANCH   5  27
ATOM     27  C   UNL     1      -3.462  -7.604   2.461  0.00  0.00    -0.022 A 
ATOM     28  C   UNL     1      -2.310  -7.098   3.032  0.00  0.00    +0.006 A 
ATOM     29  C   UNL     1      -2.392  -6.109   3.994  0.00  0.00    +0.013 A 
ATOM     30  C   UNL     1      -3.627  -5.625   4.385  0.00  0.00    +0.055 A 
ATOM     31  C   UNL     1      -4.779  -6.131   3.813  0.00  0.00    +0.013 A 
ATOM     32  C   UNL     1      -4.697  -7.118   2.848  0.00  0.00    +0.006 A 
BRANCH  30  33
ATOM     33  C   UNL     1      -3.717  -4.548   5.434  0.00  0.00    +0.417 C 
ATOM     34  F   UNL     1      -3.682  -3.292   4.817  0.00  0.00    -0.166 F 
ATOM     35  F   UNL     1      -4.915  -4.685   6.143  0.00  0.00    -0.166 F 
ATOM     36  F   UNL     1      -2.637  -4.664   6.316  0.00  0.00    -0.166 F 
ENDBRANCH  30  33
ENDBRANCH   5  27
TORSDOF 6
