REMARK  Name = ZINC09299789
REMARK  13 active torsions:
REMARK  status: ('A' for Active; 'I' for Inactive)
REMARK    1  A    between atoms: C_1  and  C_2
REMARK    2  A    between atoms: C_2  and  N_3
REMARK    3  A    between atoms: N_10  and  C_28
REMARK    4  A    between atoms: C_11  and  S_13
REMARK    5  A    between atoms: S_13  and  C_14
REMARK    6  A    between atoms: C_14  and  C_15
REMARK    7  A    between atoms: N_17  and  C_18
REMARK    8  A    between atoms: C_20  and  O_26
REMARK    9  A    between atoms: C_22  and  O_24
REMARK   10  A    between atoms: O_24  and  C_25
REMARK   11  A    between atoms: O_26  and  C_27
REMARK   12  A    between atoms: C_28  and  C_29
REMARK   13  A    between atoms: C_32  and  C_35
REMARK                            x       y       z     vdW  Elec       q    Type
REMARK                         _______ _______ _______ _____ _____    ______ ____
ROOT
ATOM      1  N   UNL     1      -7.194  -3.202   0.635  0.00  0.00    -0.269 N 
ATOM      2  C   UNL     1      -5.893  -2.847   0.550  0.00  0.00    +0.137 A 
ATOM      3  C   UNL     1      -5.854  -1.490   0.451  0.00  0.00    +0.117 A 
ATOM      4  C   UNL     1      -7.266  -1.075   0.486  0.00  0.00    +0.175 A 
ATOM      5  N   UNL     1      -7.969  -2.176   0.597  0.00  0.00    -0.164 NA
ATOM      6  C   UNL     1      -7.548   0.364   0.396  0.00  0.00    +0.283 A 
ATOM      7  O   UNL     1      -8.689   0.785   0.418  0.00  0.00    -0.265 OA
ATOM      8  N   UNL     1      -6.492   1.203   0.292  0.00  0.00    -0.282 N 
ATOM      9  C   UNL     1      -5.208   0.734   0.261  0.00  0.00    +0.173 A 
ATOM     10  N   UNL     1      -4.895  -0.533   0.338  0.00  0.00    -0.220 NA
ENDROOT
BRANCH   1  12
ATOM     11  C   UNL     1      -8.556  -4.714   1.993  0.00  0.00    +0.029 C 
ATOM     12  C   UNL     1      -7.663  -4.585   0.756  0.00  0.00    +0.140 C 
ENDBRANCH   1  12
BRANCH   9  13
ATOM     13  S   UNL     1      -3.899   1.904   0.118  0.00  0.00    -0.078 S 
BRANCH  13  14
ATOM     14  C   UNL     1      -2.475   0.787   0.133  0.00  0.00    +0.173 C 
BRANCH  14  15
ATOM     15  C   UNL     1      -1.205   1.591   0.017  0.00  0.00    +0.227 C 
ATOM     16  O   UNL     1      -1.258   2.799  -0.067  0.00  0.00    -0.275 OA
ATOM     17  N   UNL     1      -0.011   0.966   0.007  0.00  0.00    -0.285 N 
ATOM     18  H   UNL     1       0.029  -0.003   0.007  0.00  0.00    +0.155 HD
BRANCH  17  19
ATOM     19  C   UNL     1       1.170   1.715  -0.008  0.00  0.00    +0.040 A 
ATOM     20  C   UNL     1       1.224   2.912  -0.709  0.00  0.00    +0.069 A 
ATOM     21  C   UNL     1       2.394   3.657  -0.719  0.00  0.00    +0.125 A 
ATOM     22  C   UNL     1       3.513   3.200  -0.039  0.00  0.00    +0.091 A 
ATOM     23  C   UNL     1       3.461   2.002   0.657  0.00  0.00    +0.125 A 
ATOM     24  C   UNL     1       2.291   1.259   0.673  0.00  0.00    +0.069 A 
BRANCH  23  25
ATOM     25  O   UNL     1       4.558   1.555   1.323  0.00  0.00    -0.495 OA
ATOM     26  C   UNL     1       5.730   2.371   1.264  0.00  0.00    +0.277 C 
ENDBRANCH  23  25
BRANCH  21  27
ATOM     27  O   UNL     1       2.445   4.832  -1.400  0.00  0.00    -0.495 OA
ATOM     28  C   UNL     1       3.684   5.544  -1.373  0.00  0.00    +0.277 C 
ENDBRANCH  21  27
ENDBRANCH  17  19
ENDBRANCH  14  15
ENDBRANCH  13  14
ENDBRANCH   9  13
BRANCH   8  29
ATOM     29  C   UNL     1      -6.729   2.646   0.205  0.00  0.00    +0.162 C 
BRANCH  29  30
ATOM     30  C   UNL     1      -6.880   3.044  -1.240  0.00  0.00    -0.028 A 
ATOM     31  C   UNL     1      -5.770   3.422  -1.972  0.00  0.00    +0.005 A 
ATOM     32  C   UNL     1      -5.907   3.784  -3.299  0.00  0.00    +0.004 A 
ATOM     33  C   UNL     1      -7.156   3.775  -3.892  0.00  0.00    -0.050 A 
ATOM     34  C   UNL     1      -8.267   3.402  -3.159  0.00  0.00    +0.004 A 
ATOM     35  C   UNL     1      -8.129   3.037  -1.833  0.00  0.00    +0.005 A 
ATOM     36  C   UNL     1      -7.307   4.173  -5.338  0.00  0.00    +0.044 C 
ENDBRANCH  29  30
ENDBRANCH   8  29
TORSDOF 9
