REMARK  Name = ZINC62192698
REMARK  6 active torsions:
REMARK  status: ('A' for Active; 'I' for Inactive)
REMARK    1  A    between atoms: C_1  and  C_2
REMARK    2  A    between atoms: C_7  and  O_8
REMARK    3  A    between atoms: O_8  and  C_9
REMARK    4  A    between atoms: C_14  and  N_15
REMARK    5  A    between atoms: N_15  and  S_16
REMARK    6  A    between atoms: S_16  and  C_19
REMARK                            x       y       z     vdW  Elec       q    Type
REMARK                         _______ _______ _______ _____ _____    ______ ____
ROOT
ATOM      1  N   UNL     1      -0.071   1.084   4.921  0.00  0.00    -0.094 NA
ENDROOT
BRANCH   1   7
ATOM      2  C   UNL     1       0.054  -0.848   3.469  0.00  0.00    +0.153 A 
ATOM      3  C   UNL     1       0.136  -2.221   3.307  0.00  0.00    +0.048 A 
ATOM      4  C   UNL     1       0.165  -3.048   4.415  0.00  0.00    +0.004 A 
ATOM      5  C   UNL     1       0.113  -2.508   5.687  0.00  0.00    +0.002 A 
ATOM      6  C   UNL     1       0.031  -1.139   5.857  0.00  0.00    +0.030 A 
ATOM      7  C   UNL     1       0.007  -0.303   4.751  0.00  0.00    +0.116 A 
BRANCH   2   8
ATOM      8  O   UNL     1       0.025  -0.034   2.381  0.00  0.00    -0.454 OA
BRANCH   8  15
ATOM      9  C   UNL     1      -0.086   1.825   0.256  0.00  0.00    +0.047 C 
ATOM     10  C   UNL     1       1.209   1.407   0.904  0.00  0.00    -0.008 A 
ATOM     11  C   UNL     1       2.405   1.942   0.466  0.00  0.00    +0.007 A 
ATOM     12  C   UNL     1       3.593   1.560   1.060  0.00  0.00    +0.000 A 
ATOM     13  C   UNL     1       3.588   0.641   2.093  0.00  0.00    +0.004 A 
ATOM     14  C   UNL     1       2.395   0.103   2.535  0.00  0.00    +0.046 A 
ATOM     15  C   UNL     1       1.200   0.490   1.944  0.00  0.00    +0.131 A 
ENDBRANCH   8  15
ENDBRANCH   2   8
ENDBRANCH   1   7
BRANCH   1  16
ATOM     16  S   UNL     1      -0.126   1.729   6.445  0.00  0.00    +0.092 S 
ATOM     17  O   UNL     1      -1.359   1.314   7.017  0.00  0.00    -0.148 OA
ATOM     18  O   UNL     1       1.128   1.449   7.051  0.00  0.00    -0.148 OA
BRANCH  16  19
ATOM     19  C   UNL     1      -0.219   3.480   6.266  0.00  0.00    +0.114 A 
ATOM     20  C   UNL     1       0.944   4.229   6.207  0.00  0.00    +0.031 A 
ATOM     21  C   UNL     1       0.880   5.601   6.067  0.00  0.00    +0.031 A 
ATOM     22  C   UNL     1      -0.353   6.229   5.986  0.00  0.00    +0.087 A 
ATOM     23  C   UNL     1      -1.526   5.475   6.045  0.00  0.00    +0.159 A 
ATOM     24  C   UNL     1      -1.451   4.098   6.181  0.00  0.00    +0.077 A 
ATOM     25  O   UNL     1      -2.565   6.339   5.942  0.00  0.00    -0.408 OA
ATOM     26  C   UNL     1      -2.090   7.589   5.823  0.00  0.00    +0.419 A 
ATOM     27  O   UNL     1      -2.770   8.591   5.712  0.00  0.00    -0.223 OA
ATOM     28  N   UNL     1      -0.743   7.561   5.845  0.00  0.00    -0.288 N 
ATOM     29  H   UNL     1      -0.152   8.327   5.776  0.00  0.00    +0.172 HD
ENDBRANCH  16  19
ENDBRANCH   1  16
TORSDOF 5
