REMARK  Name = ZINC13495643
REMARK  11 active torsions:
REMARK  status: ('A' for Active; 'I' for Inactive)
REMARK    1  A    between atoms: C_1  and  C_2
REMARK    2  A    between atoms: C_2  and  C_3
REMARK    3  A    between atoms: C_3  and  C_5
REMARK    4  A    between atoms: C_3  and  N_16
REMARK    5  A    between atoms: N_9  and  C_10
REMARK    6  A    between atoms: N_16  and  C_17
REMARK    7  A    between atoms: N_16  and  C_23
REMARK    8  A    between atoms: C_17  and  C_18
REMARK    9  A    between atoms: C_23  and  C_24
REMARK   10  A    between atoms: C_28  and  C_37
REMARK   11  A    between atoms: C_30  and  C_36
REMARK                            x       y       z     vdW  Elec       q    Type
REMARK                         _______ _______ _______ _____ _____    ______ ____
ROOT
ATOM      1  N   UNL     1      -2.251  -0.527  -1.454  0.00  0.00    -0.281 NA
ENDROOT
BRANCH   1   2
ATOM      2  C   UNL     1      -1.351  -0.464  -0.294  0.00  0.00    +0.127 C 
BRANCH   2   3
ATOM      3  C   UNL     1      -2.094   0.101   0.888  0.00  0.00    +0.169 A 
ATOM      4  N   UNL     1      -3.358  -0.086   1.181  0.00  0.00    -0.112 NA
ATOM      5  N   UNL     1      -3.615   0.560   2.266  0.00  0.00    -0.023 NA
ATOM      6  N   UNL     1      -2.548   1.155   2.672  0.00  0.00    -0.044 NA
ATOM      7  N   UNL     1      -1.587   0.892   1.853  0.00  0.00    -0.225 N 
BRANCH   7   8
ATOM      8  C   UNL     1      -0.205   1.368   1.951  0.00  0.00    +0.111 C 
ATOM      9  C   UNL     1       0.453   0.768   3.195  0.00  0.00    +0.027 C 
ATOM     10  C   UNL     1       1.897   1.265   3.297  0.00  0.00    +0.002 C 
ATOM     11  C   UNL     1       1.905   2.792   3.401  0.00  0.00    +0.000 C 
ATOM     12  C   UNL     1       1.246   3.391   2.157  0.00  0.00    +0.002 C 
ATOM     13  C   UNL     1      -0.198   2.894   2.055  0.00  0.00    +0.027 C 
ENDBRANCH   7   8
ENDBRANCH   2   3
BRANCH   2  15
ATOM     14  C   UNL     1      -0.017  -2.408  -1.123  0.00  0.00    +0.006 C 
ATOM     15  C   UNL     1      -0.853  -1.871   0.041  0.00  0.00    +0.023 C 
ENDBRANCH   2  15
ENDBRANCH   1   2
BRANCH   1  16
ATOM     16  C   UNL     1      -3.478  -1.267  -1.128  0.00  0.00    +0.159 C 
BRANCH  16  17
ATOM     17  C   UNL     1      -4.184  -1.654  -2.402  0.00  0.00    +0.119 A 
ATOM     18  C   UNL     1      -4.050  -2.824  -3.052  0.00  0.00    +0.046 A 
ATOM     19  C   UNL     1      -4.888  -2.760  -4.188  0.00  0.00    +0.041 A 
ATOM     20  C   UNL     1      -5.484  -1.555  -4.165  0.00  0.00    +0.195 A 
ATOM     21  O   UNL     1      -5.059  -0.891  -3.078  0.00  0.00    -0.467 OA
ENDBRANCH  16  17
ENDBRANCH   1  16
BRANCH   1  22
ATOM     22  C   UNL     1      -2.564   0.819  -1.951  0.00  0.00    +0.126 C 
BRANCH  22  23
ATOM     23  C   UNL     1      -1.391   1.352  -2.733  0.00  0.00    +0.031 A 
ATOM     24  C   UNL     1      -1.351   1.198  -4.079  0.00  0.00    +0.020 A 
ATOM     25  C   UNL     1      -0.198   1.727  -4.809  0.00  0.00    -0.001 A 
ATOM     26  C   UNL     1      -0.100   1.599  -6.199  0.00  0.00    +0.013 A 
ATOM     27  C   UNL     1       0.989   2.104  -6.851  0.00  0.00    -0.050 A 
ATOM     28  C   UNL     1       2.000   2.743  -6.147  0.00  0.00    +0.008 A 
ATOM     29  C   UNL     1       1.925   2.880  -4.777  0.00  0.00    -0.026 A 
ATOM     30  C   UNL     1       0.826   2.374  -4.092  0.00  0.00    +0.052 A 
ATOM     31  N   UNL     1       0.725   2.498  -2.723  0.00  0.00    -0.322 N 
ATOM     32  H   UNL     1       1.431   2.945  -2.230  0.00  0.00    +0.169 HD
ATOM     33  C   UNL     1      -0.341   2.014  -2.061  0.00  0.00    +0.254 A 
ATOM     34  O   UNL     1      -0.400   2.146  -0.851  0.00  0.00    -0.268 OA
ATOM     35  C   UNL     1       3.031   3.575  -4.026  0.00  0.00    +0.046 C 
ATOM     36  C   UNL     1       1.093   1.966  -8.348  0.00  0.00    +0.044 C 
ENDBRANCH  22  23
ENDBRANCH   1  22
TORSDOF 8
