REMARK  Name = ZINC24227288
REMARK  11 active torsions:
REMARK  status: ('A' for Active; 'I' for Inactive)
REMARK    1  A    between atoms: C_1  and  C_2
REMARK    2  A    between atoms: C_2  and  N_3
REMARK    3  A    between atoms: C_4  and  C_26
REMARK    4  A    between atoms: C_7  and  S_8
REMARK    5  A    between atoms: S_8  and  C_9
REMARK    6  A    between atoms: C_9  and  C_11
REMARK    7  A    between atoms: C_9  and  C_12
REMARK    8  A    between atoms: C_12  and  C_14
REMARK    9  A    between atoms: C_14  and  C_24
REMARK   10  A    between atoms: C_29  and  O_32
REMARK   11  A    between atoms: O_32  and  C_33
REMARK                            x       y       z     vdW  Elec       q    Type
REMARK                         _______ _______ _______ _____ _____    ______ ____
ROOT
ATOM      1  C   UNL     1       0.128   1.528  -0.486  0.00  0.00    +0.123 C 
ATOM      2  C   UNL     1      -0.406   2.137  -1.784  0.00  0.00    +0.028 C 
ENDROOT
BRANCH   1   3
ATOM      3  C   UNL     1       0.187   0.029  -0.622  0.00  0.00    +0.189 C 
ATOM      4  O   UNL     1       1.223  -0.511  -0.960  0.00  0.00    -0.290 OA
BRANCH   3   5
ATOM      5  C   UNL     1      -0.955  -0.746  -0.357  0.00  0.00    +0.131 C 
ATOM      6  C   UNL     1      -0.899  -2.146  -0.483  0.00  0.00    +0.114 C 
ATOM      7  N   UNL     1       0.194  -2.859  -0.858  0.00  0.00    -0.300 N 
ATOM      8  C   UNL     1      -0.145  -4.207  -0.863  0.00  0.00    +0.054 A 
ATOM      9  C   UNL     1       0.565  -5.363  -1.159  0.00  0.00    +0.025 A 
ATOM     10  C   UNL     1      -0.058  -6.592  -1.079  0.00  0.00    +0.002 A 
ATOM     11  C   UNL     1      -1.388  -6.678  -0.704  0.00  0.00    +0.002 A 
ATOM     12  C   UNL     1      -2.104  -5.536  -0.409  0.00  0.00    +0.025 A 
ATOM     13  C   UNL     1      -1.488  -4.294  -0.486  0.00  0.00    +0.054 A 
ATOM     14  N   UNL     1      -1.933  -2.998  -0.256  0.00  0.00    -0.300 N 
ATOM     15  H   UNL     1       1.135  -2.341  -1.093  0.00  0.00    +0.153 HD
ATOM     16  H   UNL     1      -2.911  -2.604   0.056  0.00  0.00    +0.153 HD
BRANCH   5  17
ATOM     17  C   UNL     1      -2.174  -0.111   0.042  0.00  0.00    +0.106 C 
ATOM     18  N   UNL     1      -3.142   0.393   0.358  0.00  0.00    -0.191 NA
ENDBRANCH   5  17
ENDBRANCH   3   5
ENDBRANCH   1   3
BRANCH   1  19
ATOM     19  S   UNL     1       1.788   2.170  -0.157  0.00  0.00    -0.075 S 
BRANCH  19  24
ATOM     20  N   UNL     1       2.305   4.863   0.400  0.00  0.00    -0.302 N 
ATOM     21  C   UNL     1       1.559   6.014   0.506  0.00  0.00    +0.165 A 
ATOM     22  N   UNL     1       0.307   5.684   0.286  0.00  0.00    -0.128 NA
ATOM     23  N   UNL     1       0.221   4.424   0.048  0.00  0.00    -0.122 NA
ATOM     24  C   UNL     1       1.412   3.872   0.101  0.00  0.00    +0.193 A 
BRANCH  21  25
ATOM     25  C   UNL     1       2.069   7.366   0.816  0.00  0.00    +0.020 A 
ATOM     26  C   UNL     1       1.199   8.354   1.281  0.00  0.00    +0.015 A 
ATOM     27  C   UNL     1       1.680   9.612   1.574  0.00  0.00    +0.046 A 
ATOM     28  C   UNL     1       3.026   9.901   1.396  0.00  0.00    +0.120 A 
ATOM     29  C   UNL     1       3.894   8.924   0.928  0.00  0.00    +0.046 A 
ATOM     30  C   UNL     1       3.422   7.661   0.639  0.00  0.00    +0.015 A 
BRANCH  28  31
ATOM     31  O   UNL     1       3.495  11.144   1.680  0.00  0.00    -0.495 OA
ATOM     32  C   UNL     1       2.548  12.102   2.158  0.00  0.00    +0.277 C 
ENDBRANCH  28  31
ENDBRANCH  21  25
BRANCH  20  34
ATOM     33  C   UNL     1       4.439   4.845  -0.795  0.00  0.00    +0.027 C 
ATOM     34  C   UNL     1       3.754   4.728   0.568  0.00  0.00    +0.122 C 
ENDBRANCH  20  34
ENDBRANCH  19  24
ENDBRANCH   1  19
TORSDOF 8
