REMARK  Name = ZINC04690424
REMARK  5 active torsions:
REMARK  status: ('A' for Active; 'I' for Inactive)
REMARK    1  A    between atoms: C_1  and  C_2
REMARK    2  A    between atoms: C_2  and  N_3
REMARK    3  A    between atoms: N_3  and  N_4
REMARK    4  A    between atoms: C_8  and  C_9
REMARK    5  A    between atoms: N_11  and  C_12
REMARK                            x       y       z     vdW  Elec       q    Type
REMARK                         _______ _______ _______ _____ _____    ______ ____
ROOT
ATOM      1  C   UNL     1      -2.803   1.445  -0.004  0.00  0.00    +0.239 C 
ATOM      2  O   UNL     1      -2.202   1.218   1.030  0.00  0.00    -0.271 OA
ATOM      3  N   UNL     1      -4.150   1.456  -0.013  0.00  0.00    -0.306 N 
ATOM      4  H   UNL     1      -4.629   1.637  -0.837  0.00  0.00    +0.150 HD
ENDROOT
BRANCH   3   5
ATOM      5  C   UNL     1      -4.893   1.196   1.223  0.00  0.00    +0.036 C 
ATOM      6  C   UNL     1      -4.521   2.246   2.272  0.00  0.00    +0.029 C 
ATOM      7  C   UNL     1      -5.296   1.975   3.563  0.00  0.00    -0.008 C 
ATOM      8  C   UNL     1      -6.798   2.046   3.280  0.00  0.00    +0.007 C 
ATOM      9  C   UNL     1      -7.170   0.996   2.231  0.00  0.00    -0.008 C 
ATOM     10  C   UNL     1      -6.395   1.268   0.941  0.00  0.00    +0.029 C 
ATOM     11  C   UNL     1      -6.815  -0.397   2.756  0.00  0.00    +0.007 C 
ATOM     12  C   UNL     1      -5.314  -0.468   3.039  0.00  0.00    -0.008 C 
ATOM     13  C   UNL     1      -4.941   0.582   4.087  0.00  0.00    +0.007 C 
ATOM     14  C   UNL     1      -4.538  -0.197   1.748  0.00  0.00    +0.029 C 
ENDBRANCH   3   5
BRANCH   1  17
ATOM     15  C   UNL     1      -0.021   1.854   0.157  0.00  0.00    +0.062 C 
ATOM     16  C   UNL     1      -0.743   1.814  -1.165  0.00  0.00    +0.024 C 
ATOM     17  C   UNL     1      -2.086   1.696  -1.198  0.00  0.00    +0.087 C 
BRANCH  16  18
ATOM     18  N   UNL     1      -0.036   1.899  -2.332  0.00  0.00    -0.267 N 
ATOM     19  H   UNL     1       0.930   1.984  -2.309  0.00  0.00    +0.170 HD
BRANCH  18  20
ATOM     20  N   UNL     1      -0.706   1.862  -3.562  0.00  0.00    -0.221 N 
ATOM     21  C   UNL     1      -0.009   1.946  -4.712  0.00  0.00    +0.313 C 
ATOM     22  O   UNL     1      -0.591   1.914  -5.779  0.00  0.00    -0.252 OA
ATOM     23  N   UNL     1       1.333   2.065  -4.680  0.00  0.00    -0.312 N 
ATOM     24  H   UNL     1      -1.672   1.777  -3.585  0.00  0.00    +0.174 HD
ATOM     25  H   UNL     1       1.797   2.090  -3.828  0.00  0.00    +0.147 HD
ATOM     26  H   UNL     1       1.835   2.125  -5.508  0.00  0.00    +0.147 HD
ENDBRANCH  18  20
ENDBRANCH  16  18
ENDBRANCH   1  17
TORSDOF 4
