REMARK  Name = ZINC39521219
REMARK  7 active torsions:
REMARK  status: ('A' for Active; 'I' for Inactive)
REMARK    1  A    between atoms: C_4  and  O_7
REMARK    2  A    between atoms: O_7  and  S_8
REMARK    3  A    between atoms: S_8  and  C_11
REMARK    4  A    between atoms: C_21  and  C_31
REMARK    5  A    between atoms: N_23  and  C_24
REMARK    6  A    between atoms: C_29  and  O_30
REMARK    7  A    between atoms: C_36  and  O_37
REMARK                            x       y       z     vdW  Elec       q    Type
REMARK                         _______ _______ _______ _____ _____    ______ ____
ROOT
ATOM      1  C   UNL     1       2.568  -1.813   2.305  0.00  0.00    +0.173 C 
ATOM      2  C   UNL     1       2.635  -2.821   1.157  0.00  0.00    +0.030 C 
ATOM      3  C   UNL     1       1.936  -4.117   1.574  0.00  0.00    +0.004 C 
ATOM      4  C   UNL     1       2.635  -4.699   2.804  0.00  0.00    +0.026 C 
ATOM      5  C   UNL     1       2.572  -3.691   3.952  0.00  0.00    +0.037 C 
ATOM      6  C   UNL     1       3.267  -2.394   3.536  0.00  0.00    +0.055 C 
ATOM      7  C   UNL     1       1.110  -3.401   4.300  0.00  0.00    +0.026 C 
ATOM      8  C   UNL     1       0.459  -4.673   4.849  0.00  0.00    +0.004 C 
ATOM      9  C   UNL     1       1.185  -5.110   6.123  0.00  0.00    +0.027 C 
ATOM     10  C   UNL     1       2.648  -5.420   5.793  0.00  0.00    +0.108 C 
ATOM     11  N   UNL     1       3.242  -4.250   5.133  0.00  0.00    -0.314 N 
ENDROOT
BRANCH  11  12
ATOM     12  C   UNL     1       4.424  -3.679   5.619  0.00  0.00    +0.073 A 
ATOM     13  C   UNL     1       4.370  -2.562   6.440  0.00  0.00    +0.027 A 
ATOM     14  C   UNL     1       5.539  -2.001   6.920  0.00  0.00    +0.002 A 
ATOM     15  C   UNL     1       6.762  -2.550   6.583  0.00  0.00    +0.004 A 
ATOM     16  C   UNL     1       6.824  -3.664   5.766  0.00  0.00    +0.047 A 
ATOM     17  C   UNL     1       5.657  -4.235   5.285  0.00  0.00    +0.138 A 
BRANCH  17  18
ATOM     18  O   UNL     1       5.715  -5.334   4.485  0.00  0.00    -0.505 OA
ATOM     19  H   UNL     1       5.774  -5.130   3.542  0.00  0.00    +0.292 HD
ENDBRANCH  17  18
ENDBRANCH  11  12
BRANCH  10  20
ATOM     20  C   UNL     1       3.400  -5.723   7.064  0.00  0.00    +0.014 A 
ATOM     21  C   UNL     1       3.545  -4.746   8.030  0.00  0.00    +0.009 A 
ATOM     22  C   UNL     1       4.235  -5.022   9.196  0.00  0.00    +0.001 A 
ATOM     23  C   UNL     1       4.781  -6.277   9.398  0.00  0.00    +0.004 A 
ATOM     24  C   UNL     1       4.638  -7.257   8.436  0.00  0.00    +0.046 A 
ATOM     25  C   UNL     1       3.941  -6.983   7.267  0.00  0.00    +0.122 A 
BRANCH  25  26
ATOM     26  O   UNL     1       3.794  -7.948   6.321  0.00  0.00    -0.506 OA
ATOM     27  H   UNL     1       4.504  -7.966   5.664  0.00  0.00    +0.292 HD
ENDBRANCH  25  26
ENDBRANCH  10  20
BRANCH   1  28
ATOM     28  S   UNL     1       3.396  -0.277   1.809  0.00  0.00    +0.124 S 
ATOM     29  O   UNL     1       4.702  -0.559   1.324  0.00  0.00    -0.136 OA
ATOM     30  O   UNL     1       3.190   0.730   2.791  0.00  0.00    -0.136 OA
BRANCH  28  31
ATOM     31  O   UNL     1       2.625   0.207   0.590  0.00  0.00    -0.346 OA
BRANCH  31  35
ATOM     32  C   UNL     1      -1.047   1.868   1.474  0.00  0.00    +0.000 A 
ATOM     33  C   UNL     1       0.080   2.668   1.431  0.00  0.00    +0.004 A 
ATOM     34  C   UNL     1       1.311   2.114   1.134  0.00  0.00    +0.048 A 
ATOM     35  C   UNL     1       1.415   0.754   0.881  0.00  0.00    +0.156 A 
ATOM     36  C   UNL     1       0.283  -0.047   0.927  0.00  0.00    +0.048 A 
ATOM     37  C   UNL     1      -0.945   0.512   1.223  0.00  0.00    +0.004 A 
ENDBRANCH  31  35
ENDBRANCH  28  31
ENDBRANCH   1  28
TORSDOF 7
