REMARK  Name = ZINC21755407
REMARK  10 active torsions:
REMARK  status: ('A' for Active; 'I' for Inactive)
REMARK    1  A    between atoms: C_1  and  N_2
REMARK    2  A    between atoms: N_2  and  C_3
REMARK    3  A    between atoms: N_2  and  C_4
REMARK    4  A    between atoms: C_7  and  C_10
REMARK    5  A    between atoms: C_10  and  C_12
REMARK    6  A    between atoms: C_10  and  N_26
REMARK    7  A    between atoms: C_12  and  N_13
REMARK    8  A    between atoms: N_13  and  S_14
REMARK    9  A    between atoms: S_14  and  C_17
REMARK   10  A    between atoms: C_22  and  N_23
REMARK                            x       y       z     vdW  Elec       q    Type
REMARK                         _______ _______ _______ _____ _____    ______ ____
ROOT
ATOM      1  C   UNL     1      -2.731   3.174   2.268  0.00  0.00    -0.021 C 
ENDROOT
BRANCH   1   2
ATOM      2  N   UNL     1      -3.216   2.696   3.569  0.00  0.00    +0.388 N 
ATOM      3  C   UNL     1      -3.510   3.823   4.469  0.00  0.00    -0.073 C 
ATOM      4  C   UNL     1      -4.341   3.304   5.642  0.00  0.00    +0.017 C 
ATOM      5  C   UNL     1      -3.679   2.091   6.245  0.00  0.00    -0.048 A 
ATOM      6  C   UNL     1      -4.069   1.686   7.512  0.00  0.00    +0.004 A 
ATOM      7  C   UNL     1      -3.494   0.576   8.097  0.00  0.00    +0.000 A 
ATOM      8  C   UNL     1      -2.523  -0.136   7.416  0.00  0.00    +0.000 A 
ATOM      9  C   UNL     1      -2.133   0.268   6.155  0.00  0.00    +0.002 A 
ATOM     10  C   UNL     1      -2.709   1.385   5.566  0.00  0.00    -0.061 A 
ATOM     11  C   UNL     1      -2.247   1.789   4.191  0.00  0.00    -0.042 C 
ATOM     12  H   UNL     1      -4.147   2.137   3.393  0.00  0.00    -0.080 HD
ENDBRANCH   1   2
BRANCH   1  16
ATOM     13  C   UNL     1      -0.496   6.776   2.816  0.00  0.00    +0.029 A 
ATOM     14  C   UNL     1      -1.645   6.781   2.034  0.00  0.00    +0.023 A 
ATOM     15  C   UNL     1      -2.364   5.615   1.859  0.00  0.00    +0.004 A 
ATOM     16  C   UNL     1      -1.943   4.444   2.461  0.00  0.00    -0.060 A 
ATOM     17  C   UNL     1      -0.803   4.436   3.244  0.00  0.00    +0.004 A 
ATOM     18  C   UNL     1      -0.075   5.597   3.418  0.00  0.00    +0.023 A 
BRANCH  13  20
ATOM     19  C   UNL     1      -0.212   9.195   2.359  0.00  0.00    +0.129 C 
ATOM     20  N   UNL     1       0.234   7.953   2.995  0.00  0.00    -0.336 N 
ATOM     21  C   UNL     1       1.445   7.945   3.819  0.00  0.00    +0.129 C 
ENDBRANCH  13  20
ENDBRANCH   1  16
BRANCH   1  22
ATOM     22  C   UNL     1      -1.833   2.108   1.636  0.00  0.00    +0.095 C 
BRANCH  22  23
ATOM     23  N   UNL     1      -2.562   0.840   1.557  0.00  0.00    -0.191 NA
ATOM     24  H   UNL     1      -3.351   0.613   2.289  0.00  0.00    +0.148 HD
BRANCH  23  25
ATOM     25  S   UNL     1      -2.040  -0.353   0.534  0.00  0.00    +0.061 S 
ATOM     26  O   UNL     1      -1.841   0.257  -0.734  0.00  0.00    -0.153 OA
ATOM     27  O   UNL     1      -2.915  -1.458   0.719  0.00  0.00    -0.153 OA
BRANCH  25  28
ATOM     28  C   UNL     1      -0.453  -0.868   1.100  0.00  0.00    +0.135 A 
ATOM     29  C   UNL     1       0.661  -0.672   0.305  0.00  0.00    +0.031 A 
ATOM     30  C   UNL     1       1.906  -1.075   0.750  0.00  0.00    +0.002 A 
ATOM     31  C   UNL     1       2.038  -1.675   1.988  0.00  0.00    +0.002 A 
ATOM     32  C   UNL     1       0.924  -1.866   2.785  0.00  0.00    +0.035 A 
ATOM     33  C   UNL     1      -0.322  -1.468   2.338  0.00  0.00    +0.152 A 
BRANCH  33  34
ATOM     34  N   UNL     1      -1.515  -1.677   3.189  0.00  0.00    +0.058 N 
ATOM     35  O   UNL     1      -1.425  -2.328   4.215  0.00  0.00    -0.126 OA
ATOM     36  O   UNL     1      -2.586  -1.195   2.866  0.00  0.00    -0.126 OA
ENDBRANCH  33  34
ENDBRANCH  25  28
ENDBRANCH  23  25
ENDBRANCH  22  23
ENDBRANCH   1  22
TORSDOF 8
