REMARK  Name = ZINC57434763
REMARK  7 active torsions:
REMARK  status: ('A' for Active; 'I' for Inactive)
REMARK    1  A    between atoms: C_1  and  C_2
REMARK    2  A    between atoms: C_2  and  O_3
REMARK    3  A    between atoms: O_3  and  C_4
REMARK    4  A    between atoms: C_4  and  C_6
REMARK    5  A    between atoms: C_7  and  C_28
REMARK    6  A    between atoms: N_17  and  S_18
REMARK    7  A    between atoms: S_18  and  C_21
REMARK                            x       y       z     vdW  Elec       q    Type
REMARK                         _______ _______ _______ _____ _____    ______ ____
ROOT
ATOM      1  C   UNL     1      -2.872  -2.447   0.235  0.00  0.00    +0.119 C 
ATOM      2  C   UNL     1      -3.021  -3.777  -0.087  0.00  0.00    +0.023 C 
ATOM      3  N   UNL     1      -4.256  -4.216  -0.428  0.00  0.00    -0.316 N 
ATOM      4  C   UNL     1      -5.356  -4.224   0.428  0.00  0.00    +0.054 A 
ATOM      5  C   UNL     1      -6.115  -5.397   0.460  0.00  0.00    +0.025 A 
ATOM      6  C   UNL     1      -7.218  -5.500   1.281  0.00  0.00    +0.002 A 
ATOM      7  C   UNL     1      -7.583  -4.436   2.083  0.00  0.00    +0.002 A 
ATOM      8  C   UNL     1      -6.843  -3.272   2.057  0.00  0.00    +0.027 A 
ATOM      9  C   UNL     1      -5.727  -3.158   1.228  0.00  0.00    +0.077 A 
ATOM     10  N   UNL     1      -5.045  -1.931   1.263  0.00  0.00    -0.192 NA
ATOM     11  C   UNL     1      -4.077  -1.604   0.346  0.00  0.00    +0.180 C 
ATOM     12  N   UNL     1      -4.226  -0.558  -0.419  0.00  0.00    -0.111 NA
ATOM     13  C   UNL     1      -1.844  -4.718  -0.060  0.00  0.00    +0.061 C 
ATOM     14  H   UNL     1      -4.384  -4.547  -1.331  0.00  0.00    +0.152 HD
ENDROOT
BRANCH  12  15
ATOM     15  S   UNL     1      -5.583   0.381  -0.285  0.00  0.00    +0.100 S 
ATOM     16  O   UNL     1      -6.677  -0.423  -0.705  0.00  0.00    -0.146 OA
ATOM     17  O   UNL     1      -5.533   0.986   1.000  0.00  0.00    -0.146 OA
BRANCH  15  18
ATOM     18  C   UNL     1      -5.435   1.684  -1.461  0.00  0.00    +0.113 A 
ATOM     19  C   UNL     1      -4.822   2.870  -1.104  0.00  0.00    +0.032 A 
ATOM     20  C   UNL     1      -4.704   3.893  -2.027  0.00  0.00    +0.040 A 
ATOM     21  C   UNL     1      -5.201   3.729  -3.309  0.00  0.00    +0.124 A 
ATOM     22  C   UNL     1      -5.815   2.540  -3.665  0.00  0.00    +0.040 A 
ATOM     23  C   UNL     1      -5.926   1.517  -2.743  0.00  0.00    +0.032 A 
ATOM     24  F   UNL     1      -5.087   4.728  -4.211  0.00  0.00    -0.205 F 
ENDBRANCH  15  18
ENDBRANCH  12  15
BRANCH   1  25
ATOM     25  C   UNL     1      -1.542  -1.881   0.468  0.00  0.00    +0.344 C 
ATOM     26  O   UNL     1      -0.567  -2.608   0.488  0.00  0.00    -0.245 OA
BRANCH  25  27
ATOM     27  O   UNL     1      -1.398  -0.554   0.660  0.00  0.00    -0.461 OA
BRANCH  27  29
ATOM     28  C   UNL     1      -0.108   1.446   1.078  0.00  0.00    +0.048 C 
ATOM     29  C   UNL     1      -0.072  -0.070   0.882  0.00  0.00    +0.229 C 
ENDBRANCH  27  29
ENDBRANCH  25  27
ENDBRANCH   1  25
TORSDOF 5
