REMARK  Name = ZINC15895378
REMARK  10 active torsions:
REMARK  status: ('A' for Active; 'I' for Inactive)
REMARK    1  A    between atoms: C_1  and  C_2
REMARK    2  A    between atoms: C_5  and  S_30
REMARK    3  A    between atoms: C_7  and  C_8
REMARK    4  A    between atoms: N_10  and  N_11
REMARK    5  A    between atoms: C_12  and  C_14
REMARK    6  A    between atoms: C_14  and  O_15
REMARK    7  A    between atoms: O_15  and  C_16
REMARK    8  A    between atoms: C_19  and  C_22
REMARK    9  A    between atoms: C_25  and  C_28
REMARK   10  A    between atoms: S_30  and  C_33
REMARK                            x       y       z     vdW  Elec       q    Type
REMARK                         _______ _______ _______ _____ _____    ______ ____
ROOT
ATOM      1  N   UNL     1       3.428   6.048  -0.937  0.00  0.00    -0.231 N 
ATOM      2  C   UNL     1       3.360   7.388  -1.064  0.00  0.00    +0.267 C 
ATOM      3  O   UNL     1       2.295   7.955  -0.944  0.00  0.00    -0.271 OA
ATOM      4  H   UNL     1       4.280   5.595  -1.033  0.00  0.00    +0.173 HD
ENDROOT
BRANCH   1   7
ATOM      5  C   UNL     1       2.336   3.970  -0.539  0.00  0.00    +0.260 C 
ATOM      6  O   UNL     1       3.404   3.402  -0.659  0.00  0.00    -0.269 OA
ATOM      7  N   UNL     1       2.268   5.310  -0.666  0.00  0.00    -0.230 N 
ATOM      8  H   UNL     1       1.416   5.764  -0.570  0.00  0.00    +0.173 HD
BRANCH   5  15
ATOM      9  C   UNL     1       2.537   1.135  -0.001  0.00  0.00    +0.044 C 
ATOM     10  C   UNL     1       1.197   1.823   0.008  0.00  0.00    -0.038 A 
ATOM     11  C   UNL     1       0.051   1.103   0.274  0.00  0.00    +0.006 A 
ATOM     12  C   UNL     1      -1.181   1.732   0.276  0.00  0.00    +0.027 A 
ATOM     13  C   UNL     1      -1.271   3.090   0.024  0.00  0.00    +0.089 A 
ATOM     14  C   UNL     1      -0.133   3.822  -0.243  0.00  0.00    +0.040 A 
ATOM     15  C   UNL     1       1.112   3.192  -0.253  0.00  0.00    +0.043 A 
BRANCH  13  16
ATOM     16  S   UNL     1      -2.845   3.884   0.036  0.00  0.00    -0.006 S 
ATOM     17  O   UNL     1      -3.646   3.087   0.898  0.00  0.00    -0.170 OA
ATOM     18  O   UNL     1      -2.564   5.239   0.356  0.00  0.00    -0.170 OA
ATOM     19  C   UNL     1      -3.445   3.756  -1.671  0.00  0.00    +0.200 C 
ENDBRANCH  13  16
ENDBRANCH   5  15
ENDBRANCH   1   7
BRANCH   2  20
ATOM     20  C   UNL     1       4.607   8.182  -1.356  0.00  0.00    +0.326 C 
BRANCH  20  21
ATOM     21  O   UNL     1       4.279   9.570  -1.444  0.00  0.00    -0.483 OA
BRANCH  21  22
ATOM     22  C   UNL     1       5.299  10.429  -1.704  0.00  0.00    +0.121 A 
ATOM     23  C   UNL     1       6.590   9.944  -1.865  0.00  0.00    +0.046 A 
ATOM     24  C   UNL     1       7.626  10.813  -2.133  0.00  0.00    +0.012 A 
ATOM     25  C   UNL     1       7.378  12.182  -2.233  0.00  0.00    -0.018 A 
ATOM     26  C   UNL     1       6.081  12.666  -2.066  0.00  0.00    +0.012 A 
ATOM     27  C   UNL     1       5.048  11.791  -1.803  0.00  0.00    +0.046 A 
BRANCH  25  28
ATOM     28  C   UNL     1       8.490  13.120  -2.515  0.00  0.00    -0.018 A 
ATOM     29  C   UNL     1       8.239  14.488  -2.619  0.00  0.00    +0.010 A 
ATOM     30  C   UNL     1       9.272  15.361  -2.876  0.00  0.00    +0.019 A 
ATOM     31  C   UNL     1      10.572  14.874  -3.043  0.00  0.00    +0.052 A 
ATOM     32  C   UNL     1      10.821  13.502  -2.944  0.00  0.00    +0.019 A 
ATOM     33  C   UNL     1       9.787  12.633  -2.682  0.00  0.00    +0.010 A 
BRANCH  31  34
ATOM     34  C   UNL     1      11.646  15.780  -3.317  0.00  0.00    +0.099 C 
ATOM     35  N   UNL     1      12.499  16.499  -3.534  0.00  0.00    -0.191 NA
ENDBRANCH  31  34
ENDBRANCH  25  28
ENDBRANCH  21  22
ENDBRANCH  20  21
ENDBRANCH   2  20
TORSDOF 8
