REMARK  Name = ZINC14141906
REMARK  10 active torsions:
REMARK  status: ('A' for Active; 'I' for Inactive)
REMARK    1  A    between atoms: C_1  and  C_2
REMARK    2  A    between atoms: C_6  and  C_13
REMARK    3  A    between atoms: C_13  and  C_15
REMARK    4  A    between atoms: C_15  and  S_16
REMARK    5  A    between atoms: S_16  and  C_17
REMARK    6  A    between atoms: C_20  and  C_30
REMARK    7  A    between atoms: N_21  and  C_22
REMARK    8  A    between atoms: C_22  and  C_23
REMARK    9  A    between atoms: C_23  and  C_24
REMARK   10  A    between atoms: C_30  and  C_31
REMARK                            x       y       z     vdW  Elec       q    Type
REMARK                         _______ _______ _______ _____ _____    ______ ____
ROOT
ATOM      1  C   UNL     1      -8.816  -2.190  -1.690  0.00  0.00    +0.192 A 
ATOM      2  N   UNL     1      -8.921  -2.893  -0.587  0.00  0.00    -0.122 NA
ATOM      3  N   UNL     1     -10.105  -3.385  -0.493  0.00  0.00    -0.133 NA
ATOM      4  C   UNL     1     -10.820  -3.027  -1.522  0.00  0.00    +0.139 A 
ATOM      5  N   UNL     1     -10.027  -2.248  -2.319  0.00  0.00    -0.305 N 
ENDROOT
BRANCH   1   6
ATOM      6  S   UNL     1      -7.386  -1.327  -2.251  0.00  0.00    -0.078 S 
BRANCH   6   7
ATOM      7  C   UNL     1      -6.145  -1.655  -0.969  0.00  0.00    +0.157 C 
BRANCH   7   8
ATOM      8  C   UNL     1      -4.855  -0.965  -1.330  0.00  0.00    +0.173 C 
ATOM      9  O   UNL     1      -4.780  -0.315  -2.352  0.00  0.00    -0.291 OA
BRANCH   8  14
ATOM     10  C   UNL     1      -0.019   1.526   0.010  0.00  0.00    +0.022 C 
ATOM     11  C   UNL     1       0.002  -0.004   0.002  0.00  0.00    +0.104 C 
ATOM     12  C   UNL     1      -1.405  -0.554   0.061  0.00  0.00    -0.014 A 
ATOM     13  C   UNL     1      -2.486  -0.439  -0.775  0.00  0.00    +0.017 A 
ATOM     14  C   UNL     1      -3.689  -1.079  -0.445  0.00  0.00    +0.019 A 
ATOM     15  C   UNL     1      -3.769  -1.827   0.736  0.00  0.00    +0.013 A 
ATOM     16  C   UNL     1      -2.687  -1.933   1.559  0.00  0.00    +0.024 A 
ATOM     17  C   UNL     1      -1.485  -1.298   1.235  0.00  0.00    +0.037 A 
ATOM     18  N   UNL     1      -0.269  -1.264   1.909  0.00  0.00    -0.285 N 
ATOM     19  C   UNL     1       0.657  -0.533   1.260  0.00  0.00    +0.224 C 
ATOM     20  O   UNL     1       1.800  -0.335   1.615  0.00  0.00    -0.275 OA
ATOM     21  H   UNL     1      -0.106  -1.717   2.751  0.00  0.00    +0.155 HD
ENDBRANCH   8  14
ENDBRANCH   7   8
ENDBRANCH   6   7
ENDBRANCH   1   6
BRANCH   5  22
ATOM     22  C   UNL     1     -10.398  -1.612  -3.585  0.00  0.00    +0.130 C 
BRANCH  22  23
ATOM     23  C   UNL     1     -10.099  -2.567  -4.742  0.00  0.00    +0.057 C 
BRANCH  23  24
ATOM     24  C   UNL     1     -10.481  -1.913  -6.045  0.00  0.00    -0.046 A 
ATOM     25  C   UNL     1     -11.760  -2.066  -6.546  0.00  0.00    +0.004 A 
ATOM     26  C   UNL     1     -12.111  -1.465  -7.741  0.00  0.00    +0.000 A 
ATOM     27  C   UNL     1     -11.182  -0.712  -8.434  0.00  0.00    +0.000 A 
ATOM     28  C   UNL     1      -9.903  -0.558  -7.933  0.00  0.00    +0.000 A 
ATOM     29  C   UNL     1      -9.554  -1.154  -6.735  0.00  0.00    +0.004 A 
ENDBRANCH  23  24
ENDBRANCH  22  23
ENDBRANCH   5  22
BRANCH   4  30
ATOM     30  C   UNL     1     -12.258  -3.398  -1.782  0.00  0.00    +0.118 C 
BRANCH  30  31
ATOM     31  C   UNL     1     -13.163  -2.361  -1.170  0.00  0.00    -0.003 A 
ATOM     32  C   UNL     1     -13.659  -1.227  -1.724  0.00  0.00    +0.011 A 
ATOM     33  C   UNL     1     -14.481  -0.415  -0.965  0.00  0.00    +0.008 A 
ATOM     34  C   UNL     1     -14.767  -0.776   0.310  0.00  0.00    +0.045 A 
ATOM     35  S   UNL     1     -13.867  -2.310   0.470  0.00  0.00    -0.101 S 
ENDBRANCH  30  31
ENDBRANCH   4  30
TORSDOF 9
