REMARK  Name = ZINC08721725
REMARK  3 active torsions:
REMARK  status: ('A' for Active; 'I' for Inactive)
REMARK    1  A    between atoms: C_1  and  N_45
REMARK    2  A    between atoms: C_12  and  C_15
REMARK    3  A    between atoms: C_18  and  C_20
REMARK                            x       y       z     vdW  Elec       q    Type
REMARK                         _______ _______ _______ _____ _____    ______ ____
ROOT
ATOM      1  C   UNL     1       4.133  -3.214   8.316  0.00  0.00    -0.096 C 
ATOM      2  C   UNL     1       5.256  -2.050   6.513  0.00  0.00    -0.074 C 
ATOM      3  C   UNL     1       5.864  -2.253   5.123  0.00  0.00    +0.018 C 
ATOM      4  C   UNL     1       4.739  -2.616   4.160  0.00  0.00    -0.027 A 
ATOM      5  C   UNL     1       3.552  -3.053   4.641  0.00  0.00    -0.021 A 
ATOM      6  S   UNL     1       2.558  -3.349   3.204  0.00  0.00    -0.080 S 
ATOM      7  C   UNL     1       3.689  -2.901   1.999  0.00  0.00    +0.080 A 
ATOM      8  C   UNL     1       4.839  -2.530   2.714  0.00  0.00    +0.068 A 
ATOM      9  C   UNL     1       6.021  -2.101   1.930  0.00  0.00    +0.248 C 
ATOM     10  O   UNL     1       7.104  -1.932   2.458  0.00  0.00    -0.270 OA
ATOM     11  N   UNL     1       5.845  -1.908   0.607  0.00  0.00    -0.287 N 
ATOM     12  C   UNL     1       4.544  -1.939  -0.051  0.00  0.00    +0.227 C 
ATOM     13  N   UNL     1       3.621  -2.865   0.631  0.00  0.00    -0.314 N 
ATOM     14  C   UNL     1       3.189  -3.237   6.081  0.00  0.00    -0.036 C 
ATOM     15  H   UNL     1       6.630  -1.738   0.062  0.00  0.00    +0.151 HD
ATOM     16  H   UNL     1       2.998  -3.420   0.137  0.00  0.00    +0.149 HD
ATOM     17  N   UNL     1       4.445  -3.232   6.870  0.00  0.00    +0.381 N 
ATOM     18  H   UNL     1       4.979  -4.082   6.655  0.00  0.00    -0.082 HD
ENDROOT
BRANCH  12  19
ATOM     19  C   UNL     1       3.951  -0.553  -0.038  0.00  0.00    +0.144 A 
ATOM     20  C   UNL     1       4.649   0.600  -0.039  0.00  0.00    +0.049 A 
ATOM     21  C   UNL     1       3.710   1.650  -0.029  0.00  0.00    +0.050 A 
ATOM     22  C   UNL     1       2.478   1.075  -0.015  0.00  0.00    +0.135 A 
ATOM     23  O   UNL     1       2.640  -0.263  -0.024  0.00  0.00    -0.456 OA
BRANCH  22  24
ATOM     24  C   UNL     1       1.186   1.792   0.000  0.00  0.00    +0.020 A 
ATOM     25  C   UNL     1      -0.013   1.076   0.008  0.00  0.00    +0.031 A 
ATOM     26  C   UNL     1      -1.217   1.751   0.017  0.00  0.00    +0.043 A 
ATOM     27  C   UNL     1      -1.237   3.136   0.031  0.00  0.00    +0.040 A 
ATOM     28  C   UNL     1      -0.052   3.851   0.023  0.00  0.00    +0.043 A 
ATOM     29  C   UNL     1       1.159   3.187   0.008  0.00  0.00    +0.031 A 
ATOM     30 CL   UNL     1      -0.088   5.587   0.033  0.00  0.00    -0.083 Cl
ATOM     31 CL   UNL     1      -2.708   0.863   0.019  0.00  0.00    -0.083 Cl
ENDBRANCH  22  24
ENDBRANCH  12  19
TORSDOF 2
