REMARK  Name = ZINC59057774
REMARK  12 active torsions:
REMARK  status: ('A' for Active; 'I' for Inactive)
REMARK    1  A    between atoms: C_1  and  C_2
REMARK    2  A    between atoms: C_5  and  C_35
REMARK    3  A    between atoms: N_8  and  C_10
REMARK    4  A    between atoms: C_10  and  C_11
REMARK    5  A    between atoms: C_14  and  C_17
REMARK    6  A    between atoms: C_17  and  N_18
REMARK    7  A    between atoms: C_19  and  C_21
REMARK    8  A    between atoms: C_21  and  N_22
REMARK    9  A    between atoms: N_22  and  C_23
REMARK   10  A    between atoms: N_22  and  S_24
REMARK   11  A    between atoms: S_24  and  C_27
REMARK   12  A    between atoms: C_30  and  C_33
REMARK                            x       y       z     vdW  Elec       q    Type
REMARK                         _______ _______ _______ _____ _____    ______ ____
ROOT
ATOM      1  N   UNL     1       7.205  -0.064   0.580  0.00  0.00    -0.310 N 
ATOM      2  C   UNL     1       8.415   0.422   0.237  0.00  0.00    +0.229 C 
ATOM      3  O   UNL     1       9.372   0.229   0.956  0.00  0.00    -0.274 OA
ATOM      4  H   UNL     1       6.440   0.090   0.004  0.00  0.00    +0.149 HD
ENDROOT
BRANCH   1   5
ATOM      5  C   UNL     1       7.047  -0.825   1.821  0.00  0.00    +0.139 C 
BRANCH   5   9
ATOM      6  C   UNL     1       2.971  -2.034   2.241  0.00  0.00    -0.064 A 
ATOM      7  C   UNL     1       3.870  -2.852   1.582  0.00  0.00    +0.002 A 
ATOM      8  C   UNL     1       5.189  -2.460   1.446  0.00  0.00    +0.005 A 
ATOM      9  C   UNL     1       5.609  -1.252   1.969  0.00  0.00    -0.030 A 
ATOM     10  C   UNL     1       4.710  -0.434   2.628  0.00  0.00    +0.005 A 
ATOM     11  C   UNL     1       3.390  -0.823   2.760  0.00  0.00    +0.002 A 
BRANCH   6  12
ATOM     12  C   UNL     1       1.534  -2.461   2.390  0.00  0.00    -0.043 C 
BRANCH  12  18
ATOM     13  C   UNL     1      -0.019   1.526   0.010  0.00  0.00    +0.005 C 
ATOM     14  C   UNL     1       0.002  -0.004   0.002  0.00  0.00    -0.031 C 
ATOM     15  C   UNL     1      -1.434  -0.535   0.015  0.00  0.00    +0.003 C 
ATOM     16  C   UNL     1      -1.402  -2.064   0.086  0.00  0.00    -0.031 C 
ATOM     17  C   UNL     1      -0.613  -2.496   1.324  0.00  0.00    -0.075 C 
ATOM     18  N   UNL     1       0.758  -1.980   1.239  0.00  0.00    +0.383 N 
ATOM     19  C   UNL     1       0.740  -0.512   1.242  0.00  0.00    -0.075 C 
ATOM     20  C   UNL     1      -2.832  -2.602   0.177  0.00  0.00    +0.005 C 
ATOM     21  H   UNL     1       1.188  -2.307   0.386  0.00  0.00    -0.081 HD
ENDBRANCH  12  18
ENDBRANCH   6  12
ENDBRANCH   5   9
ENDBRANCH   1   5
BRANCH   2  22
ATOM     22  C   UNL     1       8.578   1.205  -1.040  0.00  0.00    +0.204 C 
BRANCH  22  23
ATOM     23  N   UNL     1       9.976   1.619  -1.184  0.00  0.00    -0.171 NA
ATOM     24  C   UNL     1      10.952   0.707  -1.784  0.00  0.00    +0.132 C 
BRANCH  23  25
ATOM     25  S   UNL     1      10.452   3.119  -0.668  0.00  0.00    +0.061 S 
ATOM     26  O   UNL     1      11.622   3.450  -1.404  0.00  0.00    -0.153 OA
ATOM     27  O   UNL     1       9.291   3.939  -0.674  0.00  0.00    -0.153 OA
BRANCH  25  28
ATOM     28  C   UNL     1      10.946   2.958   1.016  0.00  0.00    +0.106 A 
ATOM     29  C   UNL     1      10.014   3.126   2.025  0.00  0.00    +0.030 A 
ATOM     30  C   UNL     1      10.394   3.001   3.346  0.00  0.00    +0.021 A 
ATOM     31  C   UNL     1      11.721   2.705   3.662  0.00  0.00    +0.052 A 
ATOM     32  C   UNL     1      12.656   2.538   2.639  0.00  0.00    +0.021 A 
ATOM     33  C   UNL     1      12.261   2.660   1.322  0.00  0.00    +0.030 A 
BRANCH  31  34
ATOM     34  C   UNL     1      12.122   2.575   5.031  0.00  0.00    +0.099 C 
ATOM     35  N   UNL     1      12.441   2.472   6.117  0.00  0.00    -0.191 NA
ENDBRANCH  31  34
ENDBRANCH  25  28
ENDBRANCH  23  25
ENDBRANCH  22  23
ENDBRANCH   2  22
TORSDOF 9
