REMARK  Name = ZINC64056705
REMARK  6 active torsions:
REMARK  status: ('A' for Active; 'I' for Inactive)
REMARK    1  A    between atoms: C_1  and  C_2
REMARK    2  A    between atoms: C_4  and  C_9
REMARK    3  A    between atoms: C_5  and  C_8
REMARK    4  A    between atoms: C_9  and  S_10
REMARK    5  A    between atoms: S_10  and  C_11
REMARK    6  A    between atoms: C_15  and  C_17
REMARK                            x       y       z     vdW  Elec       q    Type
REMARK                         _______ _______ _______ _____ _____    ______ ____
ROOT
ATOM      1  C   UNL     1      -1.404  -0.902  -4.767  0.00  0.00    +0.185 A 
ATOM      2  N   UNL     1      -2.391  -1.423  -5.529  0.00  0.00    -0.253 N 
ATOM      3  H   UNL     1      -3.049  -2.080  -5.257  0.00  0.00    +0.191 HD
ATOM      4  N   UNL     1      -2.275  -0.825  -6.795  0.00  0.00    -0.152 NA
ATOM      5  C   UNL     1      -1.255   0.002  -6.735  0.00  0.00    +0.182 A 
ATOM      6  N   UNL     1      -0.732  -0.043  -5.501  0.00  0.00    -0.201 NA
ENDROOT
BRANCH   5   7
ATOM      7  C   UNL     1      -0.766   0.851  -7.849  0.00  0.00    +0.021 A 
ATOM      8  C   UNL     1       0.334   1.685  -7.662  0.00  0.00    +0.013 A 
ATOM      9  C   UNL     1       0.786   2.472  -8.702  0.00  0.00    +0.021 A 
ATOM     10  C   UNL     1       0.147   2.433  -9.930  0.00  0.00    +0.041 A 
ATOM     11  C   UNL     1      -0.946   1.606 -10.121  0.00  0.00    +0.021 A 
ATOM     12  C   UNL     1      -1.401   0.811  -9.089  0.00  0.00    +0.013 A 
ATOM     13 CL   UNL     1       0.720   3.426 -11.234  0.00  0.00    -0.084 Cl
ENDBRANCH   5   7
BRANCH   1  14
ATOM     14  S   UNL     1      -1.079  -1.300  -3.081  0.00  0.00    -0.082 S 
BRANCH  14  15
ATOM     15  C   UNL     1       0.349  -0.266  -2.654  0.00  0.00    +0.112 C 
BRANCH  15  18
ATOM     16  C   UNL     1      -0.019   1.526   0.010  0.00  0.00    +0.045 C 
ATOM     17  C   UNL     1       0.002  -0.004   0.002  0.00  0.00    +0.174 C 
ATOM     18  C   UNL     1       0.735  -0.512  -1.218  0.00  0.00    -0.008 C 
ATOM     19  C   UNL     1       1.772  -1.208  -0.801  0.00  0.00    +0.038 C 
ATOM     20  N   UNL     1       1.832  -1.235   0.581  0.00  0.00    -0.269 N 
ATOM     21  O   UNL     1       0.748  -0.498   1.124  0.00  0.00    -0.267 OA
ATOM     22  C   UNL     1       2.763  -1.888  -1.710  0.00  0.00    +0.065 C 
ATOM     23  H   UNL     1       2.513  -1.690   1.100  0.00  0.00    +0.194 HD
ENDBRANCH  15  18
ENDBRANCH  14  15
ENDBRANCH   1  14
TORSDOF 4
