REMARK  Name = ZINC15729219
REMARK  9 active torsions:
REMARK  status: ('A' for Active; 'I' for Inactive)
REMARK    1  A    between atoms: C_1  and  C_2
REMARK    2  A    between atoms: C_5  and  N_8
REMARK    3  A    between atoms: N_10  and  C_11
REMARK    4  A    between atoms: C_11  and  C_12
REMARK    5  A    between atoms: C_11  and  C_13
REMARK    6  A    between atoms: C_11  and  C_14
REMARK    7  A    between atoms: C_15  and  N_22
REMARK    8  A    between atoms: C_17  and  C_20
REMARK    9  A    between atoms: C_17  and  C_21
REMARK                            x       y       z     vdW  Elec       q    Type
REMARK                         _______ _______ _______ _____ _____    ______ ____
ROOT
ATOM      1  N   UNL     1       2.314  -4.556  -0.111  0.00  0.00    -0.226 N 
ATOM      2  C   UNL     1       1.606  -5.066  -1.168  0.00  0.00    +0.122 C 
ATOM      3  N   UNL     1       0.961  -4.372  -2.046  0.00  0.00    -0.265 NA
ATOM      4  C   UNL     1       1.707  -6.576  -1.140  0.00  0.00    +0.135 C 
ATOM      5  C   UNL     1       2.575  -6.862   0.102  0.00  0.00    +0.064 C 
ATOM      6  C   UNL     1       2.888  -5.491   0.656  0.00  0.00    +0.233 C 
ATOM      7  O   UNL     1       3.556  -5.272   1.644  0.00  0.00    -0.274 OA
ATOM      8  C   UNL     1       3.862  -7.585  -0.299  0.00  0.00    +0.022 C 
ATOM      9  C   UNL     1       1.794  -7.689   1.125  0.00  0.00    +0.022 C 
ENDROOT
BRANCH   1  14
ATOM     10  C   UNL     1       2.755   1.005   0.931  0.00  0.00    +0.044 C 
ATOM     11  C   UNL     1       2.638  -0.472   0.654  0.00  0.00    -0.050 A 
ATOM     12  C   UNL     1       3.192  -1.004  -0.495  0.00  0.00    +0.005 A 
ATOM     13  C   UNL     1       3.091  -2.358  -0.749  0.00  0.00    +0.024 A 
ATOM     14  C   UNL     1       2.423  -3.183   0.146  0.00  0.00    +0.042 A 
ATOM     15  C   UNL     1       1.863  -2.644   1.296  0.00  0.00    +0.024 A 
ATOM     16  C   UNL     1       1.972  -1.290   1.547  0.00  0.00    +0.005 A 
ENDBRANCH   1  14
BRANCH   4  17
ATOM     17  N   UNL     1       2.364  -7.076  -2.355  0.00  0.00    -0.292 NA
ATOM     18  C   UNL     1       3.146  -8.307  -2.069  0.00  0.00    +0.085 C 
ATOM     19  C   UNL     1       3.304  -8.959  -3.465  0.00  0.00    +0.017 C 
ATOM     20  C   UNL     1       1.943  -8.669  -4.138  0.00  0.00    +0.017 C 
ATOM     21  C   UNL     1       1.366  -7.461  -3.376  0.00  0.00    +0.085 C 
ENDBRANCH   4  17
BRANCH   3  22
ATOM     22  C   UNL     1       0.775  -4.897  -3.401  0.00  0.00    +0.055 C 
ATOM     23  C   UNL     1      -0.155  -6.111  -3.355  0.00  0.00    +0.036 C 
ATOM     24  C   UNL     1       0.155  -3.813  -4.287  0.00  0.00    +0.036 C 
ATOM     25  C   UNL     1       2.130  -5.313  -3.978  0.00  0.00    +0.036 C 
ENDBRANCH   3  22
TORSDOF 3
