REMARK  Name = ZINC64980352
REMARK  8 active torsions:
REMARK  status: ('A' for Active; 'I' for Inactive)
REMARK    1  A    between atoms: C_1  and  C_2
REMARK    2  A    between atoms: C_5  and  C_21
REMARK    3  A    between atoms: C_7  and  S_8
REMARK    4  A    between atoms: S_8  and  N_11
REMARK    5  A    between atoms: N_11  and  C_12
REMARK    6  A    between atoms: C_16  and  C_18
REMARK    7  A    between atoms: C_18  and  C_20
REMARK    8  A    between atoms: C_23  and  C_26
REMARK                            x       y       z     vdW  Elec       q    Type
REMARK                         _______ _______ _______ _____ _____    ______ ____
ROOT
ATOM      1  C   UNL     1      -0.426   1.501  -0.007  0.00  0.00    +0.046 C 
ATOM      2  C   UNL     1      -0.291   0.001  -0.047  0.00  0.00    -0.024 A 
ATOM      3  C   UNL     1      -0.465  -0.675  -1.241  0.00  0.00    +0.006 A 
ATOM      4  C   UNL     1      -0.343  -2.049  -1.283  0.00  0.00    +0.012 A 
ATOM      5  C   UNL     1      -0.043  -2.755  -0.120  0.00  0.00    +0.024 A 
ATOM      6  C   UNL     1       0.132  -2.069   1.080  0.00  0.00    +0.040 A 
ATOM      7  C   UNL     1       0.012  -0.694   1.110  0.00  0.00    +0.112 A 
ENDROOT
BRANCH   5   8
ATOM      8  C   UNL     1       0.090  -4.233  -0.159  0.00  0.00    +0.202 A 
ATOM      9  N   UNL     1      -0.050  -5.005  -1.251  0.00  0.00    -0.191 NA
ATOM     10  C   UNL     1       0.130  -6.257  -0.940  0.00  0.00    +0.231 A 
ATOM     11  O   UNL     1       0.393  -6.334   0.371  0.00  0.00    -0.337 OA
ATOM     12  N   UNL     1       0.368  -5.003   0.864  0.00  0.00    -0.056 NA
BRANCH  10  13
ATOM     13  C   UNL     1       0.054  -7.421  -1.893  0.00  0.00    +0.078 C 
ATOM     14  C   UNL     1       0.097  -8.829  -1.293  0.00  0.00    +0.014 C 
ATOM     15  C   UNL     1       1.307  -8.284  -2.055  0.00  0.00    +0.014 C 
ENDBRANCH  10  13
ENDBRANCH   5   8
BRANCH   7  16
ATOM     16  S   UNL     1       0.240   0.176   2.625  0.00  0.00    +0.073 S 
ATOM     17  O   UNL     1       0.491  -0.805   3.622  0.00  0.00    -0.150 OA
ATOM     18  O   UNL     1       1.147   1.235   2.352  0.00  0.00    -0.150 OA
BRANCH  16  19
ATOM     19  N   UNL     1      -1.209   0.880   3.007  0.00  0.00    -0.216 N 
ATOM     20  H   UNL     1      -1.297   1.846   2.995  0.00  0.00    +0.174 HD
BRANCH  19  21
ATOM     21  C   UNL     1      -2.305   0.083   3.348  0.00  0.00    +0.049 A 
ATOM     22  C   UNL     1      -2.620  -1.031   2.577  0.00  0.00    +0.024 A 
ATOM     23  C   UNL     1      -3.703  -1.824   2.908  0.00  0.00    +0.003 A 
ATOM     24  C   UNL     1      -4.480  -1.516   4.006  0.00  0.00    +0.011 A 
ATOM     25  C   UNL     1      -4.172  -0.399   4.788  0.00  0.00    +0.019 A 
ATOM     26  C   UNL     1      -3.074   0.399   4.456  0.00  0.00    +0.035 A 
BRANCH  25  27
ATOM     27  C   UNL     1      -4.999  -0.068   5.960  0.00  0.00    +0.160 C 
ATOM     28  O   UNL     1      -4.730   0.902   6.638  0.00  0.00    -0.292 OA
ATOM     29  C   UNL     1      -6.179  -0.933   6.319  0.00  0.00    +0.091 C 
ENDBRANCH  25  27
ENDBRANCH  19  21
ENDBRANCH  16  19
ENDBRANCH   7  16
TORSDOF 6
