REMARK  Name = ZINC25471452
REMARK  7 active torsions:
REMARK  status: ('A' for Active; 'I' for Inactive)
REMARK    1  A    between atoms: C_1  and  C_2
REMARK    2  A    between atoms: C_2  and  C_3
REMARK    3  A    between atoms: C_8  and  N_9
REMARK    4  A    between atoms: C_10  and  C_12
REMARK    5  A    between atoms: C_13  and  C_25
REMARK    6  A    between atoms: C_19  and  C_23
REMARK    7  A    between atoms: C_19  and  C_24
REMARK                            x       y       z     vdW  Elec       q    Type
REMARK                         _______ _______ _______ _____ _____    ______ ____
ROOT
ATOM      1  C   UNL     1       2.417   0.739   0.071  0.00  0.00    +0.106 A 
ATOM      2  C   UNL     1       3.700   1.213   0.058  0.00  0.00    -0.010 A 
ATOM      3  C   UNL     1       4.539   0.097   0.164  0.00  0.00    +0.042 A 
ATOM      4  C   UNL     1       3.730  -1.037   0.237  0.00  0.00    +0.028 A 
ATOM      5  N   UNL     1       2.459  -0.637   0.188  0.00  0.00    -0.354 N 
ATOM      6  H   UNL     1       1.523  -1.214   0.225  0.00  0.00    +0.166 HD
ATOM      7  C   UNL     1       4.286  -2.433   0.355  0.00  0.00    +0.060 C 
ATOM      8  C   UNL     1       5.740  -2.439  -0.126  0.00  0.00    -0.023 C 
ATOM      9  C   UNL     1       6.554  -1.362   0.599  0.00  0.00    +0.086 C 
ATOM     10  C   UNL     1       6.006   0.001   0.204  0.00  0.00    +0.166 C 
ATOM     11  O   UNL     1       6.728   0.941  -0.059  0.00  0.00    -0.292 OA
ATOM     12  C   UNL     1       5.775  -2.169  -1.631  0.00  0.00    +0.011 C 
ATOM     13  C   UNL     1       6.357  -3.811   0.155  0.00  0.00    +0.011 C 
ATOM     14  C   UNL     1       4.127   2.654  -0.049  0.00  0.00    +0.047 C 
ENDROOT
BRANCH   1  16
ATOM     15  N   UNL     1      -0.011   0.966   0.007  0.00  0.00    -0.280 N 
ATOM     16  C   UNL     1       1.200   1.556  -0.017  0.00  0.00    +0.265 C 
ATOM     17  O   UNL     1       1.285   2.766  -0.111  0.00  0.00    -0.268 OA
ATOM     18  H   UNL     1      -0.088  -0.131   0.023  0.00  0.00    +0.155 HD
BRANCH  15  24
ATOM     19  C   UNL     1      -2.288   1.330   0.723  0.00  0.00    -0.026 A 
ATOM     20  C   UNL     1      -3.431   2.106   0.727  0.00  0.00    +0.005 A 
ATOM     21  C   UNL     1      -3.463   3.296   0.025  0.00  0.00    +0.000 A 
ATOM     22  C   UNL     1      -2.352   3.715  -0.683  0.00  0.00    +0.002 A 
ATOM     23  C   UNL     1      -1.204   2.947  -0.687  0.00  0.00    +0.023 A 
ATOM     24  C   UNL     1      -1.170   1.748   0.013  0.00  0.00    +0.037 A 
BRANCH  19  26
ATOM     25  C   UNL     1      -1.647   0.274   2.873  0.00  0.00    +0.009 C 
ATOM     26  C   UNL     1      -2.254   0.033   1.489  0.00  0.00    +0.033 C 
ENDBRANCH  19  26
ENDBRANCH  15  24
ENDBRANCH   1  16
TORSDOF 3
