REMARK  Name = ZINC15955613
REMARK  16 active torsions:
REMARK  status: ('A' for Active; 'I' for Inactive)
REMARK    1  A    between atoms: CD1_1  and  CG1_2
REMARK    2  A    between atoms: CG1_2  and  CB_3
REMARK    3  A    between atoms: CB_3  and  CG2_5
REMARK    4  A    between atoms: CB_3  and  CA_6
REMARK    5  A    between atoms: CA_6  and  C_8
REMARK    6  A    between atoms: CA_6  and  N_10
REMARK    7  A    between atoms: C_11  and  C_13
REMARK    8  A    between atoms: C_13  and  N_14
REMARK    9  A    between atoms: C_15  and  C_17
REMARK   10  A    between atoms: C_17  and  C_18
REMARK   11  A    between atoms: C_19  and  C_37
REMARK   12  A    between atoms: C_23  and  C_33
REMARK   13  A    between atoms: C_27  and  C_32
REMARK   14  A    between atoms: C_33  and  C_34
REMARK   15  A    between atoms: C_33  and  C_35
REMARK   16  A    between atoms: C_33  and  C_36
REMARK                            x       y       z     vdW  Elec       q    Type
REMARK                         _______ _______ _______ _____ _____    ______ ____
ROOT
ATOM      1  C   UNK A   0       0.002  -0.004   0.002  0.00  0.00    +0.049 A 
ATOM      2  C   UNK A   0       1.189  -0.663  -0.013  0.00  0.00    -0.029 A 
ATOM      3  C   UNK A   0       2.422   0.130  -0.020  0.00  0.00    +0.022 A 
ATOM      4  C   UNK A   0       3.670  -0.492  -0.036  0.00  0.00    +0.023 A 
ATOM      5  C   UNK A   0       4.818   0.288  -0.044  0.00  0.00    +0.025 A 
ATOM      6  C   UNK A   0       6.257  -0.011  -0.060  0.00  0.00    +0.003 A 
ATOM      7  C   UNK A   0       6.883   1.173  -0.060  0.00  0.00    +0.200 A 
ATOM      8  O   UNK A   0       5.987   2.175  -0.046  0.00  0.00    -0.462 OA
ATOM      9  C   UNK A   0       4.726   1.695  -0.035  0.00  0.00    +0.141 A 
ATOM     10  C   UNK A   0       3.481   2.306  -0.019  0.00  0.00    +0.035 A 
ATOM     11  C   UNK A   0       2.330   1.538  -0.012  0.00  0.00    +0.146 A 
ATOM     12  O   UNK A   0       1.114   2.129   0.003  0.00  0.00    -0.422 OA
ATOM     13  C   UNK A   0      -0.017   1.407   0.010  0.00  0.00    +0.341 A 
ATOM     14  O   UNK A   0      -1.089   1.985   0.018  0.00  0.00    -0.245 OA
ATOM     15  C   UNK A   0       3.382   3.810  -0.010  0.00  0.00    +0.051 C 
ATOM     16  C   UNK A   0       1.237  -2.169  -0.022  0.00  0.00    +0.045 C 
ENDROOT
BRANCH   6  17
ATOM     17  C   UNK A   0       6.898  -1.374  -0.073  0.00  0.00    -0.009 C 
ATOM     18  C   UNK A   0       8.420  -1.222  -0.088  0.00  0.00    +0.015 C 
ATOM     19  C   UNK A   0       6.475  -2.149   1.176  0.00  0.00    +0.015 C 
ATOM     20  C   UNK A   0       6.449  -2.136  -1.322  0.00  0.00    +0.015 C 
ENDBRANCH   6  17
BRANCH   1  21
ATOM     21  C   UNK A   0      -1.291  -0.777   0.010  0.00  0.00    +0.138 C 
BRANCH  21  23
ATOM     22  N   UNK A   0      -2.875  -1.706  -1.648  0.00  0.00    -0.306 N 
ATOM     23  C   UNK A   0      -1.736  -1.027  -1.409  0.00  0.00    +0.218 C 
ATOM     24  O   UNK A   0      -1.067  -0.618  -2.334  0.00  0.00    -0.275 OA
ATOM     25  H   UNK A   0      -3.409  -2.033  -0.908  0.00  0.00    +0.149 HD
BRANCH  22  26
ATOM     26  C   UNK A   0      -3.307  -1.949  -3.027  0.00  0.00    +0.200 C 
BRANCH  26  28
ATOM     27  N   ILE A   1      -5.189  -3.062  -4.183  0.00  0.00    -0.301 N 
ATOM     28  C   UNK A   0      -4.601  -2.722  -3.019  0.00  0.00    +0.231 C 
ATOM     29  O   UNK A   0      -5.111  -3.039  -1.966  0.00  0.00    -0.274 OA
ATOM     30  H   ILE A   1      -4.781  -2.808  -5.025  0.00  0.00    +0.150 HD
BRANCH  27  31
ATOM     31  CA  ILE A   1      -6.447  -3.813  -4.175  0.00  0.00    +0.189 C 
BRANCH  31  32
ATOM     32  C   ILE A   1      -6.151  -5.287  -4.062  0.00  0.00    +0.376 C 
ATOM     33  O   ILE A   1      -5.007  -5.670  -3.994  0.00  0.00    -0.244 OA
ATOM     34  OXT ILE A   1      -7.158  -6.174  -4.036  0.00  0.00    -0.244 OA
ENDBRANCH  31  32
BRANCH  31  35
ATOM     35  CB  ILE A   1      -7.209  -3.545  -5.474  0.00  0.00    +0.017 C 
ATOM     36  CG2 ILE A   1      -6.413  -4.100  -6.657  0.00  0.00    +0.010 C 
BRANCH  35  38
ATOM     37  CD1 ILE A   1      -9.388  -3.858  -6.657  0.00  0.00    +0.004 C 
ATOM     38  CG1 ILE A   1      -8.577  -4.229  -5.414  0.00  0.00    +0.002 C 
ENDBRANCH  35  38
ENDBRANCH  31  35
ENDBRANCH  27  31
ENDBRANCH  26  28
ENDBRANCH  22  26
ENDBRANCH  21  23
ENDBRANCH   1  21
TORSDOF 9
