REMARK  Name = ZINC36630126
REMARK  5 active torsions:
REMARK  status: ('A' for Active; 'I' for Inactive)
REMARK    1  A    between atoms: C_1  and  C_2
REMARK    2  A    between atoms: C_2  and  C_3
REMARK    3  A    between atoms: C_2  and  N_4
REMARK    4  A    between atoms: C_5  and  C_9
REMARK    5  A    between atoms: C_15  and  C_17
REMARK                            x       y       z     vdW  Elec       q    Type
REMARK                         _______ _______ _______ _____ _____    ______ ____
ROOT
ATOM      1  C   UNL     1      -1.208  -1.982  -2.053  0.00  0.00    +0.270 C 
ATOM      2  O   UNL     1      -1.835  -2.632  -2.868  0.00  0.00    -0.268 OA
ATOM      3  N   UNL     1       0.120  -1.811  -2.205  0.00  0.00    -0.233 N 
ATOM      4  C   UNL     1       0.754  -2.284  -3.344  0.00  0.00    +0.315 A 
ATOM      5  N   UNL     1       0.183  -2.907  -4.345  0.00  0.00    -0.092 NA
ATOM      6  N   UNL     1       1.071  -3.202  -5.229  0.00  0.00    -0.106 NA
ATOM      7  C   UNL     1       2.245  -2.778  -4.825  0.00  0.00    +0.252 A 
ATOM      8  O   UNL     1       2.067  -2.183  -3.625  0.00  0.00    -0.405 OA
ATOM      9  H   UNL     1       0.633  -1.357  -1.518  0.00  0.00    +0.160 HD
ENDROOT
BRANCH   7  10
ATOM     10  C   UNL     1       3.523  -2.920  -5.550  0.00  0.00    +0.065 A 
ATOM     11  C   UNL     1       3.585  -3.566  -6.834  0.00  0.00    +0.042 A 
ATOM     12  C   UNL     1       4.786  -3.662  -7.444  0.00  0.00    +0.080 A 
ATOM     13  S   UNL     1       5.883  -2.871  -6.283  0.00  0.00    -0.064 S 
ATOM     14  C   UNL     1       4.694  -2.436  -5.028  0.00  0.00    +0.092 A 
ATOM     15 CL   UNL     1       4.953  -1.609  -3.524  0.00  0.00    -0.075 Cl
ATOM     16 CL   UNL     1       5.167  -4.380  -8.977  0.00  0.00    -0.076 Cl
ENDBRANCH   7  10
BRANCH   1  18
ATOM     17  N   UNL     1      -3.211  -1.545  -0.556  0.00  0.00    -0.257 N 
ATOM     18  C   UNL     1      -1.899  -1.383  -0.901  0.00  0.00    +0.124 A 
ATOM     19  C   UNL     1      -1.351  -0.541   0.051  0.00  0.00    +0.054 A 
ATOM     20  C   UNL     1      -2.396  -0.244   0.929  0.00  0.00    +0.135 A 
ATOM     21  N   UNL     1      -3.465  -0.868   0.505  0.00  0.00    -0.179 NA
BRANCH  17  23
ATOM     22  C   UNL     1      -4.634  -3.529  -0.407  0.00  0.00    +0.032 C 
ATOM     23  C   UNL     1      -4.181  -2.363  -1.289  0.00  0.00    +0.102 C 
ATOM     24  C   UNL     1      -5.392  -1.505  -1.662  0.00  0.00    +0.032 C 
ENDBRANCH  17  23
ENDBRANCH   1  18
TORSDOF 3
