REMARK  Name = ZINC22240961
REMARK  9 active torsions:
REMARK  status: ('A' for Active; 'I' for Inactive)
REMARK    1  A    between atoms: C_1  and  C_2
REMARK    2  A    between atoms: N_4  and  C_5
REMARK    3  A    between atoms: C_5  and  C_7
REMARK    4  A    between atoms: C_5  and  C_29
REMARK    5  A    between atoms: C_7  and  C_8
REMARK    6  A    between atoms: N_10  and  C_11
REMARK    7  A    between atoms: C_14  and  S_17
REMARK    8  A    between atoms: S_17  and  C_20
REMARK    9  A    between atoms: C_23  and  N_26
REMARK                            x       y       z     vdW  Elec       q    Type
REMARK                         _______ _______ _______ _____ _____    ______ ____
ROOT
ATOM      1  C   UNL     1       4.642  -5.040   2.516  0.00  0.00    +0.033 A 
ATOM      2  C   UNL     1       5.294  -5.369   1.334  0.00  0.00    +0.025 A 
ATOM      3  C   UNL     1       6.192  -6.417   1.311  0.00  0.00    +0.029 A 
ATOM      4  C   UNL     1       6.435  -7.147   2.461  0.00  0.00    +0.094 A 
ATOM      5  C   UNL     1       5.783  -6.826   3.637  0.00  0.00    +0.029 A 
ATOM      6  C   UNL     1       4.888  -5.775   3.668  0.00  0.00    +0.025 A 
ENDROOT
BRANCH   1   9
ATOM      7  C   UNL     1       3.634  -3.205   3.645  0.00  0.00    +0.219 C 
ATOM      8  O   UNL     1       4.266  -3.485   4.641  0.00  0.00    -0.275 OA
ATOM      9  N   UNL     1       3.735  -3.975   2.544  0.00  0.00    -0.285 N 
ATOM     10  H   UNL     1       3.105  -3.766   1.667  0.00  0.00    +0.155 HD
BRANCH   7  11
ATOM     11  C   UNL     1       2.734  -1.996   3.639  0.00  0.00    +0.123 C 
BRANCH  11  12
ATOM     12  C   UNL     1       2.801  -1.304   5.002  0.00  0.00    +0.118 C 
BRANCH  12  16
ATOM     13  C   UNL     1       6.058   0.666   4.588  0.00  0.00    +0.109 C 
ATOM     14  C   UNL     1       4.668   0.128   4.365  0.00  0.00    +0.210 C 
ATOM     15  O   UNL     1       4.013   0.512   3.420  0.00  0.00    -0.276 OA
ATOM     16  N   UNL     1       4.152  -0.780   5.218  0.00  0.00    -0.308 N 
ATOM     17  H   UNL     1       4.747  -1.128   6.076  0.00  0.00    +0.149 HD
ENDBRANCH  12  16
BRANCH  12  18
ATOM     18  C   UNL     1       1.811  -0.168   5.038  0.00  0.00    +0.010 A 
ATOM     19  C   UNL     1       0.575  -0.130   5.592  0.00  0.00    +0.013 A 
ATOM     20  C   UNL     1      -0.165   1.034   5.502  0.00  0.00    +0.008 A 
ATOM     21  C   UNL     1       0.367   2.103   4.862  0.00  0.00    +0.045 A 
ATOM     22  S   UNL     1       1.962   1.477   4.360  0.00  0.00    -0.100 S 
ENDBRANCH  12  18
ENDBRANCH  11  12
ENDBRANCH   7  11
ENDBRANCH   1   9
BRANCH   4  23
ATOM     23  S   UNL     1       7.577  -8.488   2.426  0.00  0.00    +0.025 S 
ATOM     24  O   UNL     1       8.461  -8.240   1.341  0.00  0.00    -0.164 OA
ATOM     25  O   UNL     1       8.037  -8.665   3.759  0.00  0.00    -0.164 OA
BRANCH  23  26
ATOM     26  C   UNL     1       6.666  -9.938   2.011  0.00  0.00    +0.094 A 
ATOM     27  C   UNL     1       6.109 -10.714   3.010  0.00  0.00    +0.029 A 
ATOM     28  C   UNL     1       5.391 -11.849   2.685  0.00  0.00    +0.034 A 
ATOM     29  C   UNL     1       5.237 -12.213   1.361  0.00  0.00    +0.126 A 
ATOM     30  C   UNL     1       5.798 -11.440   0.361  0.00  0.00    +0.034 A 
ATOM     31  C   UNL     1       6.513 -10.303   0.686  0.00  0.00    +0.029 A 
BRANCH  29  32
ATOM     32  N   UNL     1       4.471 -13.431   1.012  0.00  0.00    +0.056 N 
ATOM     33  O   UNL     1       4.335 -13.752  -0.155  0.00  0.00    -0.126 OA
ATOM     34  O   UNL     1       3.977 -14.113   1.893  0.00  0.00    -0.126 OA
ENDBRANCH  29  32
ENDBRANCH  23  26
ENDBRANCH   4  23
TORSDOF 8
