REMARK  Name = ZINC08870942
REMARK  12 active torsions:
REMARK  status: ('A' for Active; 'I' for Inactive)
REMARK    1  A    between atoms: C_1  and  C_2
REMARK    2  A    between atoms: C_5  and  S_8
REMARK    3  A    between atoms: S_8  and  N_11
REMARK    4  A    between atoms: N_11  and  C_12
REMARK    5  A    between atoms: N_11  and  C_13
REMARK    6  A    between atoms: C_14  and  C_31
REMARK    7  A    between atoms: C_16  and  C_30
REMARK    8  A    between atoms: C_17  and  S_20
REMARK    9  A    between atoms: C_18  and  C_19
REMARK   10  A    between atoms: S_20  and  N_23
REMARK   11  A    between atoms: N_23  and  C_24
REMARK   12  A    between atoms: C_24  and  C_25
REMARK                            x       y       z     vdW  Elec       q    Type
REMARK                         _______ _______ _______ _____ _____    ______ ____
ROOT
ATOM      1  C   UNL     1       0.340  -0.787  -1.213  0.00  0.00    +0.059 A 
ATOM      2  C   UNL     1       0.453  -0.073  -0.026  0.00  0.00    -0.027 A 
ATOM      3  C   UNL     1       0.129  -0.675   1.173  0.00  0.00    +0.010 A 
ATOM      4  C   UNL     1      -0.303  -1.989   1.195  0.00  0.00    -0.023 A 
ATOM      5  C   UNL     1      -0.413  -2.704   0.016  0.00  0.00    +0.113 A 
ATOM      6  C   UNL     1      -0.090  -2.107  -1.187  0.00  0.00    -0.001 A 
ATOM      7  C   UNL     1      -0.209  -2.887  -2.471  0.00  0.00    +0.048 C 
ATOM      8  C   UNL     1      -0.657  -2.643   2.506  0.00  0.00    +0.046 C 
ATOM      9  C   UNL     1       0.924   1.358  -0.049  0.00  0.00    +0.046 C 
ENDROOT
BRANCH   5  10
ATOM     10  S   UNL     1      -0.965  -4.377   0.049  0.00  0.00    +0.059 S 
ATOM     11  O   UNL     1      -1.674  -4.546   1.269  0.00  0.00    -0.153 OA
ATOM     12  O   UNL     1      -1.555  -4.635  -1.218  0.00  0.00    -0.153 OA
BRANCH  10  13
ATOM     13  N   UNL     1       0.382  -5.335   0.148  0.00  0.00    -0.183 NA
ATOM     14  H   UNL     1       0.607  -5.932  -0.583  0.00  0.00    +0.148 HD
BRANCH  13  15
ATOM     15  C   UNL     1       1.234  -5.281   1.339  0.00  0.00    +0.180 C 
BRANCH  15  16
ATOM     16  C   UNL     1       2.153  -6.475   1.353  0.00  0.00    +0.120 A 
ATOM     17  C   UNL     1       3.379  -6.530   0.801  0.00  0.00    +0.046 A 
ATOM     18  C   UNL     1       3.881  -7.828   1.049  0.00  0.00    +0.041 A 
ATOM     19  C   UNL     1       2.933  -8.489   1.737  0.00  0.00    +0.195 A 
ATOM     20  O   UNL     1       1.891  -7.662   1.923  0.00  0.00    -0.466 OA
ENDBRANCH  15  16
ENDBRANCH  13  15
ENDBRANCH  10  13
ENDBRANCH   5  10
BRANCH   1  21
ATOM     21  N   UNL     1       0.663  -0.179  -2.428  0.00  0.00    -0.205 N 
ATOM     22  C   UNL     1       2.032  -0.254  -2.944  0.00  0.00    +0.157 C 
BRANCH  21  23
ATOM     23  S   UNL     1      -0.503   0.625  -3.287  0.00  0.00    +0.074 S 
ATOM     24  O   UNL     1      -0.076   0.633  -4.642  0.00  0.00    -0.150 OA
ATOM     25  O   UNL     1      -1.752   0.081  -2.885  0.00  0.00    -0.150 OA
BRANCH  23  30
ATOM     26  C   UNL     1      -0.445   6.365  -1.427  0.00  0.00    +0.044 C 
ATOM     27  C   UNL     1      -0.459   4.932  -1.892  0.00  0.00    -0.050 A 
ATOM     28  C   UNL     1       0.340   4.540  -2.949  0.00  0.00    +0.005 A 
ATOM     29  C   UNL     1       0.327   3.224  -3.375  0.00  0.00    +0.029 A 
ATOM     30  C   UNL     1      -0.485   2.301  -2.744  0.00  0.00    +0.109 A 
ATOM     31  C   UNL     1      -1.289   2.695  -1.690  0.00  0.00    +0.029 A 
ATOM     32  C   UNL     1      -1.272   4.009  -1.261  0.00  0.00    +0.005 A 
ENDBRANCH  23  30
ENDBRANCH  21  23
ENDBRANCH   1  21
TORSDOF 7
