REMARK  Name = ZINC20838852
REMARK  13 active torsions:
REMARK  status: ('A' for Active; 'I' for Inactive)
REMARK    1  A    between atoms: C_1  and  C_2
REMARK    2  A    between atoms: C_2  and  C_30
REMARK    3  A    between atoms: C_4  and  N_10
REMARK    4  A    between atoms: C_6  and  C_8
REMARK    5  A    between atoms: C_6  and  C_9
REMARK    6  A    between atoms: C_11  and  C_13
REMARK    7  A    between atoms: C_13  and  S_14
REMARK    8  A    between atoms: S_14  and  C_15
REMARK    9  A    between atoms: C_18  and  C_26
REMARK   10  A    between atoms: N_19  and  C_20
REMARK   11  A    between atoms: C_26  and  C_27
REMARK   12  A    between atoms: C_26  and  C_28
REMARK   13  A    between atoms: C_26  and  C_29
REMARK                            x       y       z     vdW  Elec       q    Type
REMARK                         _______ _______ _______ _____ _____    ______ ____
ROOT
ATOM      1  C   UNL     1       0.229  -0.105  -0.866  0.00  0.00    +0.173 C 
ENDROOT
BRANCH   1   3
ATOM      2  N   UNL     1      -1.346  -1.964  -1.298  0.00  0.00    -0.312 N 
ATOM      3  C   UNL     1      -1.082  -0.644  -1.377  0.00  0.00    +0.224 C 
ATOM      4  O   UNL     1      -1.900   0.109  -1.861  0.00  0.00    -0.275 OA
ATOM      5  H   UNL     1      -0.604  -2.647  -0.859  0.00  0.00    +0.149 HD
BRANCH   2   9
ATOM      6  C   UNL     1      -4.044  -4.032  -4.096  0.00  0.00    -0.010 C 
ATOM      7  C   UNL     1      -3.771  -4.538  -2.675  0.00  0.00    -0.072 C 
ATOM      8  C   UNL     1      -2.450  -3.960  -2.172  0.00  0.00    +0.009 C 
ATOM      9  C   UNL     1      -2.623  -2.489  -1.796  0.00  0.00    +0.070 C 
ATOM     10  C   UNL     1      -3.674  -2.389  -0.691  0.00  0.00    +0.009 C 
ATOM     11  C   UNL     1      -5.009  -2.950  -1.174  0.00  0.00    -0.072 C 
ATOM     12  N   UNL     1      -4.884  -4.253  -1.794  0.00  0.00    +0.386 N 
ATOM     13  C   UNL     1      -5.673  -1.946  -2.124  0.00  0.00    -0.010 C 
ATOM     14  C   UNL     1      -5.929  -3.090   0.059  0.00  0.00    -0.010 C 
ATOM     15  C   UNL     1      -3.604  -6.072  -2.760  0.00  0.00    -0.010 C 
ATOM     16  H   UNL     1      -5.828  -4.373  -2.346  0.00  0.00    -0.084 HD
ATOM     17  H   UNL     1      -4.866  -4.949  -0.943  0.00  0.00    -0.084 HD
ENDBRANCH   2   9
ENDBRANCH   1   3
BRANCH   1  18
ATOM     18  S   UNL     1       0.282   1.687  -1.112  0.00  0.00    -0.076 S 
BRANCH  18  19
ATOM     19  C   UNL     1       1.874   2.041  -0.445  0.00  0.00    +0.197 A 
ATOM     20  N   UNL     1       2.714   1.174   0.072  0.00  0.00    -0.122 NA
ATOM     21  N   UNL     1       3.782   1.776   0.458  0.00  0.00    -0.133 NA
ATOM     22  C   UNL     1       3.687   3.054   0.222  0.00  0.00    +0.144 A 
ATOM     23  N   UNL     1       2.467   3.271  -0.363  0.00  0.00    -0.274 N 
BRANCH  23  24
ATOM     24  C   UNL     1       1.936   4.497  -0.787  0.00  0.00    +0.050 A 
ATOM     25  C   UNL     1       2.446   5.122  -1.917  0.00  0.00    +0.026 A 
ATOM     26  C   UNL     1       1.918   6.328  -2.336  0.00  0.00    +0.002 A 
ATOM     27  C   UNL     1       0.890   6.918  -1.624  0.00  0.00    +0.000 A 
ATOM     28  C   UNL     1       0.384   6.301  -0.495  0.00  0.00    +0.002 A 
ATOM     29  C   UNL     1       0.904   5.092  -0.074  0.00  0.00    +0.026 A 
ENDBRANCH  23  24
BRANCH  22  30
ATOM     30  C   UNL     1       4.726   4.100   0.534  0.00  0.00    +0.023 C 
ATOM     31  C   UNL     1       4.090   5.218   1.364  0.00  0.00    +0.019 C 
ATOM     32  C   UNL     1       5.868   3.463   1.328  0.00  0.00    +0.019 C 
ATOM     33  C   UNL     1       5.273   4.681  -0.771  0.00  0.00    +0.019 C 
ENDBRANCH  22  30
ENDBRANCH  18  19
ENDBRANCH   1  18
TORSDOF 6
