REMARK  Name = ZINC27528380
REMARK  6 active torsions:
REMARK  status: ('A' for Active; 'I' for Inactive)
REMARK    1  A    between atoms: C_4  and  C_30
REMARK    2  A    between atoms: C_5  and  C_7
REMARK    3  A    between atoms: C_11  and  C_21
REMARK    4  A    between atoms: C_16  and  N_20
REMARK    5  A    between atoms: C_17  and  C_18
REMARK    6  A    between atoms: C_25  and  N_27
REMARK                            x       y       z     vdW  Elec       q    Type
REMARK                         _______ _______ _______ _____ _____    ______ ____
ROOT
ATOM      1  C   UNL     1       0.814  -0.746   0.317  0.00  0.00    +0.083 C 
ATOM      2  C   UNL     1       0.539  -1.899   1.290  0.00  0.00    +0.140 C 
ATOM      3  C   UNL     1       0.729  -1.452   2.721  0.00  0.00    +0.084 C 
ATOM      4  N   UNL     1      -0.442  -1.550   3.290  0.00  0.00    -0.150 NA
ATOM      5  N   UNL     1      -1.427  -1.980   2.401  0.00  0.00    -0.115 NA
ATOM      6  C   UNL     1      -0.960  -2.169   1.204  0.00  0.00    +0.227 C 
ATOM      7  O   UNL     1      -1.554  -2.457   0.025  0.00  0.00    -0.425 OA
ATOM      8  C   UNL     1      -1.065  -1.759  -1.032  0.00  0.00    +0.200 C 
ATOM      9  C   UNL     1       0.026  -0.967  -0.946  0.00  0.00    +0.095 C 
ENDROOT
BRANCH   1  14
ATOM     10  C   UNL     1      -1.274   1.904   2.013  0.00  0.00    +0.000 A 
ATOM     11  C   UNL     1      -0.372   2.948   2.107  0.00  0.00    +0.001 A 
ATOM     12  C   UNL     1       0.913   2.796   1.621  0.00  0.00    +0.012 A 
ATOM     13  C   UNL     1       1.297   1.601   1.042  0.00  0.00    +0.059 A 
ATOM     14  C   UNL     1       0.396   0.557   0.949  0.00  0.00    -0.026 A 
ATOM     15  C   UNL     1      -0.890   0.709   1.434  0.00  0.00    +0.005 A 
BRANCH  13  16
ATOM     16  C   UNL     1       2.698   1.436   0.512  0.00  0.00    +0.418 C 
ATOM     17  F   UNL     1       3.439   2.591   0.783  0.00  0.00    -0.166 F 
ATOM     18  F   UNL     1       3.304   0.337   1.130  0.00  0.00    -0.166 F 
ATOM     19  F   UNL     1       2.651   1.226  -0.871  0.00  0.00    -0.166 F 
ENDBRANCH  13  16
ENDBRANCH   1  14
BRANCH   3  20
ATOM     20  C   UNL     1       1.982  -0.997   3.347  0.00  0.00    +0.001 A 
ATOM     21  C   UNL     1       3.210  -1.500   2.907  0.00  0.00    +0.010 A 
ATOM     22  C   UNL     1       4.379  -1.068   3.498  0.00  0.00    +0.003 A 
ATOM     23  C   UNL     1       4.338  -0.141   4.524  0.00  0.00    +0.033 A 
ATOM     24  C   UNL     1       3.127   0.361   4.965  0.00  0.00    +0.127 A 
ATOM     25  C   UNL     1       1.949  -0.056   4.380  0.00  0.00    +0.042 A 
BRANCH  24  26
ATOM     26  N   UNL     1       3.094   1.353   6.064  0.00  0.00    +0.056 N 
ATOM     27  O   UNL     1       4.125   1.723   6.575  0.00  0.00    -0.126 OA
ATOM     28  O   UNL     1       2.036   1.792   6.451  0.00  0.00    -0.126 OA
ENDBRANCH  24  26
ENDBRANCH   3  20
BRANCH   8  29
ATOM     29  N   UNL     1      -1.706  -1.863  -2.241  0.00  0.00    -0.328 N 
ATOM     30  H   UNL     1      -2.492  -2.425  -2.327  0.00  0.00    +0.145 HD
ATOM     31  H   UNL     1      -1.375  -1.373  -3.010  0.00  0.00    +0.145 HD
ENDBRANCH   8  29
BRANCH   9  32
ATOM     32  C   UNL     1       0.463  -0.295  -2.133  0.00  0.00    +0.100 C 
ATOM     33  N   UNL     1       0.809   0.238  -3.074  0.00  0.00    -0.191 NA
ENDBRANCH   9  32
TORSDOF 6
