REMARK  Name = ZINC24897444
REMARK  7 active torsions:
REMARK  status: ('A' for Active; 'I' for Inactive)
REMARK    1  A    between atoms: C_1  and  C_2
REMARK    2  A    between atoms: C_5  and  N_8
REMARK    3  A    between atoms: C_12  and  C_14
REMARK    4  A    between atoms: C_14  and  C_16
REMARK    5  A    between atoms: C_14  and  S_17
REMARK    6  A    between atoms: S_17  and  C_18
REMARK    7  A    between atoms: C_21  and  C_24
REMARK                            x       y       z     vdW  Elec       q    Type
REMARK                         _______ _______ _______ _____ _____    ______ ____
ROOT
ATOM      1  C   UNL     1       3.611  -6.234  -0.483  0.00  0.00    +0.137 C 
ATOM      2  C   UNL     1       3.444  -6.859   0.903  0.00  0.00    +0.029 C 
ENDROOT
BRANCH   1   7
ATOM      3  N   UNL     1       1.237  -2.080  -0.020  0.00  0.00    -0.269 N 
ATOM      4  C   UNL     1       2.410  -2.734  -0.137  0.00  0.00    +0.310 C 
ATOM      5  O   UNL     1       3.454  -2.113  -0.144  0.00  0.00    -0.252 OA
ATOM      6  N   UNL     1       2.424  -4.077  -0.245  0.00  0.00    -0.239 N 
ATOM      7  C   UNL     1       3.596  -4.732  -0.362  0.00  0.00    +0.234 C 
ATOM      8  O   UNL     1       4.638  -4.113  -0.369  0.00  0.00    -0.274 OA
ATOM      9  H   UNL     1       0.298  -2.645   0.074  0.00  0.00    +0.156 HD
ATOM     10  H   UNL     1       1.478  -4.640  -0.239  0.00  0.00    +0.159 HD
BRANCH   3  15
ATOM     11  C   UNL     1       1.143   3.593  -0.019  0.00  0.00    +0.044 C 
ATOM     12  C   UNL     1       1.168   2.086  -0.019  0.00  0.00    -0.050 A 
ATOM     13  C   UNL     1       2.111   1.412  -0.773  0.00  0.00    +0.005 A 
ATOM     14  C   UNL     1       2.137   0.031  -0.775  0.00  0.00    +0.023 A 
ATOM     15  C   UNL     1       1.214  -0.680  -0.020  0.00  0.00    +0.035 A 
ATOM     16  C   UNL     1       0.268  -0.001   0.736  0.00  0.00    +0.023 A 
ATOM     17  C   UNL     1       0.248   1.381   0.734  0.00  0.00    +0.005 A 
ENDBRANCH   3  15
ENDBRANCH   1   7
BRANCH   1  18
ATOM     18  S   UNL     1       5.187  -6.766  -1.198  0.00  0.00    -0.074 S 
BRANCH  18  19
ATOM     19  C   UNL     1       4.881  -8.493  -1.364  0.00  0.00    +0.185 A 
ATOM     20  N   UNL     1       5.746  -9.425  -1.863  0.00  0.00    -0.201 NA
ATOM     21  H   UNL     1       2.848  -8.736  -0.589  0.00  0.00    +0.191 HD
ATOM     22  C   UNL     1       5.077 -10.625  -1.796  0.00  0.00    +0.185 A 
ATOM     23  N   UNL     1       3.890 -10.377  -1.293  0.00  0.00    -0.151 NA
ATOM     24  N   UNL     1       3.778  -9.124  -1.030  0.00  0.00    -0.253 N 
BRANCH  22  25
ATOM     25  C   UNL     1       5.597 -11.945  -2.212  0.00  0.00    +0.056 A 
ATOM     26  C   UNL     1       4.804 -13.085  -2.076  0.00  0.00    +0.014 A 
ATOM     27  C   UNL     1       5.295 -14.314  -2.466  0.00  0.00    +0.001 A 
ATOM     28  C   UNL     1       6.570 -14.419  -2.993  0.00  0.00    +0.003 A 
ATOM     29  C   UNL     1       7.363 -13.294  -3.131  0.00  0.00    +0.039 A 
ATOM     30  C   UNL     1       6.882 -12.056  -2.749  0.00  0.00    +0.134 A 
ATOM     31  F   UNL     1       7.655 -10.956  -2.890  0.00  0.00    -0.205 F 
ENDBRANCH  22  25
ENDBRANCH  18  19
ENDBRANCH   1  18
TORSDOF 5
