REMARK  Name = ZINC45153905
REMARK  9 active torsions:
REMARK  status: ('A' for Active; 'I' for Inactive)
REMARK    1  A    between atoms: C_1  and  C_2
REMARK    2  A    between atoms: C_3  and  N_25
REMARK    3  A    between atoms: C_5  and  C_7
REMARK    4  A    between atoms: N_9  and  N_10
REMARK    5  A    between atoms: N_10  and  C_11
REMARK    6  A    between atoms: C_11  and  N_13
REMARK    7  A    between atoms: N_13  and  C_14
REMARK    8  A    between atoms: C_19  and  C_24
REMARK    9  A    between atoms: C_21  and  C_23
REMARK                            x       y       z     vdW  Elec       q    Type
REMARK                         _______ _______ _______ _____ _____    ______ ____
ROOT
ATOM      1  N   UNL     1       2.959  -5.398  -0.039  0.00  0.00    -0.246 N 
ATOM      2  H   UNL     1       2.374  -6.172  -0.040  0.00  0.00    +0.172 HD
ENDROOT
BRANCH   1   5
ATOM      3  C   UNL     1       1.076  -3.942  -0.023  0.00  0.00    +0.267 C 
ATOM      4  O   UNL     1       0.342  -4.913  -0.025  0.00  0.00    -0.268 OA
ATOM      5  N   UNL     1       2.413  -4.108  -0.030  0.00  0.00    -0.231 N 
ATOM      6  H   UNL     1       2.998  -3.334  -0.029  0.00  0.00    +0.173 HD
BRANCH   3  11
ATOM      7  C   UNL     1      -0.018   1.503   0.010  0.00  0.00    +0.054 C 
ATOM      8  C   UNL     1       0.002  -0.004   0.002  0.00  0.00    +0.018 A 
ATOM      9  C   UNL     1      -1.056  -0.852   0.002  0.00  0.00    +0.137 A 
ATOM     10  C   UNL     1      -0.827  -2.207  -0.006  0.00  0.00    +0.053 A 
ATOM     11  C   UNL     1       0.505  -2.592  -0.014  0.00  0.00    +0.078 A 
ATOM     12  S   UNL     1       1.341  -1.018  -0.017  0.00  0.00    -0.087 S 
BRANCH   9  13
ATOM     13  N   UNL     1      -2.440  -0.325   0.011  0.00  0.00    +0.057 N 
ATOM     14  O   UNL     1      -3.377  -1.088   0.011  0.00  0.00    -0.126 OA
ATOM     15  O   UNL     1      -2.632   0.869   0.019  0.00  0.00    -0.126 OA
ENDBRANCH   9  13
ENDBRANCH   3  11
ENDBRANCH   1   5
BRANCH   1  16
ATOM     16  C   UNL     1       4.296  -5.564  -0.046  0.00  0.00    +0.147 C 
ATOM     17  S   UNL     1       4.963  -7.141  -0.057  0.00  0.00    -0.017 S 
BRANCH  16  18
ATOM     18  N   UNL     1       5.109  -4.489  -0.044  0.00  0.00    -0.322 N 
ATOM     19  H   UNL     1       4.731  -3.595  -0.038  0.00  0.00    +0.148 HD
BRANCH  18  20
ATOM     20  C   UNL     1       6.563  -4.669  -0.052  0.00  0.00    +0.075 C 
ATOM     21  C   UNL     1       7.060  -4.864   1.382  0.00  0.00    +0.022 C 
ATOM     22  C   UNL     1       8.578  -5.052   1.374  0.00  0.00    +0.002 C 
ATOM     23  C   UNL     1       9.243  -3.814   0.767  0.00  0.00    +0.003 C 
ATOM     24  C   UNL     1       8.745  -3.620  -0.667  0.00  0.00    -0.009 C 
ATOM     25  C   UNL     1       7.227  -3.432  -0.659  0.00  0.00    +0.009 C 
ATOM     26  C   UNL     1       6.870  -2.200   0.176  0.00  0.00    +0.009 C 
ATOM     27  C   UNL     1       9.410  -2.382  -1.273  0.00  0.00    +0.008 C 
ENDBRANCH  18  20
ENDBRANCH  16  18
ENDBRANCH   1  16
TORSDOF 6
