REMARK  Name = ZINC35155750
REMARK  10 active torsions:
REMARK  status: ('A' for Active; 'I' for Inactive)
REMARK    1  A    between atoms: C_1  and  C_2
REMARK    2  A    between atoms: C_2  and  C_3
REMARK    3  A    between atoms: C_3  and  C_5
REMARK    4  A    between atoms: C_3  and  N_6
REMARK    5  A    between atoms: N_6  and  C_7
REMARK    6  A    between atoms: C_7  and  C_8
REMARK    7  A    between atoms: C_8  and  C_9
REMARK    8  A    between atoms: C_15  and  C_17
REMARK    9  A    between atoms: C_23  and  C_25
REMARK   10  A    between atoms: C_28  and  N_32
REMARK                            x       y       z     vdW  Elec       q    Type
REMARK                         _______ _______ _______ _____ _____    ______ ____
ROOT
ATOM      1  N   UNL     1      -1.112  -0.729   1.796  0.00  0.00    -0.294 N 
ATOM      2  C   UNL     1       0.212  -0.485   1.840  0.00  0.00    +0.248 C 
ATOM      3  O   UNL     1       0.651   0.351   2.605  0.00  0.00    -0.270 OA
ENDROOT
BRANCH   2   4
ATOM      4  C   UNL     1       1.132  -1.234   0.958  0.00  0.00    +0.055 A 
ATOM      5  C   UNL     1       0.764  -1.520  -0.358  0.00  0.00    +0.017 A 
ATOM      6  C   UNL     1       1.627  -2.220  -1.176  0.00  0.00    +0.033 A 
ATOM      7  C   UNL     1       2.855  -2.639  -0.695  0.00  0.00    +0.128 A 
ATOM      8  C   UNL     1       3.227  -2.360   0.608  0.00  0.00    +0.053 A 
ATOM      9  C   UNL     1       2.375  -1.655   1.436  0.00  0.00    +0.055 A 
ATOM     10 CL   UNL     1       2.846  -1.299   3.069  0.00  0.00    -0.083 Cl
BRANCH   7  11
ATOM     11  N   UNL     1       3.775  -3.389  -1.579  0.00  0.00    +0.056 N 
ATOM     12  O   UNL     1       3.453  -3.635  -2.718  0.00  0.00    -0.126 OA
ATOM     13  O   UNL     1       4.849  -3.756  -1.162  0.00  0.00    -0.126 OA
ENDBRANCH   7  11
ENDBRANCH   2   4
BRANCH   1  14
ATOM     14  C   UNL     1      -1.783  -0.898   0.504  0.00  0.00    +0.073 C 
ATOM     15  C   UNL     1      -1.533  -2.314  -0.019  0.00  0.00    +0.028 C 
BRANCH  14  17
ATOM     16  C   UNL     1      -1.869   1.486  -0.237  0.00  0.00    +0.005 C 
ATOM     17  C   UNL     1      -1.230   0.120  -0.495  0.00  0.00    +0.019 C 
ENDBRANCH  14  17
ENDBRANCH   1  14
BRANCH   1  18
ATOM     18  C   UNL     1      -1.881  -0.826   3.039  0.00  0.00    +0.117 C 
BRANCH  18  19
ATOM     19  C   UNL     1      -1.889  -2.278   3.522  0.00  0.00    +0.115 C 
BRANCH  19  20
ATOM     20  C   UNL     1      -2.680  -2.377   4.801  0.00  0.00    +0.220 C 
ATOM     21  O   UNL     1      -3.187  -1.385   5.279  0.00  0.00    -0.275 OA
ATOM     22  N   UNL     1      -2.824  -3.569   5.413  0.00  0.00    -0.263 N 
ATOM     23  C   UNL     1      -3.553  -3.661   6.592  0.00  0.00    +0.188 A 
ATOM     24  N   UNL     1      -4.178  -2.709   7.259  0.00  0.00    -0.125 NA
ATOM     25  N   UNL     1      -4.808  -2.945   8.328  0.00  0.00    -0.140 NA
ATOM     26  C   UNL     1      -4.840  -4.188   8.792  0.00  0.00    +0.134 A 
ATOM     27  S   UNL     1      -3.874  -5.019   7.539  0.00  0.00    -0.030 S 
ATOM     28  H   UNL     1      -2.418  -4.363   5.031  0.00  0.00    +0.157 HD
BRANCH  26  29
ATOM     29  C   UNL     1      -5.493  -4.732  10.002  0.00  0.00    +0.009 A 
ATOM     30  C   UNL     1      -5.388  -6.091  10.303  0.00  0.00    +0.010 A 
ATOM     31  C   UNL     1      -6.000  -6.593  11.433  0.00  0.00    +0.001 A 
ATOM     32  C   UNL     1      -6.716  -5.752  12.267  0.00  0.00    +0.000 A 
ATOM     33  C   UNL     1      -6.824  -4.404  11.974  0.00  0.00    +0.001 A 
ATOM     34  C   UNL     1      -6.212  -3.889  10.850  0.00  0.00    +0.010 A 
ENDBRANCH  26  29
ENDBRANCH  19  20
ENDBRANCH  18  19
ENDBRANCH   1  18
TORSDOF 8
