REMARK  Name = ZINC27631175
REMARK  7 active torsions:
REMARK  status: ('A' for Active; 'I' for Inactive)
REMARK    1  A    between atoms: C_1  and  C_2
REMARK    2  A    between atoms: C_2  and  C_3
REMARK    3  A    between atoms: C_6  and  N_9
REMARK    4  A    between atoms: C_11  and  C_16
REMARK    5  A    between atoms: N_18  and  C_19
REMARK    6  A    between atoms: C_21  and  C_26
REMARK    7  A    between atoms: C_24  and  C_25
REMARK                            x       y       z     vdW  Elec       q    Type
REMARK                         _______ _______ _______ _____ _____    ______ ____
ROOT
ATOM      1  C   UNL     1       1.999  -1.694   0.162  0.00  0.00    +0.222 C 
ATOM      2  O   UNL     1       3.182  -1.790  -0.089  0.00  0.00    -0.275 OA
ATOM      3  N   UNL     1       1.149  -2.668  -0.216  0.00  0.00    -0.285 N 
ATOM      4  H   UNL     1       0.068  -2.552  -0.045  0.00  0.00    +0.155 HD
ENDROOT
BRANCH   3   5
ATOM      5  C   UNL     1       1.640  -3.828  -0.827  0.00  0.00    +0.037 A 
ATOM      6  C   UNL     1       2.842  -3.792  -1.517  0.00  0.00    +0.035 A 
ATOM      7  C   UNL     1       3.329  -4.950  -2.120  0.00  0.00    +0.021 A 
ATOM      8  C   UNL     1       2.600  -6.137  -2.032  0.00  0.00    +0.012 A 
ATOM      9  C   UNL     1       1.402  -6.162  -1.347  0.00  0.00    +0.006 A 
ATOM     10  C   UNL     1       0.921  -5.014  -0.746  0.00  0.00    -0.029 A 
ATOM     11  C   UNL     1      -0.388  -5.049   0.001  0.00  0.00    +0.045 C 
BRANCH   7  12
ATOM     12  C   UNL     1       4.613  -4.921  -2.854  0.00  0.00    +0.164 A 
ATOM     13  N   UNL     1       5.223  -3.854  -3.326  0.00  0.00    -0.129 NA
ATOM     14  N   UNL     1       6.321  -4.201  -3.902  0.00  0.00    -0.134 NA
ATOM     15  C   UNL     1       6.473  -5.493  -3.828  0.00  0.00    +0.134 A 
ATOM     16  N   UNL     1       5.396  -5.994  -3.168  0.00  0.00    -0.311 N 
ATOM     17  C   UNL     1       5.124  -7.404  -2.886  0.00  0.00    +0.125 C 
ATOM     18  C   UNL     1       6.451  -8.160  -2.774  0.00  0.00    +0.022 C 
ATOM     19  C   UNL     1       6.867  -8.677  -4.150  0.00  0.00    +0.002 C 
ATOM     20  C   UNL     1       7.079  -7.517  -5.117  0.00  0.00    +0.008 C 
ATOM     21  C   UNL     1       7.627  -6.306  -4.357  0.00  0.00    +0.076 C 
ENDBRANCH   7  12
ENDBRANCH   3   5
BRANCH   1  24
ATOM     22  N   UNL     1       1.940   1.869   0.947  0.00  0.00    -0.271 N 
ATOM     23  C   UNL     1       2.598   0.565   1.092  0.00  0.00    +0.127 C 
ATOM     24  C   UNL     1       1.481  -0.484   0.897  0.00  0.00    +0.102 C 
ATOM     25  C   UNL     1       0.464   0.295   0.031  0.00  0.00    +0.110 C 
ATOM     26  C   UNL     1       0.743   1.748   0.349  0.00  0.00    +0.221 C 
ATOM     27  O   UNL     1      -0.004   2.670   0.097  0.00  0.00    -0.275 OA
BRANCH  22  31
ATOM     28  C   UNL     1       3.576   5.481   2.224  0.00  0.00    -0.048 A 
ATOM     29  C   UNL     1       4.223   4.293   2.508  0.00  0.00    +0.005 A 
ATOM     30  C   UNL     1       3.684   3.093   2.086  0.00  0.00    +0.024 A 
ATOM     31  C   UNL     1       2.490   3.082   1.377  0.00  0.00    +0.036 A 
ATOM     32  C   UNL     1       1.845   4.278   1.090  0.00  0.00    +0.024 A 
ATOM     33  C   UNL     1       2.387   5.474   1.519  0.00  0.00    +0.005 A 
BRANCH  28  35
ATOM     34  C   UNL     1       5.102   7.335   1.604  0.00  0.00    +0.009 C 
ATOM     35  C   UNL     1       4.168   6.788   2.686  0.00  0.00    +0.032 C 
ENDBRANCH  28  35
ENDBRANCH  22  31
ENDBRANCH   1  24
TORSDOF 5
