REMARK  Name = ZINC19798907
REMARK  15 active torsions:
REMARK  status: ('A' for Active; 'I' for Inactive)
REMARK    1  A    between atoms: C_1  and  O_2
REMARK    2  A    between atoms: O_2  and  C_3
REMARK    3  A    between atoms: C_5  and  C_13
REMARK    4  A    between atoms: C_7  and  O_11
REMARK    5  A    between atoms: C_8  and  O_9
REMARK    6  A    between atoms: O_9  and  C_10
REMARK    7  A    between atoms: O_11  and  C_12
REMARK    8  A    between atoms: C_13  and  N_14
REMARK    9  A    between atoms: N_14  and  C_15
REMARK   10  A    between atoms: C_15  and  C_16
REMARK   11  A    between atoms: C_21  and  S_35
REMARK   12  A    between atoms: C_25  and  N_26
REMARK   13  A    between atoms: C_30  and  C_33
REMARK   14  A    between atoms: C_33  and  O_34
REMARK   15  A    between atoms: S_35  and  C_36
REMARK                            x       y       z     vdW  Elec       q    Type
REMARK                         _______ _______ _______ _____ _____    ______ ____
ROOT
ATOM      1  C   UNL     1      -3.609   3.142   0.053  0.00  0.00    -0.024 A 
ATOM      2  C   UNL     1      -2.464   3.865  -0.105  0.00  0.00    +0.015 A 
ATOM      3  C   UNL     1      -1.236   3.175  -0.131  0.00  0.00    +0.001 A 
ATOM      4  C   UNL     1      -0.022   3.860  -0.308  0.00  0.00    +0.011 A 
ATOM      5  C   UNL     1       1.149   3.169  -0.330  0.00  0.00    +0.015 A 
ATOM      6  C   UNL     1       1.162   1.777  -0.178  0.00  0.00    +0.010 A 
ATOM      7  C   UNL     1      -0.013   1.076  -0.003  0.00  0.00    +0.043 A 
ATOM      8  C   UNL     1      -1.235   1.766   0.018  0.00  0.00    +0.074 A 
ATOM      9  N   UNL     1      -2.390   1.110   0.181  0.00  0.00    -0.232 NA
ATOM     10  C   UNL     1      -3.542   1.750   0.201  0.00  0.00    +0.123 A 
ENDROOT
BRANCH  10  11
ATOM     11  N   UNL     1      -4.715   1.030   0.372  0.00  0.00    -0.315 N 
ATOM     12  C   UNL     1      -4.941   0.117  -0.755  0.00  0.00    +0.106 C 
ATOM     13  C   UNL     1      -6.309  -0.552  -0.606  0.00  0.00    +0.019 C 
ATOM     14  C   UNL     1      -6.353  -1.323   0.717  0.00  0.00    +0.009 C 
ATOM     15  C   UNL     1      -6.067  -0.358   1.871  0.00  0.00    +0.032 C 
ATOM     16  C   UNL     1      -4.705   0.305   1.649  0.00  0.00    +0.112 C 
BRANCH  15  17
ATOM     17  C   UNL     1      -6.049  -1.132   3.191  0.00  0.00    +0.160 C 
BRANCH  17  18
ATOM     18  O   UNL     1      -7.352  -1.657   3.452  0.00  0.00    -0.395 OA
ATOM     19  H   UNL     1      -7.535  -2.247   4.363  0.00  0.00    +0.209 HD
ENDBRANCH  17  18
ENDBRANCH  15  17
ENDBRANCH  10  11
BRANCH   6  20
ATOM     20  S   UNL     1       2.697   0.912  -0.210  0.00  0.00    -0.129 S 
ATOM     21  C   UNL     1       3.932   2.217  -0.457  0.00  0.00    +0.090 C 
ENDBRANCH   6  20
BRANCH   1  22
ATOM     22  C   UNL     1      -4.944   3.841   0.082  0.00  0.00    -0.043 C 
BRANCH  22  23
ATOM     23  N   UNL     1      -5.416   3.937   1.470  0.00  0.00    +0.384 N 
ATOM     24  H   UNL     1      -4.677   4.504   2.055  0.00  0.00    -0.085 HD
ATOM     25  H   UNL     1      -5.509   2.922   1.882  0.00  0.00    -0.085 HD
BRANCH  23  26
ATOM     26  C   UNL     1      -6.718   4.614   1.537  0.00  0.00    -0.046 C 
BRANCH  26  29
ATOM     27  C   UNL     1      -7.233   5.864   5.066  0.00  0.00    +0.165 A 
ATOM     28  C   UNL     1      -6.821   5.787   3.745  0.00  0.00    +0.051 A 
ATOM     29  C   UNL     1      -7.169   4.694   2.973  0.00  0.00    -0.057 A 
ATOM     30  C   UNL     1      -7.935   3.678   3.512  0.00  0.00    +0.051 A 
ATOM     31  C   UNL     1      -8.347   3.745   4.835  0.00  0.00    +0.165 A 
ATOM     32  C   UNL     1      -7.999   4.842   5.614  0.00  0.00    +0.204 A 
BRANCH  27  34
ATOM     33  C   UNL     1      -6.102   7.952   5.196  0.00  0.00    +0.277 C 
ATOM     34  O   UNL     1      -6.890   6.939   5.825  0.00  0.00    -0.491 OA
ENDBRANCH  27  34
BRANCH  32  35
ATOM     35  O   UNL     1      -8.406   4.914   6.911  0.00  0.00    -0.488 OA
ATOM     36  C   UNL     1      -9.662   5.547   7.162  0.00  0.00    +0.277 C 
ENDBRANCH  32  35
BRANCH  31  37
ATOM     37  O   UNL     1      -9.096   2.742   5.366  0.00  0.00    -0.491 OA
ATOM     38  C   UNL     1      -9.417   1.646   4.507  0.00  0.00    +0.277 C 
ENDBRANCH  31  37
ENDBRANCH  26  29
ENDBRANCH  23  26
ENDBRANCH  22  23
ENDBRANCH   1  22
TORSDOF 11
