REMARK  Name = ZINC39966268
REMARK  7 active torsions:
REMARK  status: ('A' for Active; 'I' for Inactive)
REMARK    1  A    between atoms: C_1  and  N_2
REMARK    2  A    between atoms: C_3  and  C_20
REMARK    3  A    between atoms: C_6  and  S_7
REMARK    4  A    between atoms: S_7  and  C_8
REMARK    5  A    between atoms: C_8  and  C_9
REMARK    6  A    between atoms: N_11  and  C_12
REMARK    7  A    between atoms: C_12  and  C_13
REMARK                            x       y       z     vdW  Elec       q    Type
REMARK                         _______ _______ _______ _____ _____    ______ ____
ROOT
ATOM      1  C   UNL     1       0.080   1.460   0.001  0.00  0.00    +0.153 C 
ATOM      2  N   UNL     1       0.045  -0.004  -0.002  0.00  0.00    -0.305 N 
ATOM      3  C   UNL     1      -0.087  -0.831  -1.094  0.00  0.00    +0.165 A 
ATOM      4  N   UNL     1      -0.069  -2.065  -0.646  0.00  0.00    -0.128 NA
ATOM      5  N   UNL     1       0.063  -2.067   0.632  0.00  0.00    -0.122 NA
ATOM      6  C   UNL     1       0.143  -0.836   1.079  0.00  0.00    +0.192 A 
ENDROOT
BRANCH   3   7
ATOM      7  C   UNL     1      -0.224  -0.409  -2.504  0.00  0.00    +0.030 A 
ATOM      8  C   UNL     1       0.625   0.522  -3.026  0.00  0.00    +0.057 A 
ATOM      9  S   UNL     1       0.036   0.654  -4.707  0.00  0.00    -0.101 S 
ATOM     10  C   UNL     1      -1.280  -0.532  -4.599  0.00  0.00    -0.006 A 
ATOM     11  C   UNL     1      -1.228  -0.971  -3.317  0.00  0.00    -0.026 A 
ATOM     12  C   UNL     1      -2.213  -2.004  -2.775  0.00  0.00    +0.036 C 
ATOM     13  C   UNL     1      -2.725  -2.881  -3.911  0.00  0.00    +0.005 C 
ATOM     14  C   UNL     1      -3.978  -2.274  -4.539  0.00  0.00    +0.001 C 
ATOM     15  C   UNL     1      -3.651  -0.918  -5.157  0.00  0.00    +0.005 C 
ATOM     16  C   UNL     1      -2.217  -0.956  -5.683  0.00  0.00    +0.043 C 
ENDBRANCH   3   7
BRANCH   6  17
ATOM     17  S   UNL     1       0.337  -0.345   2.761  0.00  0.00    -0.077 S 
BRANCH  17  18
ATOM     18  C   UNL     1       0.400  -1.913   3.671  0.00  0.00    +0.173 C 
BRANCH  18  19
ATOM     19  C   UNL     1       0.566  -1.633   5.142  0.00  0.00    +0.224 C 
ATOM     20  O   UNL     1       0.636  -0.489   5.538  0.00  0.00    -0.275 OA
ATOM     21  N   UNL     1       0.637  -2.655   6.019  0.00  0.00    -0.311 N 
ATOM     22  H   UNL     1       0.582  -3.570   5.702  0.00  0.00    +0.149 HD
BRANCH  21  23
ATOM     23  C   UNL     1       0.799  -2.383   7.449  0.00  0.00    +0.139 C 
BRANCH  23  24
ATOM     24  C   UNL     1       0.851  -3.685   8.205  0.00  0.00    -0.030 A 
ATOM     25  C   UNL     1      -0.316  -4.257   8.677  0.00  0.00    +0.006 A 
ATOM     26  C   UNL     1      -0.269  -5.452   9.370  0.00  0.00    +0.020 A 
ATOM     27  C   UNL     1       0.946  -6.075   9.593  0.00  0.00    +0.041 A 
ATOM     28  C   UNL     1       2.113  -5.502   9.121  0.00  0.00    +0.020 A 
ATOM     29  C   UNL     1       2.065  -4.310   8.423  0.00  0.00    +0.006 A 
ATOM     30 CL   UNL     1       1.005  -7.575  10.464  0.00  0.00    -0.084 Cl
ENDBRANCH  23  24
ENDBRANCH  21  23
ENDBRANCH  18  19
ENDBRANCH  17  18
ENDBRANCH   6  17
TORSDOF 6
