REMARK  Name = ZINC09234598
REMARK  12 active torsions:
REMARK  status: ('A' for Active; 'I' for Inactive)
REMARK    1  A    between atoms: C_1  and  C_2
REMARK    2  A    between atoms: C_2  and  N_60
REMARK    3  A    between atoms: C_3  and  C_4
REMARK    4  A    between atoms: C_3  and  N_60
REMARK    5  A    between atoms: C_5  and  C_6
REMARK    6  A    between atoms: C_5  and  N_60
REMARK    7  A    between atoms: C_6  and  C_7
REMARK    8  A    between atoms: C_7  and  N_8
REMARK    9  A    between atoms: C_9  and  C_28
REMARK   10  A    between atoms: C_12  and  C_13
REMARK   11  A    between atoms: C_12  and  O_23
REMARK   12  A    between atoms: C_14  and  C_22
REMARK                            x       y       z     vdW  Elec       q    Type
REMARK                         _______ _______ _______ _____ _____    ______ ____
ROOT
ATOM      1  N   UNL     1      -3.097  -2.007   2.475  0.00  0.00    -0.283 N 
ATOM      2  C   UNL     1      -2.953  -3.232   1.682  0.00  0.00    +0.151 C 
ATOM      3  C   UNL     1      -2.782  -4.365   2.667  0.00  0.00    +0.073 C 
ATOM      4  C   UNL     1      -2.608  -5.713   2.367  0.00  0.00    +0.151 C 
ATOM      5  C   UNL     1      -2.839  -3.791   3.936  0.00  0.00    +0.249 C 
ATOM      6  O   UNL     1      -2.744  -4.389   4.995  0.00  0.00    -0.282 OA
ATOM      7  C   UNL     1      -3.035  -2.327   3.779  0.00  0.00    +0.288 C 
ATOM      8  O   UNL     1      -3.126  -1.535   4.695  0.00  0.00    -0.266 OA
ENDROOT
BRANCH   4   9
ATOM      9  C   UNL     1      -2.467  -6.654   3.406  0.00  0.00    +0.111 A 
ATOM     10  C   UNL     1      -1.377  -6.798   4.259  0.00  0.00    +0.068 A 
ATOM     11  N   UNL     1      -1.635  -7.788   5.095  0.00  0.00    -0.232 NA
ATOM     12  C   UNL     1      -2.835  -8.306   4.828  0.00  0.00    +0.138 A 
ATOM     13  N   UNL     1      -3.384  -7.622   3.780  0.00  0.00    -0.297 N 
ATOM     14  C   UNL     1      -4.613  -7.952   3.304  0.00  0.00    +0.093 A 
ATOM     15  C   UNL     1      -5.319  -8.964   3.859  0.00  0.00    +0.018 A 
ATOM     16  C   UNL     1      -4.785  -9.685   4.935  0.00  0.00    +0.005 A 
ATOM     17  C   UNL     1      -3.552  -9.360   5.418  0.00  0.00    +0.047 A 
ATOM     18  C   UNL     1      -0.120  -5.967   4.236  0.00  0.00    +0.068 C 
ENDBRANCH   4   9
BRANCH   2  19
ATOM     19  C   UNL     1      -4.186  -3.453   0.844  0.00  0.00    +0.015 A 
ATOM     20  C   UNL     1      -4.282  -3.888  -0.436  0.00  0.00    +0.013 A 
ATOM     21  C   UNL     1      -5.534  -4.021  -1.007  0.00  0.00    +0.008 A 
ATOM     22  C   UNL     1      -6.628  -3.701  -0.273  0.00  0.00    +0.045 A 
ATOM     23  S   UNL     1      -5.899  -3.202   1.278  0.00  0.00    -0.099 S 
ENDBRANCH   2  19
BRANCH   4  24
ATOM     24  O   UNL     1      -2.575  -6.120   1.077  0.00  0.00    -0.504 OA
ATOM     25  H   UNL     1      -2.444  -7.111   1.044  0.00  0.00    +0.292 HD
ENDBRANCH   4  24
BRANCH   1  26
ATOM     26  C   UNL     1      -3.284  -0.658   1.936  0.00  0.00    +0.107 C 
BRANCH  26  27
ATOM     27  C   UNL     1      -1.920   0.001   1.726  0.00  0.00    +0.000 C 
BRANCH  27  28
ATOM     28  C   UNL     1      -2.116   1.410   1.163  0.00  0.00    -0.077 C 
BRANCH  28  29
ATOM     29  N   UNL     1      -0.801   2.082   1.098  0.00  0.00    +0.379 N 
ATOM     30  H   UNL     1      -0.290   1.900   1.970  0.00  0.00    -0.082 HD
BRANCH  29  32
ATOM     31  C   UNL     1      -0.721   1.854  -1.362  0.00  0.00    -0.017 C 
ATOM     32  C   UNL     1      -0.017   1.552  -0.037  0.00  0.00    -0.082 C 
ENDBRANCH  29  32
BRANCH  29  33
ATOM     33  C   UNL     1      -0.986   3.541   0.947  0.00  0.00    -0.082 C 
ATOM     34  C   UNL     1       0.370   4.230   1.108  0.00  0.00    -0.017 C 
ENDBRANCH  29  33
ENDBRANCH  28  29
ENDBRANCH  27  28
ENDBRANCH  26  27
ENDBRANCH   1  26
TORSDOF 9
