REMARK  Name = ZINC62547967
REMARK  4 active torsions:
REMARK  status: ('A' for Active; 'I' for Inactive)
REMARK    1  A    between atoms: C_1  and  C_2
REMARK    2  A    between atoms: N_8  and  S_13
REMARK    3  A    between atoms: S_13  and  C_16
REMARK    4  A    between atoms: C_16  and  C_17
REMARK                            x       y       z     vdW  Elec       q    Type
REMARK                         _______ _______ _______ _____ _____    ______ ____
ROOT
ATOM      1  C   UNL     1      -0.033   1.828   0.028  0.00  0.00    +0.046 C 
ATOM      2  C   UNL     1      -0.010   0.336  -0.185  0.00  0.00    -0.027 A 
ATOM      3  C   UNL     1      -0.116  -0.181  -1.460  0.00  0.00    +0.005 A 
ATOM      4  C   UNL     1      -0.097  -1.552  -1.671  0.00  0.00    +0.001 A 
ATOM      5  C   UNL     1       0.029  -2.419  -0.607  0.00  0.00    +0.013 A 
ATOM      6  C   UNL     1       0.137  -1.909   0.689  0.00  0.00    +0.040 A 
ATOM      7  C   UNL     1       0.124  -0.518   0.901  0.00  0.00    +0.064 A 
ATOM      8  N   UNL     1       0.243  -0.011   2.187  0.00  0.00    -0.206 N 
ATOM      9  C   UNL     1      -0.025  -0.876   3.342  0.00  0.00    +0.139 C 
ATOM     10  C   UNL     1       0.729  -2.200   3.156  0.00  0.00    +0.100 C 
ATOM     11  C   UNL     1       0.269  -2.810   1.844  0.00  0.00    +0.167 C 
ATOM     12  O   UNL     1       0.031  -3.995   1.748  0.00  0.00    -0.292 OA
ENDROOT
BRANCH   8  13
ATOM     13  S   UNL     1       0.689   1.567   2.417  0.00  0.00    +0.050 S 
ATOM     14  O   UNL     1       1.309   1.585   3.696  0.00  0.00    -0.155 OA
ATOM     15  O   UNL     1       1.424   1.911   1.251  0.00  0.00    -0.155 OA
BRANCH  13  16
ATOM     16  C   UNL     1      -0.872   2.489   2.467  0.00  0.00    +0.224 C 
BRANCH  16  17
ATOM     17  C   UNL     1      -0.587   3.965   2.362  0.00  0.00    -0.025 A 
ATOM     18  C   UNL     1      -0.372   4.711   3.506  0.00  0.00    +0.007 A 
ATOM     19  C   UNL     1      -0.111   6.064   3.410  0.00  0.00    +0.020 A 
ATOM     20  C   UNL     1      -0.064   6.674   2.169  0.00  0.00    +0.041 A 
ATOM     21  C   UNL     1      -0.280   5.927   1.024  0.00  0.00    +0.020 A 
ATOM     22  C   UNL     1      -0.535   4.572   1.121  0.00  0.00    +0.007 A 
ATOM     23 CL   UNL     1       0.264   8.374   2.048  0.00  0.00    -0.084 Cl
ENDBRANCH  16  17
ENDBRANCH  13  16
ENDBRANCH   8  13
TORSDOF 3
