REMARK  Name = ZINC23699206
REMARK  12 active torsions:
REMARK  status: ('A' for Active; 'I' for Inactive)
REMARK    1  A    between atoms: C_1  and  C_2
REMARK    2  A    between atoms: C_2  and  O_3
REMARK    3  A    between atoms: O_3  and  C_4
REMARK    4  A    between atoms: C_7  and  C_12
REMARK    5  A    between atoms: C_9  and  O_10
REMARK    6  A    between atoms: O_10  and  C_11
REMARK    7  A    between atoms: C_12  and  C_14
REMARK    8  A    between atoms: C_12  and  C_28
REMARK    9  A    between atoms: C_14  and  N_15
REMARK   10  A    between atoms: C_16  and  C_18
REMARK   11  A    between atoms: C_22  and  C_27
REMARK   12  A    between atoms: C_23  and  N_24
REMARK                            x       y       z     vdW  Elec       q    Type
REMARK                         _______ _______ _______ _____ _____    ______ ____
ROOT
ATOM      1  C   UNL     1       1.107  -6.044  -1.844  0.00  0.00    +0.068 C 
ENDROOT
BRANCH   1   2
ATOM      2  C   UNL     1      -0.271  -6.652  -1.901  0.00  0.00    -0.013 A 
ATOM      3  C   UNL     1      -1.212  -6.588  -0.947  0.00  0.00    +0.088 A 
ATOM      4  N   UNL     1      -2.336  -7.255  -1.353  0.00  0.00    -0.360 N 
ATOM      5  H   UNL     1      -3.149  -7.347  -0.833  0.00  0.00    +0.165 HD
ATOM      6  C   UNL     1      -2.139  -7.779  -2.612  0.00  0.00    +0.047 A 
ATOM      7  C   UNL     1      -0.840  -7.418  -3.013  0.00  0.00    +0.003 A 
ATOM      8  C   UNL     1      -0.363  -7.811  -4.265  0.00  0.00    +0.010 A 
ATOM      9  C   UNL     1      -1.163  -8.543  -5.096  0.00  0.00    +0.001 A 
ATOM     10  C   UNL     1      -2.447  -8.898  -4.707  0.00  0.00    +0.002 A 
ATOM     11  C   UNL     1      -2.935  -8.528  -3.472  0.00  0.00    +0.026 A 
ENDBRANCH   1   2
BRANCH   1  15
ATOM     12  C   UNL     1       0.777  -1.811  -1.336  0.00  0.00    +0.162 A 
ATOM     13  C   UNL     1       0.243  -2.669  -0.388  0.00  0.00    +0.050 A 
ATOM     14  C   UNL     1       0.352  -4.037  -0.555  0.00  0.00    +0.008 A 
ATOM     15  C   UNL     1       0.992  -4.552  -1.667  0.00  0.00    -0.035 A 
ATOM     16  C   UNL     1       1.526  -3.702  -2.616  0.00  0.00    +0.053 A 
ATOM     17  C   UNL     1       1.416  -2.330  -2.458  0.00  0.00    +0.162 A 
BRANCH  17  18
ATOM     18  O   UNL     1       1.936  -1.492  -3.394  0.00  0.00    -0.491 OA
ATOM     19  C   UNL     1       2.578  -2.095  -4.520  0.00  0.00    +0.277 C 
ENDBRANCH  17  18
BRANCH  12  20
ATOM     20  O   UNL     1       0.671  -0.465  -1.174  0.00  0.00    -0.489 OA
BRANCH  20  22
ATOM     21  C   UNL     1      -0.019   1.526   0.010  0.00  0.00    +0.048 C 
ATOM     22  C   UNL     1       0.002  -0.004   0.002  0.00  0.00    +0.226 C 
ENDBRANCH  20  22
ENDBRANCH  12  20
ENDBRANCH   1  15
BRANCH   1  23
ATOM     23  C   UNL     1       1.877  -6.640  -0.663  0.00  0.00    +0.117 C 
BRANCH  23  24
ATOM     24  N   UNL     1       2.094  -8.070  -0.893  0.00  0.00    -0.310 N 
ATOM     25  C   UNL     1       2.755  -8.807   0.021  0.00  0.00    +0.246 C 
ATOM     26  O   UNL     1       3.173  -8.285   1.036  0.00  0.00    -0.270 OA
ATOM     27  H   UNL     1       1.760  -8.487  -1.703  0.00  0.00    +0.149 HD
BRANCH  25  28
ATOM     28  C   UNL     1       2.973 -10.251  -0.211  0.00  0.00    +0.067 A 
ATOM     29  C   UNL     1       2.500 -10.853  -1.378  0.00  0.00    +0.015 A 
ATOM     30  C   UNL     1       2.707 -12.200  -1.588  0.00  0.00    +0.001 A 
ATOM     31  C   UNL     1       3.382 -12.955  -0.645  0.00  0.00    +0.005 A 
ATOM     32  C   UNL     1       3.853 -12.365   0.514  0.00  0.00    -0.020 A 
ATOM     33  C   UNL     1       3.658 -11.017   0.734  0.00  0.00    +0.141 A 
ATOM     34  C   UNL     1       4.587 -13.195   1.536  0.00  0.00    +0.046 C 
BRANCH  33  35
ATOM     35  N   UNL     1       4.168 -10.386   1.972  0.00  0.00    +0.057 N 
ATOM     36  O   UNL     1       3.473 -10.342   2.959  0.00  0.00    -0.126 OA
ATOM     37  O   UNL     1       5.281  -9.914   1.995  0.00  0.00    -0.126 OA
ENDBRANCH  33  35
ENDBRANCH  25  28
ENDBRANCH  23  24
ENDBRANCH   1  23
TORSDOF 9
