REMARK  Name = ZINC02793110
REMARK  7 active torsions:
REMARK  status: ('A' for Active; 'I' for Inactive)
REMARK    1  A    between atoms: C_5  and  C_6
REMARK    2  A    between atoms: C_8  and  C_27
REMARK    3  A    between atoms: C_13  and  C_15
REMARK    4  A    between atoms: N_17  and  C_18
REMARK    5  A    between atoms: C_18  and  C_19
REMARK    6  A    between atoms: C_19  and  C_20
REMARK    7  A    between atoms: C_20  and  N_21
REMARK                            x       y       z     vdW  Elec       q    Type
REMARK                         _______ _______ _______ _____ _____    ______ ____
ROOT
ATOM      1  C   UNL     1      -1.772  10.063   2.950  0.00  0.00    +0.082 A 
ATOM      2  C   UNL     1      -1.076  10.089   1.717  0.00  0.00    +0.061 A 
ATOM      3  C   UNL     1      -0.729   8.925   1.128  0.00  0.00    +0.149 A 
ATOM      4  N   UNL     1      -1.059   7.742   1.736  0.00  0.00    -0.209 N 
ATOM      5  C   UNL     1      -1.734   7.749   2.931  0.00  0.00    +0.157 A 
ATOM      6  N   UNL     1      -2.077   8.905   3.514  0.00  0.00    -0.227 NA
ATOM      7  C   UNL     1      -1.933   6.426   3.297  0.00  0.00    +0.083 A 
ATOM      8  C   UNL     1      -1.358   5.623   2.305  0.00  0.00    +0.150 A 
ATOM      9  N   UNL     1      -0.840   6.407   1.374  0.00  0.00    -0.160 NA
ENDROOT
BRANCH   1  14
ATOM     10  C   UNL     1      -2.832  11.516   4.785  0.00  0.00    +0.019 A 
ATOM     11  C   UNL     1      -3.078  12.802   5.205  0.00  0.00    +0.028 A 
ATOM     12  C   UNL     1      -2.655  13.843   4.435  0.00  0.00    +0.079 A 
ATOM     13  S   UNL     1      -1.873  13.004   3.067  0.00  0.00    -0.075 S 
ATOM     14  C   UNL     1      -2.157  11.325   3.605  0.00  0.00    +0.039 A 
ATOM     15 CL   UNL     1      -2.833  15.547   4.712  0.00  0.00    -0.076 Cl
ENDBRANCH   1  14
BRANCH   8  16
ATOM     16  C   UNL     1      -1.338   4.144   2.297  0.00  0.00    +0.264 C 
ATOM     17  O   UNL     1      -1.847   3.525   3.211  0.00  0.00    -0.268 OA
ATOM     18  N   UNL     1      -0.755   3.484   1.277  0.00  0.00    -0.310 N 
ATOM     19  H   UNL     1      -0.294   4.045   0.451  0.00  0.00    +0.149 HD
BRANCH  18  20
ATOM     20  C   UNL     1      -0.735   2.019   1.269  0.00  0.00    +0.106 C 
BRANCH  20  21
ATOM     21  C   UNL     1      -0.019   1.526   0.010  0.00  0.00    +0.042 C 
BRANCH  21  22
ATOM     22  C   UNL     1       0.002  -0.004   0.002  0.00  0.00    +0.145 C 
BRANCH  22  23
ATOM     23  N   UNL     1       0.688  -0.476  -1.203  0.00  0.00    -0.270 N 
ATOM     24  C   UNL     1       1.747  -1.313  -1.238  0.00  0.00    +0.128 A 
ATOM     25  C   UNL     1       2.079  -1.504  -2.537  0.00  0.00    +0.078 A 
ATOM     26  C   UNL     1       1.198  -0.752  -3.321  0.00  0.00    +0.154 A 
ATOM     27  N   UNL     1       0.364  -0.135  -2.523  0.00  0.00    -0.178 NA
ATOM     28 CL   UNL     1       3.372  -2.502  -3.124  0.00  0.00    -0.080 Cl
ENDBRANCH  22  23
ENDBRANCH  21  22
ENDBRANCH  20  21
ENDBRANCH  18  20
ENDBRANCH   8  16
BRANCH   3  29
ATOM     29  C   UNL     1       0.012   8.926  -0.184  0.00  0.00    +0.434 C 
ATOM     30  F   UNL     1      -0.907   8.913  -1.239  0.00  0.00    -0.164 F 
ATOM     31  F   UNL     1       0.805  10.075  -0.270  0.00  0.00    -0.164 F 
ATOM     32  F   UNL     1       0.826   7.790  -0.261  0.00  0.00    -0.164 F 
ENDBRANCH   3  29
TORSDOF 7
