REMARK  Name = ZINC36249684
REMARK  13 active torsions:
REMARK  status: ('A' for Active; 'I' for Inactive)
REMARK    1  A    between atoms: C_2  and  C_3
REMARK    2  A    between atoms: C_3  and  O_4
REMARK    3  A    between atoms: O_4  and  C_5
REMARK    4  A    between atoms: C_5  and  C_6
REMARK    5  A    between atoms: C_6  and  C_8
REMARK    6  A    between atoms: C_6  and  O_35
REMARK    7  A    between atoms: C_8  and  N_9
REMARK    8  A    between atoms: N_9  and  C_10
REMARK    9  A    between atoms: N_9  and  C_16
REMARK   10  A    between atoms: C_10  and  C_11
REMARK   11  A    between atoms: C_16  and  C_17
REMARK   12  A    between atoms: C_18  and  C_28
REMARK   13  A    between atoms: C_21  and  N_22
REMARK                            x       y       z     vdW  Elec       q    Type
REMARK                         _______ _______ _______ _____ _____    ______ ____
ROOT
ATOM      1  C   UNL     1       5.037   6.992  -0.121  0.00  0.00    -0.035 C 
ENDROOT
BRANCH   1   2
ATOM      2  C   UNL     1       6.403   7.614  -0.260  0.00  0.00    +0.025 A 
ATOM      3  C   UNL     1       7.246   8.008   0.800  0.00  0.00    +0.117 A 
ATOM      4  N   UNL     1       8.345   8.504   0.279  0.00  0.00    -0.076 NA
ATOM      5  O   UNL     1       8.230   8.439  -1.131  0.00  0.00    -0.339 OA
ATOM      6  C   UNL     1       7.040   7.888  -1.426  0.00  0.00    +0.222 A 
BRANCH   3   7
ATOM      7  C   UNL     1       6.945   7.884   2.248  0.00  0.00    +0.004 A 
ATOM      8  C   UNL     1       5.682   8.222   2.730  0.00  0.00    +0.013 A 
ATOM      9  C   UNL     1       5.406   8.105   4.077  0.00  0.00    +0.039 A 
ATOM     10  C   UNL     1       6.383   7.653   4.949  0.00  0.00    +0.123 A 
ATOM     11  C   UNL     1       7.640   7.317   4.474  0.00  0.00    +0.039 A 
ATOM     12  C   UNL     1       7.922   7.425   3.128  0.00  0.00    +0.013 A 
ATOM     13  F   UNL     1       6.108   7.541   6.268  0.00  0.00    -0.205 F 
ENDBRANCH   3   7
BRANCH   6  14
ATOM     14  N   UNL     1       6.550   7.646  -2.696  0.00  0.00    -0.295 N 
ATOM     15  C   UNL     1       5.830   8.691  -3.442  0.00  0.00    +0.136 C 
ATOM     16  C   UNL     1       6.453   8.805  -4.838  0.00  0.00    +0.179 C 
ATOM     17  O   UNL     1       6.497   7.509  -5.441  0.00  0.00    -0.377 OA
ATOM     18  C   UNL     1       7.312   6.565  -4.743  0.00  0.00    +0.179 C 
ATOM     19  C   UNL     1       6.738   6.338  -3.345  0.00  0.00    +0.136 C 
ENDBRANCH   6  14
ENDBRANCH   1   2
BRANCH   1  20
ATOM     20  N   UNL     1       5.152   5.531  -0.220  0.00  0.00    +0.389 N 
ATOM     21  H   UNL     1       5.637   5.288  -1.071  0.00  0.00    -0.081 HD
BRANCH  20  22
ATOM     22  C   UNL     1       5.904   5.019   0.934  0.00  0.00    -0.044 C 
BRANCH  22  23
ATOM     23  C   UNL     1       6.132   3.515   0.768  0.00  0.00    +0.124 C 
BRANCH  23  24
ATOM     24  O   UNL     1       6.973   3.283  -0.363  0.00  0.00    -0.391 OA
ATOM     25  H   UNL     1       7.844   3.698  -0.298  0.00  0.00    +0.210 HD
ENDBRANCH  23  24
BRANCH  23  26
ATOM     26  C   UNL     1       6.804   2.960   2.026  0.00  0.00    +0.190 C 
BRANCH  26  27
ATOM     27  O   UNL     1       6.911   1.539   1.920  0.00  0.00    -0.365 OA
BRANCH  27  28
ATOM     28  C   UNL     1       7.528   0.917   3.050  0.00  0.00    +0.248 C 
BRANCH  28  30
ATOM     29  C   UNL     1       7.635  -1.699   2.667  0.00  0.00    +0.006 C 
ATOM     30  C   UNL     1       7.588  -0.538   2.837  0.00  0.00    -0.077 C 
ENDBRANCH  28  30
ENDBRANCH  27  28
ENDBRANCH  26  27
ENDBRANCH  23  26
ENDBRANCH  22  23
ENDBRANCH  20  22
BRANCH  20  31
ATOM     31  C   UNL     1       3.810   4.933  -0.234  0.00  0.00    -0.003 C 
BRANCH  31  32
ATOM     32  C   UNL     1       3.089   5.349  -1.490  0.00  0.00    +0.089 A 
ATOM     33  C   UNL     1       3.064   4.663  -2.647  0.00  0.00    +0.042 A 
ATOM     34  C   UNL     1       2.275   5.412  -3.550  0.00  0.00    +0.041 A 
ATOM     35  C   UNL     1       1.865   6.511  -2.892  0.00  0.00    +0.195 A 
ATOM     36  O   UNL     1       2.356   6.465  -1.642  0.00  0.00    -0.470 OA
ENDBRANCH  31  32
ENDBRANCH  20  31
ENDBRANCH   1  20
TORSDOF 13
