REMARK  Name = ZINC09731010
REMARK  9 active torsions:
REMARK  status: ('A' for Active; 'I' for Inactive)
REMARK    1  A    between atoms: C_1  and  C_2
REMARK    2  A    between atoms: C_2  and  N_3
REMARK    3  A    between atoms: C_5  and  C_27
REMARK    4  A    between atoms: C_12  and  S_14
REMARK    5  A    between atoms: S_14  and  N_17
REMARK    6  A    between atoms: C_19  and  C_26
REMARK    7  A    between atoms: C_22  and  C_25
REMARK    8  A    between atoms: N_29  and  C_30
REMARK    9  A    between atoms: C_30  and  C_31
REMARK                            x       y       z     vdW  Elec       q    Type
REMARK                         _______ _______ _______ _____ _____    ______ ____
ROOT
ATOM      1  N   UNL     1       1.174   5.393   5.366  0.00  0.00    -0.346 N 
ATOM      2  C   UNL     1       1.168   4.989   4.089  0.00  0.00    +0.103 A 
ATOM      3  C   UNL     1       1.145   5.881   3.036  0.00  0.00    +0.100 A 
ATOM      4  C   UNL     1       1.134   7.324   3.326  0.00  0.00    +0.202 A 
ATOM      5  O   UNL     1       1.120   8.151   2.432  0.00  0.00    -0.286 OA
ATOM      6  C   UNL     1       1.135   7.725   4.745  0.00  0.00    +0.048 A 
ATOM      7  C   UNL     1       1.159   6.722   5.729  0.00  0.00    +0.053 A 
ATOM      8  C   UNL     1       1.167   7.088   7.073  0.00  0.00    +0.028 A 
ATOM      9  C   UNL     1       1.152   8.420   7.423  0.00  0.00    +0.030 A 
ATOM     10  C   UNL     1       1.129   9.409   6.450  0.00  0.00    +0.106 A 
ATOM     11  C   UNL     1       1.121   9.070   5.115  0.00  0.00    +0.042 A 
ENDROOT
BRANCH   3  12
ATOM     12  C   UNL     1       1.139   5.397   1.647  0.00  0.00    +0.249 C 
ATOM     13  O   UNL     1       1.120   6.192   0.726  0.00  0.00    -0.270 OA
ATOM     14  N   UNL     1       1.156   4.074   1.393  0.00  0.00    -0.307 N 
ATOM     15  H   UNL     1       1.171   3.440   2.127  0.00  0.00    +0.149 HD
BRANCH  14  16
ATOM     16  C   UNL     1       1.150   3.592   0.010  0.00  0.00    +0.139 C 
BRANCH  16  17
ATOM     17  C   UNL     1       1.171   2.086   0.002  0.00  0.00    -0.030 A 
ATOM     18  C   UNL     1      -0.017   1.378   0.010  0.00  0.00    +0.006 A 
ATOM     19  C   UNL     1       0.002  -0.004   0.002  0.00  0.00    +0.020 A 
ATOM     20  C   UNL     1       1.210  -0.679  -0.013  0.00  0.00    +0.041 A 
ATOM     21  C   UNL     1       2.398   0.030  -0.021  0.00  0.00    +0.020 A 
ATOM     22  C   UNL     1       2.378   1.412  -0.013  0.00  0.00    +0.006 A 
ATOM     23 CL   UNL     1       1.234  -2.415  -0.022  0.00  0.00    -0.084 Cl
ENDBRANCH  16  17
ENDBRANCH  14  16
ENDBRANCH   3  12
BRANCH  10  24
ATOM     24  S   UNL     1       1.110  11.106   6.924  0.00  0.00    +0.061 S 
ATOM     25  O   UNL     1       0.539  11.824   5.839  0.00  0.00    -0.153 OA
ATOM     26  O   UNL     1       0.571  11.155   8.238  0.00  0.00    -0.153 OA
BRANCH  24  27
ATOM     27  N   UNL     1       2.687  11.599   7.040  0.00  0.00    -0.176 NA
ATOM     28  C   UNL     1       3.414  11.488   8.312  0.00  0.00    +0.112 C 
ATOM     29  C   UNL     1       4.717  10.713   8.064  0.00  0.00    +0.002 C 
ATOM     30  C   UNL     1       5.507  11.399   6.947  0.00  0.00    +0.009 C 
ATOM     31  C   UNL     1       4.685  11.385   5.656  0.00  0.00    +0.002 C 
ATOM     32  C   UNL     1       3.383  12.162   5.876  0.00  0.00    +0.112 C 
ATOM     33  C   UNL     1       5.488  12.042   4.532  0.00  0.00    +0.009 C 
ATOM     34  C   UNL     1       4.390   9.277   7.651  0.00  0.00    +0.009 C 
ENDBRANCH  24  27
ENDBRANCH  10  24
BRANCH   1  36
ATOM     35  C   UNL     1      -0.229   4.094   6.891  0.00  0.00    +0.027 C 
ATOM     36  C   UNL     1       1.200   4.377   6.422  0.00  0.00    +0.118 C 
ENDBRANCH   1  36
TORSDOF 6
