REMARK  Name = ZINC37443411
REMARK  11 active torsions:
REMARK  status: ('A' for Active; 'I' for Inactive)
REMARK    1  A    between atoms: C_1  and  C_2
REMARK    2  A    between atoms: C_8  and  N_10
REMARK    3  A    between atoms: C_11  and  C_13
REMARK    4  A    between atoms: C_13  and  C_38
REMARK    5  A    between atoms: N_25  and  C_26
REMARK    6  A    between atoms: C_26  and  C_27
REMARK    7  A    between atoms: C_27  and  C_28
REMARK    8  A    between atoms: C_28  and  N_29
REMARK    9  A    between atoms: N_29  and  C_30
REMARK   10  A    between atoms: N_29  and  C_31
REMARK   11  A    between atoms: C_31  and  C_32
REMARK                            x       y       z     vdW  Elec       q    Type
REMARK                         _______ _______ _______ _____ _____    ______ ____
ROOT
ATOM      1  C   UNL     1       4.209   0.649   2.377  0.00  0.00    +0.128 C 
ATOM      2  C   UNL     1       4.173   2.175   2.464  0.00  0.00    +0.157 C 
ATOM      3  N   UNL     1       3.741   2.720   1.174  0.00  0.00    -0.331 N 
ATOM      4  C   UNL     1       3.070   3.871   0.890  0.00  0.00    +0.088 A 
ATOM      5  C   UNL     1       2.456   5.033   1.417  0.00  0.00    +0.067 A 
ATOM      6  C   UNL     1       1.978   5.739   0.379  0.00  0.00    +0.198 A 
ATOM      7  O   UNL     1       2.254   5.093  -0.767  0.00  0.00    -0.461 OA
ATOM      8  C   UNL     1       2.916   3.948  -0.494  0.00  0.00    +0.153 A 
ATOM      9  C   UNL     1       3.509   2.805  -1.052  0.00  0.00    +0.079 A 
ATOM     10  C   UNL     1       4.003   2.058  -0.023  0.00  0.00    +0.109 A 
ATOM     11  C   UNL     1       4.697   0.764  -0.030  0.00  0.00    +0.264 C 
ATOM     12  O   UNL     1       5.088   0.252  -1.063  0.00  0.00    -0.268 OA
ATOM     13  N   UNL     1       4.878   0.172   1.173  0.00  0.00    -0.281 N 
ATOM     14  C   UNL     1       4.946   0.104   3.602  0.00  0.00    +0.043 C 
ENDROOT
BRANCH   1  16
ATOM     15  N   UNL     1       2.116  -0.004   1.231  0.00  0.00    -0.310 N 
ATOM     16  C   UNL     1       2.795   0.128   2.388  0.00  0.00    +0.238 C 
ATOM     17  O   UNL     1       2.268  -0.174   3.438  0.00  0.00    -0.273 OA
ATOM     18  H   UNL     1       2.538   0.237   0.392  0.00  0.00    +0.149 HD
BRANCH  15  25
ATOM     19  C   UNL     1      -0.019   1.526   0.010  0.00  0.00    +0.009 C 
ATOM     20  C   UNL     1       0.002  -0.004   0.002  0.00  0.00    +0.006 C 
ATOM     21  C   UNL     1       0.718  -0.497  -1.257  0.00  0.00    +0.005 C 
ATOM     22  C   UNL     1       0.739  -2.027  -1.265  0.00  0.00    +0.000 C 
ATOM     23  C   UNL     1       1.479  -2.534  -0.026  0.00  0.00    +0.002 C 
ATOM     24  C   UNL     1       0.763  -2.041   1.233  0.00  0.00    +0.022 C 
ATOM     25  C   UNL     1       0.742  -0.511   1.242  0.00  0.00    +0.076 C 
ENDBRANCH  15  25
ENDBRANCH   1  16
BRANCH  13  26
ATOM     26  C   UNL     1       5.774  -0.984   1.269  0.00  0.00    +0.107 C 
BRANCH  26  27
ATOM     27  C   UNL     1       4.976  -2.268   1.035  0.00  0.00    +0.000 C 
BRANCH  27  28
ATOM     28  C   UNL     1       5.911  -3.475   1.135  0.00  0.00    -0.077 C 
BRANCH  28  29
ATOM     29  N   UNL     1       5.145  -4.708   0.911  0.00  0.00    +0.381 N 
ATOM     30  C   UNL     1       4.636  -4.724  -0.467  0.00  0.00    -0.096 C 
ATOM     31  H   UNL     1       4.370  -4.745   1.556  0.00  0.00    -0.082 HD
BRANCH  29  32
ATOM     32  C   UNL     1       6.016  -5.872   1.124  0.00  0.00    -0.043 C 
BRANCH  32  33
ATOM     33  C   UNL     1       5.203  -7.135   1.015  0.00  0.00    -0.064 A 
ATOM     34  C   UNL     1       4.597  -7.667   2.138  0.00  0.00    +0.002 A 
ATOM     35  C   UNL     1       3.851  -8.826   2.038  0.00  0.00    +0.000 A 
ATOM     36  C   UNL     1       3.709  -9.453   0.814  0.00  0.00    +0.000 A 
ATOM     37  C   UNL     1       4.314  -8.921  -0.309  0.00  0.00    +0.000 A 
ATOM     38  C   UNL     1       5.057  -7.760  -0.210  0.00  0.00    +0.002 A 
ENDBRANCH  32  33
ENDBRANCH  29  32
ENDBRANCH  28  29
ENDBRANCH  27  28
ENDBRANCH  26  27
ENDBRANCH  13  26
TORSDOF 8
