REMARK  Name = ZINC09545852
REMARK  9 active torsions:
REMARK  status: ('A' for Active; 'I' for Inactive)
REMARK    1  A    between atoms: C_1  and  C_2
REMARK    2  A    between atoms: C_2  and  C_3
REMARK    3  A    between atoms: C_3  and  C_4
REMARK    4  A    between atoms: C_4  and  C_5
REMARK    5  A    between atoms: C_5  and  N_6
REMARK    6  A    between atoms: C_15  and  C_17
REMARK    7  A    between atoms: N_19  and  C_20
REMARK    8  A    between atoms: C_24  and  S_26
REMARK    9  A    between atoms: S_26  and  N_29
REMARK                            x       y       z     vdW  Elec       q    Type
REMARK                         _______ _______ _______ _____ _____    ______ ____
ROOT
ATOM      1  C   UNL     1       5.120  -0.847  -4.157  0.00  0.00    +0.269 C 
ATOM      2  O   UNL     1       4.903  -0.141  -5.124  0.00  0.00    -0.268 OA
ATOM      3  N   UNL     1       4.588  -0.531  -2.960  0.00  0.00    -0.280 N 
ATOM      4  H   UNL     1       4.814  -1.054  -2.175  0.00  0.00    +0.155 HD
ENDROOT
BRANCH   1  14
ATOM      5  N   UNL     1       6.923  -3.871  -3.294  0.00  0.00    -0.228 N 
ATOM      6  C   UNL     1       7.526  -4.324  -4.413  0.00  0.00    +0.275 A 
ATOM      7  O   UNL     1       8.201  -5.337  -4.390  0.00  0.00    -0.266 OA
ATOM      8  C   UNL     1       7.349  -3.567  -5.660  0.00  0.00    +0.050 A 
ATOM      9  C   UNL     1       7.927  -3.950  -6.866  0.00  0.00    +0.014 A 
ATOM     10  C   UNL     1       7.712  -3.184  -7.992  0.00  0.00    +0.001 A 
ATOM     11  C   UNL     1       6.927  -2.040  -7.933  0.00  0.00    +0.001 A 
ATOM     12  C   UNL     1       6.345  -1.644  -6.747  0.00  0.00    +0.011 A 
ATOM     13  C   UNL     1       6.545  -2.405  -5.601  0.00  0.00    +0.020 A 
ATOM     14  C   UNL     1       5.965  -2.049  -4.296  0.00  0.00    +0.154 A 
ATOM     15  N   UNL     1       6.203  -2.815  -3.259  0.00  0.00    -0.163 NA
BRANCH   5  16
ATOM     16  C   UNL     1       7.103  -4.630  -2.054  0.00  0.00    +0.147 C 
BRANCH  16  17
ATOM     17  C   UNL     1       8.334  -4.109  -1.311  0.00  0.00    +0.023 C 
BRANCH  17  18
ATOM     18  C   UNL     1       8.521  -4.902  -0.015  0.00  0.00    +0.002 C 
BRANCH  18  20
ATOM     19  C   UNL     1       9.940  -5.173   2.023  0.00  0.00    +0.004 C 
ATOM     20  C   UNL     1       9.752  -4.380   0.728  0.00  0.00    -0.003 C 
ENDBRANCH  18  20
ENDBRANCH  17  18
ENDBRANCH  16  17
ENDBRANCH   5  16
ENDBRANCH   1  14
BRANCH   3  21
ATOM     21  C   UNL     1       3.710   0.552  -2.849  0.00  0.00    +0.036 A 
ATOM     22  C   UNL     1       3.898   1.684  -3.631  0.00  0.00    +0.023 A 
ATOM     23  C   UNL     1       3.030   2.752  -3.518  0.00  0.00    +0.004 A 
ATOM     24  C   UNL     1       1.973   2.695  -2.627  0.00  0.00    +0.029 A 
ATOM     25  C   UNL     1       1.783   1.569  -1.847  0.00  0.00    +0.110 A 
ATOM     26  C   UNL     1       2.651   0.500  -1.952  0.00  0.00    +0.052 A 
BRANCH  25  27
ATOM     27  S   UNL     1       0.436   1.502  -0.713  0.00  0.00    +0.073 S 
ATOM     28  O   UNL     1       0.094   2.847  -0.408  0.00  0.00    -0.150 OA
ATOM     29  O   UNL     1       0.796   0.561   0.289  0.00  0.00    -0.150 OA
BRANCH  27  30
ATOM     30  N   UNL     1      -0.855   0.857  -1.525  0.00  0.00    -0.205 N 
ATOM     31  C   UNL     1      -0.806  -0.436  -1.973  0.00  0.00    +0.088 C 
ATOM     32  C   UNL     1      -0.038  -2.552  -2.395  0.00  0.00    +0.114 C 
ATOM     33  C   UNL     1      -1.241  -2.367  -3.349  0.00  0.00    +0.028 C 
ATOM     34  C   UNL     1      -1.926  -1.128  -2.719  0.00  0.00    +0.072 C 
ATOM     35  H   UNL     1      -1.645   1.397  -1.687  0.00  0.00    +0.175 HD
ATOM     36  N   UNL     1       0.212  -1.221  -1.802  0.00  0.00    -0.375 N 
ATOM     37  H   UNL     1       1.078  -0.953  -1.319  0.00  0.00    +0.161 HD
ENDBRANCH  27  30
ENDBRANCH  25  27
ENDBRANCH   3  21
TORSDOF 8
