REMARK  Name = ZINC42026146
REMARK  5 active torsions:
REMARK  status: ('A' for Active; 'I' for Inactive)
REMARK    1  A    between atoms: C_1  and  C_2
REMARK    2  A    between atoms: C_6  and  C_21
REMARK    3  A    between atoms: C_7  and  N_8
REMARK    4  A    between atoms: C_9  and  C_13
REMARK    5  A    between atoms: C_17  and  N_19
REMARK                            x       y       z     vdW  Elec       q    Type
REMARK                         _______ _______ _______ _____ _____    ______ ____
ROOT
ATOM      1  N   UNL     1      -0.064  -0.234   2.616  0.00  0.00    -0.192 N 
ATOM      2  C   UNL     1       0.081  -0.818   3.840  0.00  0.00    +0.187 A 
ATOM      3  N   UNL     1       0.082   0.152   4.730  0.00  0.00    -0.108 NA
ATOM      4  N   UNL     1      -0.051   1.292   4.153  0.00  0.00    -0.022 NA
ATOM      5  N   UNL     1      -0.140   1.146   2.876  0.00  0.00    -0.039 NA
ENDROOT
BRANCH   1  12
ATOM      6  C   UNL     1       2.330  -1.369   1.576  0.00  0.00    +0.046 C 
ATOM      7  C   UNL     1       1.026  -1.437   0.825  0.00  0.00    -0.025 A 
ATOM      8  C   UNL     1       0.967  -2.068  -0.402  0.00  0.00    +0.005 A 
ATOM      9  C   UNL     1      -0.230  -2.131  -1.092  0.00  0.00    +0.001 A 
ATOM     10  C   UNL     1      -1.371  -1.562  -0.556  0.00  0.00    +0.005 A 
ATOM     11  C   UNL     1      -1.318  -0.930   0.670  0.00  0.00    -0.025 A 
ATOM     12  C   UNL     1      -0.119  -0.870   1.368  0.00  0.00    +0.075 A 
ATOM     13  C   UNL     1      -2.562  -0.310   1.253  0.00  0.00    +0.046 C 
ENDBRANCH   1  12
BRANCH   2  14
ATOM     14  C   UNL     1       0.211  -2.266   4.115  0.00  0.00    +0.023 A 
ATOM     15  C   UNL     1      -0.148  -3.199   3.140  0.00  0.00    +0.013 A 
ATOM     16  C   UNL     1      -0.025  -4.549   3.399  0.00  0.00    +0.018 A 
ATOM     17  C   UNL     1       0.453  -4.983   4.622  0.00  0.00    +0.039 A 
ATOM     18  C   UNL     1       0.814  -4.061   5.598  0.00  0.00    +0.039 A 
ATOM     19  C   UNL     1       0.699  -2.703   5.346  0.00  0.00    +0.035 A 
ATOM     20 BR   UNL     1       0.617  -6.835   4.966  0.00  0.00    -0.048 Br
BRANCH  18  21
ATOM     21  N   UNL     1       1.297  -4.504   6.833  0.00  0.00    -0.357 N 
ATOM     22  H   UNL     1       1.381  -5.454   7.008  0.00  0.00    +0.142 HD
ATOM     23  H   UNL     1       1.548  -3.861   7.514  0.00  0.00    +0.142 HD
ENDBRANCH  18  21
ENDBRANCH   2  14
TORSDOF 3
