REMARK  Name = ZINC05452134
REMARK  6 active torsions:
REMARK  status: ('A' for Active; 'I' for Inactive)
REMARK    1  A    between atoms: C_1  and  C_2
REMARK    2  A    between atoms: C_2  and  C_3
REMARK    3  A    between atoms: C_3  and  C_4
REMARK    4  A    between atoms: N_6  and  C_7
REMARK    5  A    between atoms: C_8  and  C_19
REMARK    6  A    between atoms: C_15  and  C_18
REMARK                            x       y       z     vdW  Elec       q    Type
REMARK                         _______ _______ _______ _____ _____    ______ ____
ROOT
ATOM      1  C   UNL     1       1.016   5.943   0.025  0.00  0.00    +0.204 A 
ATOM      2  C   UNL     1       2.276   5.374   0.010  0.00  0.00    +0.087 A 
ATOM      3  C   UNL     1       2.396   3.959   0.001  0.00  0.00    +0.202 A 
ATOM      4  O   UNL     1       3.488   3.415  -0.012  0.00  0.00    -0.286 OA
ATOM      5  C   UNL     1       1.147   3.172   0.008  0.00  0.00    +0.065 A 
ATOM      6  C   UNL     1       1.173   1.778   0.000  0.00  0.00    +0.015 A 
ATOM      7  C   UNL     1      -0.013   1.076   0.008  0.00  0.00    +0.001 A 
ATOM      8  C   UNL     1      -1.225   1.750   0.017  0.00  0.00    +0.007 A 
ATOM      9  C   UNL     1      -1.262   3.128   0.030  0.00  0.00    -0.007 A 
ATOM     10  C   UNL     1      -0.078   3.856   0.024  0.00  0.00    +0.144 A 
ATOM     11  O   UNL     1      -0.100   5.205   0.031  0.00  0.00    -0.440 OA
ATOM     12  C   UNL     1      -2.588   3.846   0.047  0.00  0.00    +0.047 C 
ENDROOT
BRANCH   2  13
ATOM     13  C   UNL     1       3.486   6.230   0.003  0.00  0.00    -0.009 A 
ATOM     14  C   UNL     1       3.771   7.048   1.096  0.00  0.00    +0.010 A 
ATOM     15  C   UNL     1       4.901   7.839   1.087  0.00  0.00    +0.020 A 
ATOM     16  C   UNL     1       5.747   7.829  -0.010  0.00  0.00    +0.041 A 
ATOM     17  C   UNL     1       5.466   7.023  -1.100  0.00  0.00    +0.020 A 
ATOM     18  C   UNL     1       4.341   6.224  -1.098  0.00  0.00    +0.010 A 
ATOM     19 CL   UNL     1       7.164   8.832  -0.018  0.00  0.00    -0.084 Cl
ENDBRANCH   2  13
BRANCH   1  22
ATOM     20  C   UNL     1      -0.311   7.893   0.049  0.00  0.00    +0.219 C 
ATOM     21  O   UNL     1      -1.309   7.205   0.054  0.00  0.00    -0.275 OA
ATOM     22  N   UNL     1       0.906   7.314   0.034  0.00  0.00    -0.256 N 
ATOM     23  H   UNL     1       1.705   7.865   0.030  0.00  0.00    +0.158 HD
BRANCH  20  24
ATOM     24  C   UNL     1      -0.431   9.395   0.058  0.00  0.00    +0.096 C 
BRANCH  24  26
ATOM     25  C   UNL     1      -2.032  11.313   0.084  0.00  0.00    +0.004 C 
ATOM     26  C   UNL     1      -1.910   9.788   0.074  0.00  0.00    +0.006 C 
ENDBRANCH  24  26
ENDBRANCH  20  24
ENDBRANCH   1  22
TORSDOF 4
