REMARK  Name = ZINC35070313
REMARK  14 active torsions:
REMARK  status: ('A' for Active; 'I' for Inactive)
REMARK    1  A    between atoms: C_1  and  C_2
REMARK    2  A    between atoms: C_5  and  N_9
REMARK    3  A    between atoms: C_6  and  C_8
REMARK    4  A    between atoms: C_19  and  C_20
REMARK    5  A    between atoms: C_20  and  C_22
REMARK    6  A    between atoms: C_20  and  N_23
REMARK    7  A    between atoms: N_23  and  C_24
REMARK    8  A    between atoms: C_24  and  C_25
REMARK    9  A    between atoms: C_25  and  N_26
REMARK   10  A    between atoms: N_26  and  C_27
REMARK   11  A    between atoms: N_26  and  C_28
REMARK   12  A    between atoms: N_31  and  C_32
REMARK   13  A    between atoms: C_35  and  S_38
REMARK   14  A    between atoms: S_38  and  C_39
REMARK                            x       y       z     vdW  Elec       q    Type
REMARK                         _______ _______ _______ _____ _____    ______ ____
ROOT
ATOM      1  C   UNL     1       2.710  -4.171   0.091  0.00  0.00    +0.141 C 
ATOM      2  C   UNL     1       2.860  -3.408   1.408  0.00  0.00    +0.036 C 
ENDROOT
BRANCH   1  13
ATOM      3  N   UNL     1       0.911  -5.336  -1.123  0.00  0.00    -0.263 N 
ATOM      4  C   UNL     1      -0.276  -5.984  -1.194  0.00  0.00    +0.266 A 
ATOM      5  O   UNL     1      -0.705  -6.403  -2.253  0.00  0.00    -0.267 OA
ATOM      6  C   UNL     1      -1.025  -6.162   0.058  0.00  0.00    +0.065 A 
ATOM      7  C   UNL     1      -2.256  -6.815   0.093  0.00  0.00    +0.015 A 
ATOM      8  C   UNL     1      -2.915  -6.955   1.295  0.00  0.00    +0.001 A 
ATOM      9  C   UNL     1      -2.365  -6.451   2.466  0.00  0.00    +0.002 A 
ATOM     10  C   UNL     1      -1.151  -5.803   2.453  0.00  0.00    +0.028 A 
ATOM     11  C   UNL     1      -0.462  -5.649   1.248  0.00  0.00    +0.078 A 
ATOM     12  N   UNL     1       0.737  -5.017   1.189  0.00  0.00    -0.231 NA
ATOM     13  C   UNL     1       1.380  -4.879   0.069  0.00  0.00    +0.138 A 
BRANCH   3  18
ATOM     14  C   UNL     1       3.964  -4.540  -5.839  0.00  0.00    +0.044 C 
ATOM     15  C   UNL     1       3.154  -4.752  -4.587  0.00  0.00    -0.050 A 
ATOM     16  C   UNL     1       3.255  -5.943  -3.892  0.00  0.00    +0.005 A 
ATOM     17  C   UNL     1       2.514  -6.140  -2.744  0.00  0.00    +0.027 A 
ATOM     18  C   UNL     1       1.665  -5.139  -2.287  0.00  0.00    +0.054 A 
ATOM     19  C   UNL     1       1.565  -3.945  -2.987  0.00  0.00    -0.026 A 
ATOM     20  C   UNL     1       2.314  -3.752  -4.132  0.00  0.00    +0.008 A 
ATOM     21  C   UNL     1       0.645  -2.857  -2.496  0.00  0.00    +0.046 C 
ENDBRANCH   3  18
ENDBRANCH   1  13
BRANCH   1  22
ATOM     22  N   UNL     1       3.789  -5.154  -0.030  0.00  0.00    -0.277 N 
ATOM     23  C   UNL     1       4.714  -5.024  -1.001  0.00  0.00    +0.307 C 
ATOM     24  O   UNL     1       4.653  -4.090  -1.778  0.00  0.00    -0.252 OA
ATOM     25  N   UNL     1       5.707  -5.928  -1.112  0.00  0.00    -0.269 N 
ATOM     26  H   UNL     1       5.712  -6.715  -0.544  0.00  0.00    +0.156 HD
BRANCH  25  27
ATOM     27  C   UNL     1       6.731  -5.734  -2.049  0.00  0.00    +0.035 A 
ATOM     28  C   UNL     1       7.160  -4.448  -2.351  0.00  0.00    +0.024 A 
ATOM     29  C   UNL     1       8.170  -4.255  -3.273  0.00  0.00    +0.016 A 
ATOM     30  C   UNL     1       8.756  -5.348  -3.899  0.00  0.00    +0.008 A 
ATOM     31  C   UNL     1       8.327  -6.635  -3.596  0.00  0.00    +0.016 A 
ATOM     32  C   UNL     1       7.321  -6.826  -2.670  0.00  0.00    +0.024 A 
BRANCH  30  33
ATOM     33  S   UNL     1      10.044  -5.103  -5.076  0.00  0.00    -0.129 S 
ATOM     34  C   UNL     1      10.480  -6.782  -5.606  0.00  0.00    +0.090 C 
ENDBRANCH  30  33
ENDBRANCH  25  27
BRANCH  22  35
ATOM     35  C   UNL     1       3.862  -6.279   0.905  0.00  0.00    +0.091 C 
BRANCH  35  36
ATOM     36  C   UNL     1       3.189  -7.504   0.283  0.00  0.00    -0.060 C 
BRANCH  36  37
ATOM     37  N   UNL     1       3.168  -8.601   1.260  0.00  0.00    +0.377 N 
ATOM     38  C   UNL     1       2.418  -9.736   0.707  0.00  0.00    -0.097 C 
ATOM     39  C   UNL     1       4.545  -9.021   1.554  0.00  0.00    -0.097 C 
ATOM     40  H   UNL     1       2.724  -8.286   2.110  0.00  0.00    -0.083 HD
ENDBRANCH  36  37
ENDBRANCH  35  36
ENDBRANCH  22  35
ENDBRANCH   1  22
TORSDOF 8
