REMARK  Name = ZINC35807377
REMARK  3 active torsions:
REMARK  status: ('A' for Active; 'I' for Inactive)
REMARK    1  A    between atoms: C_1  and  C_2
REMARK    2  A    between atoms: C_22  and  C_30
REMARK    3  A    between atoms: C_30  and  C_32
REMARK                            x       y       z     vdW  Elec       q    Type
REMARK                         _______ _______ _______ _____ _____    ______ ____
ROOT
ATOM      1  C   UNL     1       0.072   1.390  -0.100  0.00  0.00    +0.044 C 
ATOM      2  C   UNL     1       0.046  -0.117  -0.066  0.00  0.00    -0.050 A 
ATOM      3  C   UNL     1       0.019  -0.837  -1.246  0.00  0.00    +0.005 A 
ATOM      4  C   UNL     1      -0.006  -2.215  -1.222  0.00  0.00    +0.024 A 
ATOM      5  C   UNL     1      -0.004  -2.894  -0.005  0.00  0.00    +0.036 A 
ATOM      6  C   UNL     1       0.025  -2.160   1.175  0.00  0.00    -0.026 A 
ATOM      7  C   UNL     1       0.055  -0.784   1.147  0.00  0.00    +0.008 A 
ATOM      8  C   UNL     1       0.019  -3.168   2.294  0.00  0.00    +0.060 C 
ATOM      9  C   UNL     1      -0.014  -4.507   1.600  0.00  0.00    +0.212 C 
ATOM     10  O   UNL     1      -0.028  -5.597   2.132  0.00  0.00    -0.277 OA
ATOM     11  N   UNL     1      -0.026  -4.261   0.277  0.00  0.00    -0.286 N 
ATOM     12  C   UNL     1       1.258  -3.031   3.170  0.00  0.00    +0.085 C 
ATOM     13  C   UNL     1       1.902  -4.360   3.450  0.00  0.00    -0.011 A 
ATOM     14  C   UNL     1       1.455  -5.526   4.030  0.00  0.00    +0.006 A 
ATOM     15  C   UNL     1       2.307  -6.609   4.152  0.00  0.00    +0.000 A 
ATOM     16  C   UNL     1       3.607  -6.519   3.689  0.00  0.00    +0.002 A 
ATOM     17  C   UNL     1       4.058  -5.353   3.106  0.00  0.00    +0.023 A 
ATOM     18  C   UNL     1       3.207  -4.257   2.979  0.00  0.00    +0.038 A 
ATOM     19  N   UNL     1       3.425  -2.991   2.433  0.00  0.00    -0.285 N 
ATOM     20  C   UNL     1       2.330  -2.210   2.506  0.00  0.00    +0.228 C 
ATOM     21  O   UNL     1       2.227  -1.067   2.113  0.00  0.00    -0.275 OA
ATOM     22  C   UNL     1       0.768  -2.365   4.465  0.00  0.00    +0.066 C 
ATOM     23  C   UNL     1      -0.715  -2.767   4.537  0.00  0.00    -0.055 C 
ATOM     24  N   UNL     1      -1.168  -2.992   3.146  0.00  0.00    +0.395 N 
ATOM     25  C   UNL     1      -1.857  -1.743   2.728  0.00  0.00    -0.076 C 
ATOM     26  C   UNL     1      -2.564  -1.257   4.015  0.00  0.00    -0.020 C 
ATOM     27  C   UNL     1      -1.548  -1.629   5.141  0.00  0.00    -0.016 C 
ATOM     28  H   UNL     1      -0.047  -4.954  -0.402  0.00  0.00    +0.155 HD
ATOM     29  H   UNL     1       4.268  -2.706   2.046  0.00  0.00    +0.155 HD
ATOM     30  H   UNL     1      -1.777  -3.795   3.088  0.00  0.00    -0.079 HD
ENDROOT
BRANCH  22  31
ATOM     31  C   UNL     1       1.525  -2.897   5.654  0.00  0.00    +0.166 C 
ATOM     32  O   UNL     1       1.084  -3.835   6.283  0.00  0.00    -0.292 OA
BRANCH  31  33
ATOM     33  C   UNL     1       2.800  -2.279   6.052  0.00  0.00    +0.018 A 
ATOM     34  C   UNL     1       3.251  -1.122   5.408  0.00  0.00    +0.011 A 
ATOM     35  C   UNL     1       4.447  -0.549   5.787  0.00  0.00    +0.001 A 
ATOM     36  C   UNL     1       5.199  -1.115   6.801  0.00  0.00    +0.000 A 
ATOM     37  C   UNL     1       4.760  -2.260   7.443  0.00  0.00    +0.001 A 
ATOM     38  C   UNL     1       3.564  -2.842   7.079  0.00  0.00    +0.011 A 
ENDBRANCH  31  33
ENDBRANCH  22  31
TORSDOF 2
