REMARK  Name = ZINC39689511
REMARK  8 active torsions:
REMARK  status: ('A' for Active; 'I' for Inactive)
REMARK    1  A    between atoms: C_1  and  C_2
REMARK    2  A    between atoms: C_6  and  C_8
REMARK    3  A    between atoms: C_8  and  C_9
REMARK    4  A    between atoms: C_9  and  N_10
REMARK    5  A    between atoms: C_11  and  C_13
REMARK    6  A    between atoms: C_24  and  C_26
REMARK    7  A    between atoms: C_33  and  C_37
REMARK    8  A    between atoms: N_35  and  C_36
REMARK                            x       y       z     vdW  Elec       q    Type
REMARK                         _______ _______ _______ _____ _____    ______ ____
ROOT
ATOM      1  C   UNL     1       2.702  -4.908   6.062  0.00  0.00    +0.100 C 
ATOM      2  C   UNL     1       1.955  -6.253   5.916  0.00  0.00    +0.121 C 
ATOM      3  N   UNL     1       3.017  -7.239   5.606  0.00  0.00    -0.296 N 
ATOM      4  C   UNL     1       4.156  -6.837   6.465  0.00  0.00    +0.115 C 
ATOM      5  C   UNL     1       4.145  -5.296   6.426  0.00  0.00    -0.004 C 
ATOM      6  C   UNL     1       5.113  -4.789   5.360  0.00  0.00    -0.010 C 
ATOM      7  C   UNL     1       6.546  -5.137   5.772  0.00  0.00    -0.082 C 
ATOM      8  N   UNL     1       6.848  -4.519   7.069  0.00  0.00    +0.379 N 
ATOM      9  C   UNL     1       5.973  -5.080   8.107  0.00  0.00    -0.082 C 
ATOM     10  C   UNL     1       4.516  -4.730   7.793  0.00  0.00    -0.010 C 
ATOM     11  C   UNL     1       2.959  -8.270   4.739  0.00  0.00    +0.250 C 
ATOM     12  O   UNL     1       1.982  -8.414   4.030  0.00  0.00    -0.270 OA
ATOM     13  H   UNL     1       7.811  -4.699   7.310  0.00  0.00    -0.086 HD
ATOM     14  H   UNL     1       6.699  -3.523   7.008  0.00  0.00    -0.086 HD
ENDROOT
BRANCH  11  15
ATOM     15  C   UNL     1       4.083  -9.222   4.650  0.00  0.00    +0.074 A 
ATOM     16  C   UNL     1       4.811  -9.571   5.796  0.00  0.00    +0.127 A 
ATOM     17  N   UNL     1       5.813 -10.415   5.738  0.00  0.00    -0.235 NA
ATOM     18  C   UNL     1       6.189 -10.983   4.596  0.00  0.00    +0.160 A 
ATOM     19  C   UNL     1       5.508 -10.685   3.398  0.00  0.00    +0.060 A 
ATOM     20  C   UNL     1       4.431  -9.793   3.423  0.00  0.00    +0.067 A 
ATOM     21 CL   UNL     1       3.559  -9.402   1.974  0.00  0.00    -0.082 Cl
ATOM     22  C   UNL     1       6.159 -11.461   2.348  0.00  0.00    +0.071 A 
ATOM     23  N   UNL     1       7.124 -12.139   2.900  0.00  0.00    -0.174 NA
ATOM     24  N   UNL     1       7.174 -11.873   4.272  0.00  0.00    -0.249 N 
ATOM     25  C   UNL     1       8.131 -12.456   5.215  0.00  0.00    +0.174 C 
ATOM     26  C   UNL     1       5.784 -11.476   0.888  0.00  0.00    +0.068 C 
ENDBRANCH  11  15
BRANCH   1  28
ATOM     27  N   UNL     1       2.685  -2.801   4.766  0.00  0.00    -0.315 N 
ATOM     28  C   UNL     1       2.675  -4.149   4.760  0.00  0.00    +0.218 C 
ATOM     29  O   UNL     1       2.644  -4.750   3.708  0.00  0.00    -0.275 OA
ATOM     30  H   UNL     1       2.710  -2.320   5.608  0.00  0.00    +0.149 HD
BRANCH  27  31
ATOM     31  C   UNL     1       2.659  -2.063   3.501  0.00  0.00    +0.109 C 
BRANCH  31  32
ATOM     32  C   UNL     1       2.677  -0.560   3.787  0.00  0.00    +0.054 C 
BRANCH  32  38
ATOM     33  C   UNL     1       5.101   1.608  -0.017  0.00  0.00    +0.044 C 
ATOM     34  C   UNL     1       3.810   1.238   0.666  0.00  0.00    -0.050 A 
ATOM     35  C   UNL     1       2.600   1.594   0.099  0.00  0.00    +0.003 A 
ATOM     36  C   UNL     1       1.416   1.254   0.726  0.00  0.00    +0.001 A 
ATOM     37  C   UNL     1       1.441   0.557   1.919  0.00  0.00    +0.004 A 
ATOM     38  C   UNL     1       2.650   0.200   2.486  0.00  0.00    -0.046 A 
ATOM     39  C   UNL     1       3.834   0.536   1.857  0.00  0.00    +0.007 A 
ENDBRANCH  32  38
ENDBRANCH  31  32
ENDBRANCH  27  31
ENDBRANCH   1  28
TORSDOF 5
