REMARK  Name = ZINC39676550
REMARK  12 active torsions:
REMARK  status: ('A' for Active; 'I' for Inactive)
REMARK    1  A    between atoms: C_1  and  C_2
REMARK    2  A    between atoms: C_2  and  C_3
REMARK    3  A    between atoms: C_3  and  C_4
REMARK    4  A    between atoms: C_4  and  C_5
REMARK    5  A    between atoms: C_9  and  C_18
REMARK    6  A    between atoms: N_20  and  C_21
REMARK    7  A    between atoms: C_21  and  C_22
REMARK    8  A    between atoms: C_21  and  C_30
REMARK    9  A    between atoms: C_25  and  O_28
REMARK   10  A    between atoms: O_28  and  C_29
REMARK   11  A    between atoms: C_33  and  O_36
REMARK   12  A    between atoms: O_36  and  C_37
REMARK                            x       y       z     vdW  Elec       q    Type
REMARK                         _______ _______ _______ _____ _____    ______ ____
ROOT
ATOM      1  C   UNL     1      -2.347  -7.460   0.418  0.00  0.00    +0.219 C 
ATOM      2  O   UNL     1      -2.335  -7.663  -0.777  0.00  0.00    -0.275 OA
ATOM      3  N   UNL     1      -2.098  -8.471   1.275  0.00  0.00    -0.304 N 
ATOM      4  H   UNL     1      -2.108  -8.309   2.232  0.00  0.00    +0.150 HD
ENDROOT
BRANCH   1   9
ATOM      5  C   UNL     1      -2.863  -2.590   0.006  0.00  0.00    +0.216 C 
ATOM      6  O   UNL     1      -3.800  -1.820   0.032  0.00  0.00    -0.276 OA
ATOM      7  N   UNL     1      -3.083  -3.919   0.010  0.00  0.00    -0.300 N 
ATOM      8  C   UNL     1      -2.076  -5.007  -0.011  0.00  0.00    +0.121 C 
ATOM      9  C   UNL     1      -2.641  -6.080   0.946  0.00  0.00    +0.100 C 
ATOM     10  C   UNL     1      -4.157  -5.825   0.971  0.00  0.00    -0.004 C 
ATOM     11  C   UNL     1      -4.387  -4.624   0.042  0.00  0.00    +0.115 C 
ATOM     12  C   UNL     1      -4.612  -5.483   2.387  0.00  0.00    -0.010 C 
ATOM     13  C   UNL     1      -6.131  -5.290   2.397  0.00  0.00    -0.082 C 
ATOM     14  N   UNL     1      -6.786  -6.520   1.934  0.00  0.00    +0.379 N 
ATOM     15  C   UNL     1      -6.415  -6.791   0.540  0.00  0.00    -0.082 C 
ATOM     16  C   UNL     1      -4.907  -7.047   0.452  0.00  0.00    -0.010 C 
ATOM     17  H   UNL     1      -6.495  -7.292   2.515  0.00  0.00    -0.086 HD
ATOM     18  H   UNL     1      -7.787  -6.412   2.000  0.00  0.00    -0.086 HD
BRANCH   5  19
ATOM     19  C   UNL     1      -1.452  -2.059  -0.029  0.00  0.00    +0.096 C 
BRANCH  19  20
ATOM     20  C   UNL     1      -1.482  -0.530  -0.025  0.00  0.00    +0.009 C 
BRANCH  20  22
ATOM     21  C   UNL     1      -0.081   1.538  -0.057  0.00  0.00    +0.004 C 
ATOM     22  C   UNL     1      -0.051   0.009  -0.060  0.00  0.00    -0.003 C 
ENDBRANCH  20  22
ENDBRANCH  19  20
ENDBRANCH   5  19
ENDBRANCH   1   9
BRANCH   3  23
ATOM     23  C   UNL     1      -1.813  -9.813   0.762  0.00  0.00    +0.134 C 
BRANCH  23  24
ATOM     24  C   UNL     1      -0.999 -10.576   1.776  0.00  0.00    -0.023 A 
ATOM     25  C   UNL     1      -1.293 -10.463   3.123  0.00  0.00    +0.009 A 
ATOM     26  C   UNL     1      -0.549 -11.161   4.054  0.00  0.00    +0.046 A 
ATOM     27  C   UNL     1       0.494 -11.975   3.637  0.00  0.00    +0.120 A 
ATOM     28  C   UNL     1       0.787 -12.087   2.286  0.00  0.00    +0.046 A 
ATOM     29  C   UNL     1       0.036 -11.391   1.358  0.00  0.00    +0.009 A 
BRANCH  27  30
ATOM     30  O   UNL     1       1.228 -12.662   4.551  0.00  0.00    -0.495 OA
ATOM     31  C   UNL     1       2.286 -13.482   4.050  0.00  0.00    +0.277 C 
ENDBRANCH  27  30
ENDBRANCH  23  24
BRANCH  23  32
ATOM     32  C   UNL     1      -3.108 -10.540   0.508  0.00  0.00    -0.023 A 
ATOM     33  C   UNL     1      -4.160 -10.405   1.395  0.00  0.00    +0.009 A 
ATOM     34  C   UNL     1      -5.349 -11.071   1.165  0.00  0.00    +0.046 A 
ATOM     35  C   UNL     1      -5.486 -11.874   0.042  0.00  0.00    +0.120 A 
ATOM     36  C   UNL     1      -4.429 -12.007  -0.847  0.00  0.00    +0.046 A 
ATOM     37  C   UNL     1      -3.245 -11.335  -0.614  0.00  0.00    +0.009 A 
BRANCH  35  38
ATOM     38  O   UNL     1      -6.654 -12.530  -0.186  0.00  0.00    -0.495 OA
ATOM     39  C   UNL     1      -6.724 -13.339  -1.362  0.00  0.00    +0.277 C 
ENDBRANCH  35  38
ENDBRANCH  23  32
ENDBRANCH   3  23
TORSDOF 9
