REMARK  Name = ZINC38706121
REMARK  17 active torsions:
REMARK  status: ('A' for Active; 'I' for Inactive)
REMARK    1  A    between atoms: C_1  and  C_2
REMARK    2  A    between atoms: C_2  and  C_3
REMARK    3  A    between atoms: C_3  and  C_4
REMARK    4  A    between atoms: C_4  and  C_5
REMARK    5  A    between atoms: C_5  and  N_6
REMARK    6  A    between atoms: C_7  and  C_26
REMARK    7  A    between atoms: C_10  and  C_17
REMARK    8  A    between atoms: C_18  and  C_25
REMARK    9  A    between atoms: C_20  and  C_24
REMARK   10  A    between atoms: C_22  and  O_23
REMARK   11  A    between atoms: C_29  and  O_34
REMARK   12  A    between atoms: C_30  and  O_32
REMARK   13  A    between atoms: O_32  and  C_33
REMARK   14  A    between atoms: O_34  and  C_35
REMARK   15  A    between atoms: C_35  and  C_36
REMARK   16  A    between atoms: C_36  and  C_37
REMARK   17  A    between atoms: C_36  and  C_38
REMARK                            x       y       z     vdW  Elec       q    Type
REMARK                         _______ _______ _______ _____ _____    ______ ____
ROOT
ATOM      1  N   UNL     1      -2.860  -4.123  -0.057  0.00  0.00    -0.285 N 
ATOM      2  C   UNL     1      -2.777  -5.016  -1.221  0.00  0.00    +0.141 C 
ATOM      3  C   UNL     1      -2.783  -6.416  -0.672  0.00  0.00    +0.035 A 
ATOM      4  C   UNL     1      -2.742  -7.789  -0.941  0.00  0.00    +0.102 A 
ATOM      5  N   UNL     1      -2.796  -8.419   0.216  0.00  0.00    -0.173 NA
ATOM      6  N   UNL     1      -2.866  -7.581   1.188  0.00  0.00    -0.272 N 
ATOM      7  H   UNL     1      -2.915  -7.820   2.127  0.00  0.00    +0.189 HD
ATOM      8  C   UNL     1      -2.862  -6.304   0.703  0.00  0.00    +0.126 A 
ATOM      9  C   UNL     1      -2.904  -4.880   1.054  0.00  0.00    +0.265 C 
ATOM     10  O   UNL     1      -2.970  -4.446   2.188  0.00  0.00    -0.268 OA
ENDROOT
BRANCH   4  11
ATOM     11  C   UNL     1      -2.656  -8.419  -2.282  0.00  0.00    +0.047 A 
ATOM     12  C   UNL     1      -3.534  -9.441  -2.632  0.00  0.00    -0.037 A 
ATOM     13  C   UNL     1      -3.450 -10.023  -3.881  0.00  0.00    +0.007 A 
ATOM     14  C   UNL     1      -2.495  -9.596  -4.786  0.00  0.00    -0.047 A 
ATOM     15  C   UNL     1      -1.618  -8.583  -4.448  0.00  0.00    +0.049 A 
ATOM     16  C   UNL     1      -1.696  -7.986  -3.200  0.00  0.00    +0.127 A 
ATOM     17  C   UNL     1      -2.410 -10.239  -6.146  0.00  0.00    +0.044 C 
ATOM     18  C   UNL     1      -4.576  -9.910  -1.649  0.00  0.00    +0.044 C 
BRANCH  16  19
ATOM     19  O   UNL     1      -0.838  -6.986  -2.869  0.00  0.00    -0.506 OA
ATOM     20  H   UNL     1       0.013  -7.294  -2.527  0.00  0.00    +0.292 HD
ENDBRANCH  16  19
ENDBRANCH   4  11
BRANCH   2  21
ATOM     21  C   UNL     1      -3.968  -4.806  -2.121  0.00  0.00    -0.019 A 
ATOM     22  C   UNL     1      -5.236  -4.720  -1.578  0.00  0.00    +0.009 A 
ATOM     23  C   UNL     1      -6.331  -4.527  -2.400  0.00  0.00    +0.050 A 
ATOM     24  C   UNL     1      -6.158  -4.419  -3.771  0.00  0.00    +0.162 A 
ATOM     25  C   UNL     1      -4.881  -4.505  -4.317  0.00  0.00    +0.162 A 
ATOM     26  C   UNL     1      -3.788  -4.694  -3.487  0.00  0.00    +0.055 A 
BRANCH  25  27
ATOM     27  O   UNL     1      -4.707  -4.400  -5.661  0.00  0.00    -0.491 OA
ATOM     28  C   UNL     1      -3.368  -4.498  -6.151  0.00  0.00    +0.277 C 
ENDBRANCH  25  27
BRANCH  24  29
ATOM     29  O   UNL     1      -7.234  -4.230  -4.580  0.00  0.00    -0.488 OA
BRANCH  29  30
ATOM     30  C   UNL     1      -8.515  -4.152  -3.950  0.00  0.00    +0.232 C 
BRANCH  30  31
ATOM     31  C   UNL     1      -9.594  -3.939  -5.013  0.00  0.00    +0.020 C 
ATOM     32  C   UNL     1     -10.974  -3.980  -4.354  0.00  0.00    +0.010 C 
ATOM     33  C   UNL     1      -9.389  -2.579  -5.684  0.00  0.00    +0.010 C 
ENDBRANCH  30  31
ENDBRANCH  29  30
ENDBRANCH  24  29
ENDBRANCH   2  21
BRANCH   1  34
ATOM     34  C   UNL     1      -2.884  -2.659  -0.099  0.00  0.00    +0.109 C 
BRANCH  34  35
ATOM     35  C   UNL     1      -1.452  -2.123  -0.039  0.00  0.00    +0.019 C 
BRANCH  35  36
ATOM     36  C   UNL     1      -1.477  -0.594  -0.083  0.00  0.00    +0.001 C 
BRANCH  36  38
ATOM     37  C   UNL     1      -0.070   1.470  -0.067  0.00  0.00    +0.004 C 
ATOM     38  C   UNL     1      -0.045  -0.059  -0.023  0.00  0.00    -0.003 C 
ENDBRANCH  36  38
ENDBRANCH  35  36
ENDBRANCH  34  35
ENDBRANCH   1  34
TORSDOF 11
