REMARK  Name = ZINC04547805
REMARK  9 active torsions:
REMARK  status: ('A' for Active; 'I' for Inactive)
REMARK    1  A    between atoms: C_1  and  C_2
REMARK    2  A    between atoms: C_6  and  C_14
REMARK    3  A    between atoms: C_12  and  C_13
REMARK    4  A    between atoms: C_14  and  O_15
REMARK    5  A    between atoms: O_15  and  C_16
REMARK    6  A    between atoms: C_16  and  C_18
REMARK    7  A    between atoms: C_18  and  C_19
REMARK    8  A    between atoms: C_18  and  C_25
REMARK    9  A    between atoms: C_18  and  O_31
REMARK                            x       y       z     vdW  Elec       q    Type
REMARK                         _______ _______ _______ _____ _____    ______ ____
ROOT
ATOM      1  C   UNL     1       0.022   1.459  -0.444  0.00  0.00    +0.349 C 
ATOM      2  O   UNL     1       0.171   0.309  -0.782  0.00  0.00    -0.247 OA
ENDROOT
BRANCH   1   3
ATOM      3  O   UNL     1       1.059   2.310  -0.484  0.00  0.00    -0.457 OA
BRANCH   3   4
ATOM      4  C   UNL     1       2.329   1.779  -0.946  0.00  0.00    +0.268 C 
BRANCH   4  10
ATOM      5  C   UNL     1       8.780   1.894  -2.555  0.00  0.00    +0.044 C 
ATOM      6  C   UNL     1       7.359   2.153  -2.127  0.00  0.00    -0.044 A 
ATOM      7  C   UNL     1       6.432   1.121  -2.161  0.00  0.00    +0.004 A 
ATOM      8  C   UNL     1       5.139   1.337  -1.776  0.00  0.00    +0.012 A 
ATOM      9  C   UNL     1       4.747   2.607  -1.344  0.00  0.00    +0.024 A 
ATOM     10  C   UNL     1       3.368   2.871  -0.924  0.00  0.00    +0.007 A 
ATOM     11  C   UNL     1       3.050   4.128  -0.521  0.00  0.00    +0.099 A 
ATOM     12  C   UNL     1       4.042   5.132  -0.506  0.00  0.00    +0.338 A 
ATOM     13  O   UNL     1       3.745   6.254  -0.138  0.00  0.00    -0.245 OA
ATOM     14  O   UNL     1       5.303   4.882  -0.892  0.00  0.00    -0.422 OA
ATOM     15  C   UNL     1       5.683   3.656  -1.308  0.00  0.00    +0.143 A 
ATOM     16  C   UNL     1       6.992   3.413  -1.704  0.00  0.00    -0.005 A 
ATOM     17  C   UNL     1       8.009   4.525  -1.673  0.00  0.00    +0.048 C 
ENDBRANCH   4  10
ENDBRANCH   3   4
ENDBRANCH   1   3
BRANCH   1  18
ATOM     18  C   UNL     1      -1.329   1.940   0.019  0.00  0.00    +0.213 C 
BRANCH  18  19
ATOM     19  C   UNL     1      -2.065   2.562  -1.140  0.00  0.00    -0.001 A 
ATOM     20  C   UNL     1      -1.991   1.987  -2.395  0.00  0.00    +0.007 A 
ATOM     21  C   UNL     1      -2.669   2.556  -3.457  0.00  0.00    +0.000 A 
ATOM     22  C   UNL     1      -3.413   3.705  -3.266  0.00  0.00    +0.000 A 
ATOM     23  C   UNL     1      -3.483   4.283  -2.012  0.00  0.00    +0.000 A 
ATOM     24  C   UNL     1      -2.809   3.712  -0.949  0.00  0.00    +0.007 A 
ENDBRANCH  18  19
BRANCH  18  25
ATOM     25  C   UNL     1      -2.123   0.773   0.549  0.00  0.00    -0.001 A 
ATOM     26  C   UNL     1      -2.501  -0.249  -0.301  0.00  0.00    +0.007 A 
ATOM     27  C   UNL     1      -3.225  -1.321   0.186  0.00  0.00    +0.000 A 
ATOM     28  C   UNL     1      -3.579  -1.366   1.522  0.00  0.00    +0.000 A 
ATOM     29  C   UNL     1      -3.207  -0.340   2.371  0.00  0.00    +0.000 A 
ATOM     30  C   UNL     1      -2.478   0.729   1.884  0.00  0.00    +0.007 A 
ENDBRANCH  18  25
BRANCH  18  31
ATOM     31  O   UNL     1      -1.161   2.911   1.053  0.00  0.00    -0.370 OA
ATOM     32  H   UNL     1      -0.694   2.579   1.833  0.00  0.00    +0.212 HD
ENDBRANCH  18  31
ENDBRANCH   1  18
TORSDOF 7
