REMARK  Name = ZINC39448903
REMARK  5 active torsions:
REMARK  status: ('A' for Active; 'I' for Inactive)
REMARK    1  A    between atoms: C_4  and  C_7
REMARK    2  A    between atoms: C_10  and  C_13
REMARK    3  A    between atoms: C_18  and  S_20
REMARK    4  A    between atoms: S_20  and  C_21
REMARK    5  A    between atoms: C_21  and  C_22
REMARK                            x       y       z     vdW  Elec       q    Type
REMARK                         _______ _______ _______ _____ _____    ______ ____
ROOT
ATOM      1  C   UNL     1       7.434  -2.768  -0.085  0.00  0.00    +0.200 C 
ATOM      2  N   UNL     1       8.450  -1.976   0.617  0.00  0.00    -0.336 N 
ATOM      3  C   UNL     1       8.672  -2.166   1.891  0.00  0.00    +0.190 C 
ATOM      4  N   UNL     1       8.023  -3.109   2.594  0.00  0.00    -0.195 NA
ATOM      5  C   UNL     1       7.323  -4.048   1.984  0.00  0.00    +0.159 C 
ATOM      6  N   UNL     1       7.293  -4.058   0.608  0.00  0.00    -0.300 N 
ATOM      7  N   UNL     1       9.602  -1.373   2.534  0.00  0.00    -0.329 N 
ATOM      8  H   UNL     1      10.079  -0.688   2.040  0.00  0.00    +0.145 HD
ATOM      9  H   UNL     1       9.778  -1.502   3.479  0.00  0.00    +0.145 HD
ATOM     10  H   UNL     1       7.182  -4.885   0.113  0.00  0.00    +0.150 HD
ATOM     11  H   UNL     1       8.960  -1.308   0.133  0.00  0.00    +0.164 HD
ENDROOT
BRANCH   1  15
ATOM     12  C   UNL     1       3.699  -0.689  -0.037  0.00  0.00    -0.018 A 
ATOM     13  C   UNL     1       4.896   0.024  -0.040  0.00  0.00    +0.009 A 
ATOM     14  C   UNL     1       6.099  -0.652  -0.055  0.00  0.00    +0.008 A 
ATOM     15  C   UNL     1       6.118  -2.035  -0.068  0.00  0.00    -0.007 A 
ATOM     16  C   UNL     1       4.932  -2.748  -0.066  0.00  0.00    +0.008 A 
ATOM     17  C   UNL     1       3.724  -2.082  -0.045  0.00  0.00    +0.009 A 
BRANCH  12  21
ATOM     18  C   UNL     1      -0.017   1.379   0.010  0.00  0.00    +0.000 A 
ATOM     19  C   UNL     1       1.169   2.092   0.002  0.00  0.00    +0.001 A 
ATOM     20  C   UNL     1       2.377   1.426  -0.013  0.00  0.00    +0.008 A 
ATOM     21  C   UNL     1       2.402   0.033  -0.021  0.00  0.00    -0.018 A 
ATOM     22  C   UNL     1       1.205  -0.680  -0.013  0.00  0.00    +0.008 A 
ATOM     23  C   UNL     1       0.002  -0.004   0.002  0.00  0.00    +0.001 A 
ENDBRANCH  12  21
ENDBRANCH   1  15
BRANCH   5  24
ATOM     24  S   UNL     1       6.447  -5.264   2.912  0.00  0.00    -0.081 S 
BRANCH  24  25
ATOM     25  C   UNL     1       6.794  -4.832   4.639  0.00  0.00    +0.173 C 
BRANCH  25  26
ATOM     26  C   UNL     1       6.094  -5.806   5.551  0.00  0.00    +0.234 C 
ATOM     27  O   UNL     1       5.427  -6.704   5.082  0.00  0.00    -0.274 OA
ATOM     28  N   UNL     1       6.210  -5.680   6.888  0.00  0.00    -0.239 N 
ATOM     29  C   UNL     1       6.971  -4.647   7.454  0.00  0.00    +0.044 A 
ATOM     30  C   UNL     1       6.649  -3.338   7.111  0.00  0.00    +0.024 A 
ATOM     31  C   UNL     1       7.339  -2.280   7.664  0.00  0.00    +0.002 A 
ATOM     32  C   UNL     1       8.353  -2.536   8.569  0.00  0.00    +0.000 A 
ATOM     33  C   UNL     1       8.680  -3.831   8.898  0.00  0.00    +0.005 A 
ATOM     34  C   UNL     1       8.007  -4.918   8.334  0.00  0.00    -0.025 A 
ATOM     35  C   UNL     1       8.547  -6.272   8.734  0.00  0.00    +0.042 C 
ATOM     36  C   UNL     1       7.845  -7.427   8.043  0.00  0.00    +0.042 C 
ATOM     37  C   UNL     1       6.381  -7.476   8.402  0.00  0.00    -0.025 A 
ATOM     38  C   UNL     1       5.569  -6.574   7.756  0.00  0.00    +0.044 A 
ATOM     39  C   UNL     1       4.202  -6.560   7.975  0.00  0.00    +0.024 A 
ATOM     40  C   UNL     1       3.666  -7.461   8.882  0.00  0.00    +0.002 A 
ATOM     41  C   UNL     1       4.485  -8.351   9.553  0.00  0.00    +0.000 A 
ATOM     42  C   UNL     1       5.865  -8.367   9.313  0.00  0.00    +0.005 A 
ENDBRANCH  25  26
ENDBRANCH  24  25
ENDBRANCH   5  24
TORSDOF 5
