REMARK  Name = ZINC36646403
REMARK  4 active torsions:
REMARK  status: ('A' for Active; 'I' for Inactive)
REMARK    1  A    between atoms: C_1  and  C_2
REMARK    2  A    between atoms: C_3  and  C_14
REMARK    3  A    between atoms: C_5  and  C_7
REMARK    4  A    between atoms: N_16  and  C_17
REMARK                            x       y       z     vdW  Elec       q    Type
REMARK                         _______ _______ _______ _____ _____    ______ ____
ROOT
ATOM      1  C   UNL     1      -2.510  -0.398   0.012  0.00  0.00    +0.248 C 
ATOM      2  O   UNL     1      -2.795   0.784   0.020  0.00  0.00    -0.270 OA
ATOM      3  N   UNL     1      -3.487  -1.327   0.011  0.00  0.00    -0.306 N 
ATOM      4  H   UNL     1      -3.260  -2.270   0.005  0.00  0.00    +0.150 HD
ENDROOT
BRANCH   3   5
ATOM      5  C   UNL     1      -4.892  -0.912   0.020  0.00  0.00    +0.036 C 
ATOM      6  C   UNL     1      -5.183  -0.069  -1.223  0.00  0.00    +0.029 C 
ATOM      7  C   UNL     1      -6.651   0.365  -1.213  0.00  0.00    -0.008 C 
ATOM      8  C   UNL     1      -7.548  -0.875  -1.216  0.00  0.00    +0.007 C 
ATOM      9  C   UNL     1      -7.257  -1.718   0.027  0.00  0.00    -0.008 C 
ATOM     10  C   UNL     1      -5.790  -2.151   0.018  0.00  0.00    +0.029 C 
ATOM     11  C   UNL     1      -7.536  -0.889   1.283  0.00  0.00    +0.007 C 
ATOM     12  C   UNL     1      -6.638   0.350   1.285  0.00  0.00    -0.008 C 
ATOM     13  C   UNL     1      -6.929   1.194   0.042  0.00  0.00    +0.007 C 
ATOM     14  C   UNL     1      -5.171  -0.083   1.276  0.00  0.00    +0.029 C 
ENDBRANCH   3   5
BRANCH   1  17
ATOM     15  C   UNL     1      -0.018   1.503   0.010  0.00  0.00    +0.087 C 
ATOM     16  C   UNL     1       0.002  -0.004   0.002  0.00  0.00    +0.115 A 
ATOM     17  C   UNL     1      -1.097  -0.815   0.003  0.00  0.00    +0.078 A 
ATOM     18  C   UNL     1      -0.579  -2.188  -0.008  0.00  0.00    +0.063 A 
ATOM     19  C   UNL     1       0.772  -2.074  -0.014  0.00  0.00    +0.136 A 
ATOM     20  O   UNL     1       1.098  -0.768  -0.013  0.00  0.00    -0.459 OA
BRANCH  19  21
ATOM     21  C   UNL     1       1.731  -3.200  -0.024  0.00  0.00    +0.017 A 
ATOM     22  C   UNL     1       1.265  -4.516  -0.035  0.00  0.00    +0.013 A 
ATOM     23  C   UNL     1       2.164  -5.562  -0.045  0.00  0.00    +0.021 A 
ATOM     24  C   UNL     1       3.525  -5.309  -0.045  0.00  0.00    +0.041 A 
ATOM     25  C   UNL     1       3.993  -4.006  -0.034  0.00  0.00    +0.021 A 
ATOM     26  C   UNL     1       3.104  -2.951  -0.029  0.00  0.00    +0.013 A 
ATOM     27 CL   UNL     1       4.651  -6.631  -0.058  0.00  0.00    -0.084 Cl
ENDBRANCH  19  21
ENDBRANCH   1  17
TORSDOF 3
