REMARK  Name = ZINC12282778
REMARK  6 active torsions:
REMARK  status: ('A' for Active; 'I' for Inactive)
REMARK    1  A    between atoms: C_7  and  C_11
REMARK    2  A    between atoms: C_11  and  C_12
REMARK    3  A    between atoms: C_12  and  N_13
REMARK    4  A    between atoms: C_14  and  C_16
REMARK    5  A    between atoms: C_24  and  C_25
REMARK    6  A    between atoms: C_24  and  N_63
REMARK                            x       y       z     vdW  Elec       q    Type
REMARK                         _______ _______ _______ _____ _____    ______ ____
ROOT
ATOM      1  C   UNL     1      -3.305   7.162  -2.515  0.00  0.00    +0.082 C 
ATOM      2  C   UNL     1      -2.325   8.305  -2.790  0.00  0.00    +0.020 C 
ATOM      3  C   UNL     1      -3.358   7.913  -3.844  0.00  0.00    -0.021 C 
ATOM      4  C   UNL     1      -4.535   8.864  -4.081  0.00  0.00    -0.011 C 
ATOM      5  C   UNL     1      -5.636   8.105  -4.830  0.00  0.00    -0.078 C 
ATOM      6  C   UNL     1      -4.061   6.523  -5.786  0.00  0.00    -0.078 C 
ATOM      7  C   UNL     1      -2.862   7.183  -5.097  0.00  0.00    -0.011 C 
ATOM      8  N   UNL     1      -5.071   7.563  -6.085  0.00  0.00    +0.383 N 
ATOM      9  H   UNL     1      -4.618   8.326  -6.603  0.00  0.00    -0.081 HD
ENDROOT
BRANCH   1  11
ATOM     10  N   UNL     1      -3.570   4.717  -2.253  0.00  0.00    -0.315 N 
ATOM     11  C   UNL     1      -2.759   5.758  -2.530  0.00  0.00    +0.217 C 
ATOM     12  O   UNL     1      -1.591   5.564  -2.790  0.00  0.00    -0.275 OA
ATOM     13  H   UNL     1      -4.504   4.872  -2.045  0.00  0.00    +0.149 HD
BRANCH  10  14
ATOM     14  C   UNL     1      -3.039   3.351  -2.268  0.00  0.00    +0.109 C 
BRANCH  14  15
ATOM     15  C   UNL     1      -4.157   2.366  -1.923  0.00  0.00    +0.056 C 
BRANCH  15  22
ATOM     16  C   UNL     1      -1.955  -0.253   1.280  0.00  0.00    +0.001 A 
ATOM     17  C   UNL     1      -1.631  -1.520   0.813  0.00  0.00    +0.002 A 
ATOM     18  C   UNL     1      -1.952  -1.899  -0.471  0.00  0.00    +0.026 A 
ATOM     19  C   UNL     1      -2.608  -1.004  -1.312  0.00  0.00    +0.047 A 
ATOM     20  C   UNL     1      -2.934   0.278  -0.834  0.00  0.00    +0.003 A 
ATOM     21  C   UNL     1      -2.599   0.641   0.472  0.00  0.00    +0.010 A 
ATOM     22  C   UNL     1      -3.611   0.961  -1.938  0.00  0.00    -0.021 A 
ATOM     23  C   UNL     1      -3.646   0.102  -2.969  0.00  0.00    +0.087 A 
ATOM     24  N   UNL     1      -3.054  -1.079  -2.612  0.00  0.00    -0.360 N 
ATOM     25  H   UNL     1      -2.962  -1.853  -3.189  0.00  0.00    +0.165 HD
ENDBRANCH  15  22
ENDBRANCH  14  15
ENDBRANCH  10  14
ENDBRANCH   1  11
BRANCH   8  26
ATOM     26  C   UNL     1      -6.149   6.993  -6.918  0.00  0.00    -0.036 C 
BRANCH  26  27
ATOM     27  C   UNL     1      -7.292   7.973  -6.983  0.00  0.00    +0.018 A 
ATOM     28  C   UNL     1      -8.385   7.788  -6.222  0.00  0.00    +0.201 A 
ATOM     29  O   UNL     1      -9.427   8.627  -6.234  0.00  0.00    -0.462 OA
ATOM     30  C   UNL     1      -9.466   9.721  -7.023  0.00  0.00    +0.138 A 
ATOM     31  C   UNL     1     -10.566  10.569  -7.016  0.00  0.00    +0.048 A 
ATOM     32  C   UNL     1     -10.582  11.681  -7.830  0.00  0.00    +0.023 A 
ATOM     33  C   UNL     1      -9.508  11.966  -8.662  0.00  0.00    +0.042 A 
ATOM     34  C   UNL     1      -8.406  11.137  -8.684  0.00  0.00    +0.035 A 
ATOM     35  C   UNL     1      -8.379  10.010  -7.864  0.00  0.00    +0.066 A 
ATOM     36  C   UNL     1      -7.223   9.093  -7.853  0.00  0.00    +0.194 A 
ATOM     37  O   UNL     1      -6.250   9.290  -8.560  0.00  0.00    -0.287 OA
ATOM     38 CL   UNL     1      -9.552  13.372  -9.680  0.00  0.00    -0.084 Cl
ENDBRANCH  26  27
ENDBRANCH   8  26
TORSDOF 6
