REMARK  Name = ZINC17590432
REMARK  9 active torsions:
REMARK  status: ('A' for Active; 'I' for Inactive)
REMARK    1  A    between atoms: C_1  and  N_2
REMARK    2  A    between atoms: C_6  and  C_7
REMARK    3  A    between atoms: C_7  and  C_9
REMARK    4  A    between atoms: C_7  and  N_16
REMARK    5  A    between atoms: N_16  and  C_17
REMARK    6  A    between atoms: C_20  and  S_26
REMARK    7  A    between atoms: C_22  and  N_23
REMARK    8  A    between atoms: S_26  and  N_29
REMARK    9  A    between atoms: N_32  and  C_35
REMARK                            x       y       z     vdW  Elec       q    Type
REMARK                         _______ _______ _______ _____ _____    ______ ____
ROOT
ATOM      1  C   UNL     1      -1.997   1.161   2.463  0.00  0.00    +0.059 A 
ATOM      2  C   UNL     1      -2.812   0.039   2.382  0.00  0.00    +0.027 A 
ATOM      3  C   UNL     1      -4.144   0.127   2.737  0.00  0.00    +0.030 A 
ATOM      4  C   UNL     1      -4.666   1.331   3.173  0.00  0.00    +0.108 A 
ATOM      5  C   UNL     1      -3.858   2.450   3.255  0.00  0.00    +0.063 A 
ATOM      6  C   UNL     1      -2.523   2.367   2.907  0.00  0.00    +0.149 A 
ENDROOT
BRANCH   6   7
ATOM      7  N   UNL     1      -1.657   3.563   3.000  0.00  0.00    +0.058 N 
ATOM      8  O   UNL     1      -0.510   3.452   3.366  0.00  0.00    -0.126 OA
ATOM      9  O   UNL     1      -2.097   4.652   2.712  0.00  0.00    -0.126 OA
ENDBRANCH   6   7
BRANCH   4  10
ATOM     10  S   UNL     1      -6.366   1.440   3.625  0.00  0.00    +0.061 S 
ATOM     11  O   UNL     1      -6.738   2.804   3.479  0.00  0.00    -0.153 OA
ATOM     12  O   UNL     1      -7.036   0.391   2.941  0.00  0.00    -0.153 OA
BRANCH  10  13
ATOM     13  N   UNL     1      -6.466   1.092   5.241  0.00  0.00    -0.174 NA
ATOM     14  C   UNL     1      -6.656  -0.291   5.705  0.00  0.00    +0.125 C 
ATOM     15  C   UNL     1      -5.591  -0.601   6.761  0.00  0.00    +0.101 C 
ATOM     16  N   UNL     1      -5.639   0.420   7.816  0.00  0.00    -0.303 NA
ATOM     17  C   UNL     1      -5.312   1.751   7.285  0.00  0.00    +0.101 C 
ATOM     18  C   UNL     1      -6.361   2.156   6.250  0.00  0.00    +0.125 C 
ATOM     19  C   UNL     1      -4.753   0.067   8.932  0.00  0.00    +0.105 C 
ENDBRANCH  10  13
ENDBRANCH   4  10
BRANCH   1  20
ATOM     20  N   UNL     1      -0.650   1.074   2.105  0.00  0.00    -0.329 N 
ATOM     21  H   UNL     1      -0.103   1.875   2.079  0.00  0.00    +0.147 HD
BRANCH  20  22
ATOM     22  C   UNL     1      -0.063  -0.226   1.770  0.00  0.00    +0.165 C 
BRANCH  22  28
ATOM     23  C   UNL     1      -0.568   1.835  -0.488  0.00  0.00    +0.150 C 
ATOM     24  N   UNL     1      -0.538   0.380  -0.654  0.00  0.00    -0.337 N 
ATOM     25  C   UNL     1      -0.720  -0.308  -1.823  0.00  0.00    +0.104 A 
ATOM     26  C   UNL     1      -0.612  -1.617  -1.525  0.00  0.00    +0.102 A 
ATOM     27  N   UNL     1      -0.370  -1.725  -0.210  0.00  0.00    -0.348 N 
ATOM     28  C   UNL     1      -0.319  -0.533   0.317  0.00  0.00    +0.112 A 
ATOM     29  H   UNL     1      -0.248  -2.558   0.271  0.00  0.00    +0.167 HD
ENDBRANCH  22  28
BRANCH  22  30
ATOM     30  C   UNL     1       1.423  -0.185   2.021  0.00  0.00    -0.020 A 
ATOM     31  C   UNL     1       2.148   0.945   1.695  0.00  0.00    +0.009 A 
ATOM     32  C   UNL     1       3.510   0.984   1.924  0.00  0.00    +0.038 A 
ATOM     33  C   UNL     1       4.149  -0.112   2.481  0.00  0.00    +0.123 A 
ATOM     34  C   UNL     1       3.421  -1.244   2.807  0.00  0.00    +0.038 A 
ATOM     35  C   UNL     1       2.058  -1.278   2.582  0.00  0.00    +0.009 A 
ATOM     36  F   UNL     1       5.480  -0.076   2.706  0.00  0.00    -0.205 F 
ENDBRANCH  22  30
ENDBRANCH  20  22
ENDBRANCH   1  20
TORSDOF 7
