REMARK  Name = ZINC35838459
REMARK  6 active torsions:
REMARK  status: ('A' for Active; 'I' for Inactive)
REMARK    1  A    between atoms: C_1  and  C_2
REMARK    2  A    between atoms: C_2  and  C_4
REMARK    3  A    between atoms: C_2  and  N_10
REMARK    4  A    between atoms: C_16  and  C_23
REMARK    5  A    between atoms: N_21  and  C_22
REMARK    6  A    between atoms: C_28  and  C_29
REMARK                            x       y       z     vdW  Elec       q    Type
REMARK                         _______ _______ _______ _____ _____    ______ ____
ROOT
ATOM      1  N   UNL     1       0.961  -0.544   0.915  0.00  0.00    -0.285 N 
ATOM      2  C   UNL     1       0.347  -1.455   1.892  0.00  0.00    +0.160 C 
ATOM      3  C   UNL     1       1.371  -1.589   2.997  0.00  0.00    +0.042 C 
ATOM      4  C   UNL     1       2.421  -0.824   2.635  0.00  0.00    +0.058 C 
ATOM      5  C   UNL     1       2.174  -0.208   1.391  0.00  0.00    +0.247 C 
ATOM      6  O   UNL     1       2.954   0.534   0.823  0.00  0.00    -0.270 OA
ATOM      7  C   UNL     1       3.611  -0.771   3.572  0.00  0.00    +0.142 C 
ATOM      8  N   UNL     1       3.520  -1.565   4.809  0.00  0.00    -0.288 N 
ATOM      9  C   UNL     1       2.401  -2.282   5.032  0.00  0.00    +0.307 C 
ATOM     10  O   UNL     1       2.317  -2.940   6.050  0.00  0.00    -0.252 OA
ATOM     11  N   UNL     1       1.378  -2.292   4.167  0.00  0.00    -0.260 N 
ATOM     12  C   UNL     1       0.202  -3.101   4.496  0.00  0.00    +0.139 C 
ATOM     13  H   UNL     1       4.250  -1.572   5.449  0.00  0.00    +0.151 HD
ENDROOT
BRANCH   7  14
ATOM     14  C   UNL     1       3.834   0.668   3.959  0.00  0.00    -0.011 A 
ATOM     15  C   UNL     1       2.945   1.301   4.808  0.00  0.00    +0.006 A 
ATOM     16  C   UNL     1       3.149   2.621   5.163  0.00  0.00    +0.000 A 
ATOM     17  C   UNL     1       4.243   3.308   4.670  0.00  0.00    +0.001 A 
ATOM     18  C   UNL     1       5.132   2.675   3.822  0.00  0.00    +0.013 A 
ATOM     19  C   UNL     1       4.930   1.353   3.470  0.00  0.00    +0.060 A 
BRANCH  19  20
ATOM     20  C   UNL     1       5.902   0.662   2.550  0.00  0.00    +0.418 C 
ATOM     21  F   UNL     1       6.872   1.575   2.125  0.00  0.00    -0.166 F 
ATOM     22  F   UNL     1       6.521  -0.392   3.232  0.00  0.00    -0.166 F 
ATOM     23  F   UNL     1       5.216   0.159   1.439  0.00  0.00    -0.166 F 
ENDBRANCH  19  20
ENDBRANCH   7  14
BRANCH   1  25
ATOM     24  C   UNL     1      -0.955  -0.828  -0.578  0.00  0.00    +0.033 C 
ATOM     25  C   UNL     1       0.367  -0.093  -0.346  0.00  0.00    +0.104 C 
BRANCH  25  26
ATOM     26  C   UNL     1       0.112   1.391  -0.278  0.00  0.00    -0.027 A 
ATOM     27  C   UNL     1      -0.465   1.942   0.850  0.00  0.00    +0.005 A 
ATOM     28  C   UNL     1      -0.699   3.303   0.912  0.00  0.00    +0.000 A 
ATOM     29  C   UNL     1      -0.355   4.113  -0.154  0.00  0.00    +0.000 A 
ATOM     30  C   UNL     1       0.224   3.562  -1.282  0.00  0.00    +0.000 A 
ATOM     31  C   UNL     1       0.461   2.201  -1.343  0.00  0.00    +0.005 A 
ENDBRANCH  25  26
ENDBRANCH   1  25
TORSDOF 4
