REMARK  Name = ZINC17220179
REMARK  5 active torsions:
REMARK  status: ('A' for Active; 'I' for Inactive)
REMARK    1  A    between atoms: C_1  and  C_2
REMARK    2  A    between atoms: C_2  and  O_4
REMARK    3  A    between atoms: O_4  and  C_5
REMARK    4  A    between atoms: C_14  and  O_23
REMARK    5  A    between atoms: C_20  and  O_22
REMARK                            x       y       z     vdW  Elec       q    Type
REMARK                         _______ _______ _______ _____ _____    ______ ____
ROOT
ATOM      1  C   UNL     1       1.224   0.182  -0.993  0.00  0.00    +0.124 C 
ATOM      2  C   UNL     1       1.730  -1.288  -0.953  0.00  0.00    +0.049 C 
ATOM      3  C   UNL     1       2.086  -1.666   0.447  0.00  0.00    +0.004 C 
ATOM      4  C   UNL     1       1.160  -2.114   1.541  0.00  0.00    +0.000 C 
ATOM      5  C   UNL     1      -0.072  -2.886   1.014  0.00  0.00    +0.000 C 
ATOM      6  C   UNL     1      -1.273  -1.927   0.729  0.00  0.00    +0.000 C 
ATOM      7  C   UNL     1      -0.957  -1.025  -0.429  0.00  0.00    +0.010 C 
ATOM      8  C   UNL     1       0.002  -0.003   0.003  0.00  0.00    +0.068 C 
ATOM      9  C   UNL     1      -0.015   1.472   0.011  0.00  0.00    +0.105 C 
ATOM     10  C   UNL     1       1.545   1.232  -0.006  0.00  0.00    +0.068 C 
ATOM     11  C   UNL     1       2.174   2.569  -0.380  0.00  0.00    +0.010 C 
ATOM     12  C   UNL     1       1.875   3.536   0.777  0.00  0.00    +0.003 C 
ATOM     13  C   UNL     1       0.383   3.662   1.057  0.00  0.00    +0.034 C 
ATOM     14  C   UNL     1      -0.294   2.297   1.265  0.00  0.00    +0.147 C 
ENDROOT
BRANCH  14  15
ATOM     15  O   UNL     1       0.242   1.647   2.417  0.00  0.00    -0.389 OA
ATOM     16  H   UNL     1       0.095   2.127   3.243  0.00  0.00    +0.210 HD
ENDBRANCH  14  15
BRANCH   9  17
ATOM     17  O   UNL     1      -0.554   2.077  -1.157  0.00  0.00    -0.385 OA
ATOM     18  H   UNL     1      -1.520   2.088  -1.184  0.00  0.00    +0.210 HD
ENDBRANCH   9  17
BRANCH   1  19
ATOM     19  O   UNL     1       0.945   0.647  -2.353  0.00  0.00    -0.457 OA
BRANCH  19  21
ATOM     20  C   UNL     1       1.800   1.482  -4.514  0.00  0.00    +0.136 C 
ATOM     21  C   UNL     1       2.003   0.895  -3.141  0.00  0.00    +0.304 C 
ATOM     22  O   UNL     1       3.119   0.648  -2.749  0.00  0.00    -0.251 OA
ENDBRANCH  19  21
ENDBRANCH   1  19
TORSDOF 4
