REMARK  Name = ZINC21532161
REMARK  8 active torsions:
REMARK  status: ('A' for Active; 'I' for Inactive)
REMARK    1  A    between atoms: C_1  and  C_2
REMARK    2  A    between atoms: C_5  and  N_9
REMARK    3  A    between atoms: C_7  and  C_8
REMARK    4  A    between atoms: C_10  and  C_12
REMARK    5  A    between atoms: C_12  and  N_13
REMARK    6  A    between atoms: N_13  and  C_14
REMARK    7  A    between atoms: N_13  and  S_15
REMARK    8  A    between atoms: S_15  and  C_18
REMARK                            x       y       z     vdW  Elec       q    Type
REMARK                         _______ _______ _______ _____ _____    ______ ____
ROOT
ATOM      1  S   UNL     1      -3.929  -0.973  -0.029  0.00  0.00    +0.061 S 
ATOM      2  O   UNL     1      -4.919  -0.112  -0.575  0.00  0.00    -0.153 OA
ATOM      3  O   UNL     1      -3.633  -2.245  -0.590  0.00  0.00    -0.153 OA
ENDROOT
BRANCH   1   4
ATOM      4  C   UNL     1      -2.420  -0.063  -0.021  0.00  0.00    +0.106 A 
ATOM      5  C   UNL     1      -2.439   1.320  -0.011  0.00  0.00    +0.030 A 
ATOM      6  C   UNL     1      -1.254   2.013  -0.009  0.00  0.00    +0.025 A 
ATOM      7  C   UNL     1      -0.015   1.349  -0.018  0.00  0.00    +0.037 A 
ATOM      8  C   UNL     1      -0.002  -0.028  -0.020  0.00  0.00    -0.024 A 
ATOM      9  C   UNL     1      -1.212  -0.723  -0.025  0.00  0.00    +0.034 A 
ATOM     10  C   UNL     1       1.227  -0.879  -0.013  0.00  0.00    +0.037 C 
ATOM     11  C   UNL     1       2.381  -0.349   0.780  0.00  0.00    +0.014 C 
ATOM     12  C   UNL     1       3.136   0.754   0.079  0.00  0.00    +0.096 C 
ATOM     13  C   UNL     1       2.374   2.031   0.074  0.00  0.00    +0.217 C 
ATOM     14  O   UNL     1       3.026   3.048   0.180  0.00  0.00    -0.275 OA
ATOM     15  N   UNL     1       1.084   2.177  -0.033  0.00  0.00    -0.285 N 
ATOM     16  H   UNL     1       0.954   3.262  -0.161  0.00  0.00    +0.155 HD
ENDBRANCH   1   4
BRANCH   1  17
ATOM     17  N   UNL     1      -4.349  -1.237   1.550  0.00  0.00    -0.171 NA
ATOM     18  C   UNL     1      -5.190  -0.268   2.256  0.00  0.00    +0.132 C 
BRANCH  17  19
ATOM     19  C   UNL     1      -3.881  -2.441   2.241  0.00  0.00    +0.205 C 
BRANCH  19  21
ATOM     20  N   UNL     1      -2.007  -3.085   3.722  0.00  0.00    -0.284 N 
ATOM     21  C   UNL     1      -2.621  -2.123   3.006  0.00  0.00    +0.233 C 
ATOM     22  O   UNL     1      -2.161  -1.001   2.976  0.00  0.00    -0.274 OA
ATOM     23  H   UNL     1      -2.465  -4.081   3.812  0.00  0.00    +0.155 HD
BRANCH  20  28
ATOM     24  C   UNL     1       2.940  -1.996   6.277  0.00  0.00    +0.044 C 
ATOM     25  C   UNL     1       1.626  -2.285   5.599  0.00  0.00    -0.047 A 
ATOM     26  C   UNL     1       1.384  -3.540   5.070  0.00  0.00    +0.005 A 
ATOM     27  C   UNL     1       0.178  -3.810   4.453  0.00  0.00    +0.023 A 
ATOM     28  C   UNL     1      -0.787  -2.816   4.353  0.00  0.00    +0.034 A 
ATOM     29  C   UNL     1      -0.541  -1.558   4.884  0.00  0.00    +0.027 A 
ATOM     30  C   UNL     1       0.665  -1.295   5.506  0.00  0.00    -0.046 A 
ATOM     31  C   UNL     1       0.932   0.071   6.083  0.00  0.00    +0.044 C 
ENDBRANCH  20  28
ENDBRANCH  19  21
ENDBRANCH  17  19
ENDBRANCH   1  17
TORSDOF 5
