REMARK  Name = ZINC12456651
REMARK  7 active torsions:
REMARK  status: ('A' for Active; 'I' for Inactive)
REMARK    1  A    between atoms: C_1  and  C_2
REMARK    2  A    between atoms: C_2  and  C_10
REMARK    3  A    between atoms: C_3  and  C_4
REMARK    4  A    between atoms: C_10  and  N_69
REMARK    5  A    between atoms: N_13  and  C_16
REMARK    6  A    between atoms: N_24  and  C_27
REMARK    7  A    between atoms: C_27  and  C_28
REMARK                            x       y       z     vdW  Elec       q    Type
REMARK                         _______ _______ _______ _____ _____    ______ ____
ROOT
ATOM      1  C   UNL     1       1.218   4.977   5.594  0.00  0.00    +0.043 A 
ATOM      2  C   UNL     1       1.028   3.925   6.493  0.00  0.00    +0.024 A 
ATOM      3  C   UNL     1       1.249   4.111   7.840  0.00  0.00    +0.003 A 
ATOM      4  C   UNL     1       1.654   5.347   8.327  0.00  0.00    +0.014 A 
ATOM      5  C   UNL     1       1.844   6.404   7.454  0.00  0.00    +0.051 A 
ATOM      6  C   UNL     1       1.624   6.222   6.071  0.00  0.00    +0.070 A 
ATOM      7  C   UNL     1       1.911   7.522   5.442  0.00  0.00    +0.256 C 
ATOM      8  O   UNL     1       1.835   7.766   4.254  0.00  0.00    -0.269 OA
ATOM      9  N   UNL     1       2.273   8.394   6.400  0.00  0.00    -0.230 N 
ATOM     10  C   UNL     1       2.258   7.813   7.614  0.00  0.00    +0.254 C 
ATOM     11  O   UNL     1       2.539   8.356   8.663  0.00  0.00    -0.270 OA
ENDROOT
BRANCH   1  14
ATOM     12  C   UNL     1       0.028   3.368   2.494  0.00  0.00    -0.059 C 
ATOM     13  C   UNL     1       0.323   3.505   3.990  0.00  0.00    +0.086 C 
ATOM     14  N   UNL     1       0.998   4.786   4.238  0.00  0.00    -0.333 N 
ATOM     15  C   UNL     1       2.256   4.871   3.484  0.00  0.00    +0.086 C 
ATOM     16  C   UNL     1       1.961   4.734   1.988  0.00  0.00    -0.059 C 
ATOM     17  N   UNL     1       1.303   3.432   1.749  0.00  0.00    +0.384 N 
ATOM     18  H   UNL     1       1.920   2.681   2.078  0.00  0.00    -0.081 HD
BRANCH  17  19
ATOM     19  C   UNL     1       1.054   3.250   0.303  0.00  0.00    -0.048 C 
BRANCH  19  21
ATOM     20  C   UNL     1       1.600   0.729  -0.091  0.00  0.00    +0.037 C 
ATOM     21  C   UNL     1       0.590   1.837   0.064  0.00  0.00    -0.089 C 
ATOM     22  C   UNL     1      -0.706   1.568  -0.011  0.00  0.00    +0.005 C 
BRANCH  22  23
ATOM     23  C   UNL     1      -1.159   0.217  -0.405  0.00  0.00    -0.025 A 
ATOM     24  C   UNL     1      -0.448  -0.509  -1.362  0.00  0.00    +0.008 A 
ATOM     25  C   UNL     1      -0.874  -1.771  -1.722  0.00  0.00    +0.001 A 
ATOM     26  C   UNL     1      -2.008  -2.313  -1.145  0.00  0.00    +0.000 A 
ATOM     27  C   UNL     1      -2.720  -1.596  -0.199  0.00  0.00    +0.001 A 
ATOM     28  C   UNL     1      -2.302  -0.335   0.174  0.00  0.00    +0.008 A 
ENDBRANCH  22  23
ENDBRANCH  19  21
ENDBRANCH  17  19
ENDBRANCH   1  14
BRANCH   9  29
ATOM     29  C   UNL     1       2.635   9.792   6.154  0.00  0.00    +0.165 C 
BRANCH  29  30
ATOM     30  C   UNL     1       1.382  10.666   6.237  0.00  0.00    +0.229 C 
ATOM     31  C   UNL     1       1.735  12.114   5.872  0.00  0.00    +0.275 C 
ATOM     32  O   UNL     1       0.546  12.905   5.974  0.00  0.00    -0.485 OA
ATOM     33  C   UNL     1      -0.214  12.727   7.089  0.00  0.00    +0.162 A 
ATOM     34  C   UNL     1      -1.159  13.684   7.428  0.00  0.00    +0.049 A 
ATOM     35  C   UNL     1      -1.941  13.515   8.555  0.00  0.00    +0.004 A 
ATOM     36  C   UNL     1      -1.784  12.393   9.347  0.00  0.00    +0.004 A 
ATOM     37  C   UNL     1      -0.843  11.437   9.016  0.00  0.00    +0.049 A 
ATOM     38  C   UNL     1      -0.054  11.600   7.886  0.00  0.00    +0.163 A 
ATOM     39  O   UNL     1       0.871  10.651   7.574  0.00  0.00    -0.480 OA
ENDBRANCH  29  30
ENDBRANCH   9  29
TORSDOF 6
