REMARK  Name = ZINC35514009
REMARK  10 active torsions:
REMARK  status: ('A' for Active; 'I' for Inactive)
REMARK    1  A    between atoms: C_1  and  C_2
REMARK    2  A    between atoms: C_9  and  C_11
REMARK    3  A    between atoms: C_13  and  N_23
REMARK    4  A    between atoms: C_16  and  N_17
REMARK    5  A    between atoms: N_23  and  S_24
REMARK    6  A    between atoms: S_24  and  C_27
REMARK    7  A    between atoms: C_30  and  C_33
REMARK    8  A    between atoms: C_33  and  C_34
REMARK    9  A    between atoms: C_33  and  C_35
REMARK   10  A    between atoms: C_33  and  C_36
REMARK                            x       y       z     vdW  Elec       q    Type
REMARK                         _______ _______ _______ _____ _____    ______ ____
ROOT
ATOM      1  C   UNL     1       1.982   0.222   3.434  0.00  0.00    +0.079 A 
ATOM      2  C   UNL     1       2.509  -1.065   3.599  0.00  0.00    +0.042 A 
ATOM      3  C   UNL     1       3.351  -1.298   4.679  0.00  0.00    +0.067 A 
ATOM      4  C   UNL     1       3.642  -0.258   5.553  0.00  0.00    +0.137 A 
ATOM      5  N   UNL     1       3.133   0.945   5.375  0.00  0.00    -0.238 NA
ATOM      6  C   UNL     1       2.330   1.220   4.359  0.00  0.00    +0.133 A 
ENDROOT
BRANCH   1  14
ATOM      7  C   UNL     1      -0.541   1.498   0.399  0.00  0.00    +0.028 C 
ATOM      8  C   UNL     1       0.639   0.661  -0.098  0.00  0.00    +0.073 C 
ATOM      9  C   UNL     1       1.486   1.492  -1.068  0.00  0.00    +0.022 C 
ATOM     10  C   UNL     1       2.738   0.700  -1.452  0.00  0.00    +0.003 C 
ATOM     11  C   UNL     1       3.572   0.422  -0.200  0.00  0.00    +0.019 C 
ATOM     12  C   UNL     1       2.749  -0.421   0.780  0.00  0.00    +0.108 C 
ATOM     13  N   UNL     1       1.476   0.264   1.043  0.00  0.00    -0.295 N 
ATOM     14  C   UNL     1       1.083   0.525   2.306  0.00  0.00    +0.250 C 
ATOM     15  O   UNL     1      -0.011   1.011   2.514  0.00  0.00    -0.270 OA
ENDBRANCH   1  14
BRANCH   6  16
ATOM     16  N   UNL     1       1.823   2.501   4.211  0.00  0.00    -0.318 N 
ATOM     17  C   UNL     1       0.614   2.925   4.934  0.00  0.00    +0.087 C 
ATOM     18  C   UNL     1       0.910   4.252   5.639  0.00  0.00    -0.063 C 
ATOM     19  N   UNL     1       1.403   5.228   4.658  0.00  0.00    +0.381 N 
ATOM     20  C   UNL     1       2.688   4.777   4.108  0.00  0.00    -0.063 C 
ATOM     21  C   UNL     1       2.483   3.478   3.331  0.00  0.00    +0.087 C 
ATOM     22  H   UNL     1       0.732   5.319   3.910  0.00  0.00    -0.086 HD
ATOM     23  H   UNL     1       1.526   6.122   5.108  0.00  0.00    -0.086 HD
ENDBRANCH   6  16
BRANCH   3  24
ATOM     24  N   UNL     1       3.901  -2.570   4.884  0.00  0.00    -0.215 N 
ATOM     25  H   UNL     1       3.339  -3.357   4.821  0.00  0.00    +0.174 HD
BRANCH  24  26
ATOM     26  S   UNL     1       5.512  -2.728   5.236  0.00  0.00    +0.072 S 
ATOM     27  O   UNL     1       5.775  -1.864   6.332  0.00  0.00    -0.150 OA
ATOM     28  O   UNL     1       5.782  -4.122   5.283  0.00  0.00    -0.150 OA
BRANCH  26  29
ATOM     29  C   UNL     1       6.410  -2.087   3.862  0.00  0.00    +0.109 A 
ATOM     30  C   UNL     1       6.669  -2.892   2.769  0.00  0.00    +0.029 A 
ATOM     31  C   UNL     1       7.374  -2.389   1.691  0.00  0.00    +0.006 A 
ATOM     32  C   UNL     1       7.820  -1.081   1.707  0.00  0.00    -0.042 A 
ATOM     33  C   UNL     1       7.560  -0.275   2.800  0.00  0.00    +0.006 A 
ATOM     34  C   UNL     1       6.851  -0.777   3.875  0.00  0.00    +0.029 A 
BRANCH  32  35
ATOM     35  C   UNL     1       8.589  -0.533   0.532  0.00  0.00    -0.013 C 
ATOM     36  C   UNL     1       7.723  -0.614  -0.727  0.00  0.00    +0.015 C 
ATOM     37  C   UNL     1       8.961   0.926   0.802  0.00  0.00    +0.015 C 
ATOM     38  C   UNL     1       9.863  -1.355   0.329  0.00  0.00    +0.015 C 
ENDBRANCH  32  35
ENDBRANCH  26  29
ENDBRANCH  24  26
ENDBRANCH   3  24
TORSDOF 6
