REMARK  Name = ZINC39260342
REMARK  11 active torsions:
REMARK  status: ('A' for Active; 'I' for Inactive)
REMARK    1  A    between atoms: C_1  and  C_2
REMARK    2  A    between atoms: C_5  and  C_33
REMARK    3  A    between atoms: C_6  and  C_8
REMARK    4  A    between atoms: C_8  and  O_9
REMARK    5  A    between atoms: O_9  and  C_10
REMARK    6  A    between atoms: C_18  and  C_19
REMARK    7  A    between atoms: C_19  and  C_20
REMARK    8  A    between atoms: C_20  and  N_21
REMARK    9  A    between atoms: C_22  and  C_24
REMARK   10  A    between atoms: C_27  and  C_30
REMARK   11  A    between atoms: C_30  and  C_32
REMARK                            x       y       z     vdW  Elec       q    Type
REMARK                         _______ _______ _______ _____ _____    ______ ____
ROOT
ATOM      1  C   UNL     1       0.077  -2.410   4.834  0.00  0.00    +0.162 A 
ATOM      2  C   UNL     1       0.113  -3.762   5.012  0.00  0.00    +0.051 A 
ATOM      3  C   UNL     1       0.130  -4.291   6.313  0.00  0.00    +0.022 A 
ATOM      4  C   UNL     1       0.112  -3.470   7.383  0.00  0.00    +0.093 A 
ATOM      5  N   UNL     1       0.077  -2.113   7.221  0.00  0.00    -0.302 N 
ATOM      6  C   UNL     1       0.065  -1.564   5.966  0.00  0.00    +0.158 A 
ATOM      7  N   UNL     1       0.036  -0.245   6.095  0.00  0.00    -0.343 N 
ATOM      8  C   UNL     1       0.035   0.069   7.392  0.00  0.00    +0.106 A 
ATOM      9  C   UNL     1       0.052  -1.075   8.112  0.00  0.00    +0.042 A 
ATOM     10  H   UNL     1       0.019   0.391   5.363  0.00  0.00    +0.167 HD
ENDROOT
BRANCH   1  11
ATOM     11  O   UNL     1       0.061  -1.882   3.581  0.00  0.00    -0.484 OA
BRANCH  11  12
ATOM     12  C   UNL     1       0.076  -2.803   2.489  0.00  0.00    +0.265 C 
BRANCH  12  18
ATOM     13  C   UNL     1      -0.030   1.546   0.016  0.00  0.00    +0.044 C 
ATOM     14  C   UNL     1       0.003   0.040   0.006  0.00  0.00    -0.050 A 
ATOM     15  C   UNL     1       0.013  -0.643  -1.196  0.00  0.00    +0.003 A 
ATOM     16  C   UNL     1       0.043  -2.025  -1.205  0.00  0.00    +0.004 A 
ATOM     17  C   UNL     1       0.063  -2.724  -0.013  0.00  0.00    -0.044 A 
ATOM     18  C   UNL     1       0.054  -2.041   1.189  0.00  0.00    -0.007 A 
ATOM     19  C   UNL     1       0.028  -0.659   1.198  0.00  0.00    +0.010 A 
ATOM     20  C   UNL     1       0.095  -4.231  -0.023  0.00  0.00    +0.044 C 
ENDBRANCH  12  18
ENDBRANCH  11  12
ENDBRANCH   1  11
BRANCH   9  21
ATOM     21  C   UNL     1       0.059  -1.186   9.615  0.00  0.00    +0.074 C 
BRANCH  21  22
ATOM     22  C   UNL     1      -1.378  -1.136  10.137  0.00  0.00    +0.110 C 
BRANCH  22  23
ATOM     23  N   UNL     1      -1.372  -1.244  11.598  0.00  0.00    -0.311 N 
ATOM     24  C   UNL     1      -2.534  -1.222  12.280  0.00  0.00    +0.244 C 
ATOM     25  O   UNL     1      -3.587  -1.113  11.684  0.00  0.00    -0.270 OA
ATOM     26  H   UNL     1      -0.531  -1.331  12.074  0.00  0.00    +0.149 HD
BRANCH  24  27
ATOM     27  C   UNL     1      -2.527  -1.331  13.757  0.00  0.00    +0.037 A 
ATOM     28  C   UNL     1      -1.317  -1.451  14.442  0.00  0.00    +0.014 A 
ATOM     29  C   UNL     1      -1.309  -1.552  15.816  0.00  0.00    +0.012 A 
ATOM     30  C   UNL     1      -2.514  -1.536  16.524  0.00  0.00    +0.017 A 
ATOM     31  C   UNL     1      -3.726  -1.416  15.837  0.00  0.00    +0.012 A 
ATOM     32  C   UNL     1      -3.731  -1.309  14.463  0.00  0.00    +0.014 A 
BRANCH  30  33
ATOM     33  C   UNL     1      -2.508  -1.645  17.994  0.00  0.00    +0.160 C 
ATOM     34  O   UNL     1      -1.467  -1.849  18.582  0.00  0.00    -0.292 OA
ATOM     35  C   UNL     1      -3.794  -1.502  18.766  0.00  0.00    +0.091 C 
ENDBRANCH  30  33
ENDBRANCH  24  27
ENDBRANCH  22  23
ENDBRANCH  21  22
ENDBRANCH   9  21
TORSDOF 8
