REMARK  Name = ZINC13181694
REMARK  7 active torsions:
REMARK  status: ('A' for Active; 'I' for Inactive)
REMARK    1  A    between atoms: C_1  and  C_2
REMARK    2  A    between atoms: C_5  and  C_8
REMARK    3  A    between atoms: C_8  and  C_10
REMARK    4  A    between atoms: C_8  and  N_13
REMARK    5  A    between atoms: C_10  and  C_11
REMARK    6  A    between atoms: C_14  and  C_16
REMARK    7  A    between atoms: C_19  and  C_21
REMARK                            x       y       z     vdW  Elec       q    Type
REMARK                         _______ _______ _______ _____ _____    ______ ____
ROOT
ATOM      1  N   UNL     1      -3.353   1.764   0.939  0.00  0.00    -0.301 N 
ATOM      2  C   UNL     1      -3.389   1.459   2.252  0.00  0.00    +0.280 C 
ATOM      3  O   UNL     1      -2.660   0.591   2.695  0.00  0.00    -0.267 OA
ATOM      4  H   UNL     1      -3.881   2.503   0.598  0.00  0.00    +0.150 HD
ENDROOT
BRANCH   2   5
ATOM      5  C   UNL     1      -4.305   2.173   3.145  0.00  0.00    +0.190 A 
ATOM      6  C   UNL     1      -4.446   1.958   4.498  0.00  0.00    +0.055 A 
ATOM      7  C   UNL     1      -5.420   2.854   4.950  0.00  0.00    +0.051 A 
ATOM      8  C   UNL     1      -5.840   3.570   3.865  0.00  0.00    +0.137 A 
ATOM      9  O   UNL     1      -5.162   3.151   2.784  0.00  0.00    -0.450 OA
BRANCH   8  10
ATOM     10  C   UNL     1      -6.869   4.629   3.879  0.00  0.00    +0.037 A 
ATOM     11  C   UNL     1      -6.610   5.867   3.286  0.00  0.00    +0.033 A 
ATOM     12  C   UNL     1      -7.577   6.852   3.302  0.00  0.00    +0.042 A 
ATOM     13  C   UNL     1      -8.801   6.616   3.905  0.00  0.00    +0.021 A 
ATOM     14  C   UNL     1      -9.065   5.392   4.494  0.00  0.00    +0.022 A 
ATOM     15  C   UNL     1      -8.109   4.396   4.480  0.00  0.00    +0.052 A 
ATOM     16 CL   UNL     1      -8.444   2.858   5.214  0.00  0.00    -0.083 Cl
ATOM     17 CL   UNL     1      -7.256   8.391   2.566  0.00  0.00    -0.084 Cl
ENDBRANCH   8  10
ENDBRANCH   2   5
BRANCH   1  18
ATOM     18  C   UNL     1      -2.515   0.981   0.028  0.00  0.00    +0.114 C 
BRANCH  18  23
ATOM     19  C   UNL     1       2.791   3.260  -0.165  0.00  0.00    +0.044 C 
ATOM     20  C   UNL     1       1.408   2.665  -0.112  0.00  0.00    -0.050 A 
ATOM     21  C   UNL     1       1.245   1.292  -0.100  0.00  0.00    +0.004 A 
ATOM     22  C   UNL     1      -0.025   0.747  -0.051  0.00  0.00    +0.006 A 
ATOM     23  C   UNL     1      -1.131   1.575  -0.019  0.00  0.00    -0.027 A 
ATOM     24  C   UNL     1      -0.968   2.948  -0.025  0.00  0.00    +0.006 A 
ATOM     25  C   UNL     1       0.301   3.493  -0.074  0.00  0.00    +0.004 A 
ENDBRANCH  18  23
BRANCH  18  26
ATOM     26  C   UNL     1      -3.128   1.003  -1.374  0.00  0.00    +0.152 C 
BRANCH  26  27
ATOM     27  C   UNL     1      -4.453   0.286  -1.355  0.00  0.00    +0.358 C 
ATOM     28  O   UNL     1      -4.819  -0.281  -0.352  0.00  0.00    -0.246 OA
ATOM     29  O   UNL     1      -5.227   0.276  -2.452  0.00  0.00    -0.246 OA
ENDBRANCH  26  27
ENDBRANCH  18  26
ENDBRANCH   1  18
TORSDOF 6
