REMARK  Name = ZINC39661165
REMARK  6 active torsions:
REMARK  status: ('A' for Active; 'I' for Inactive)
REMARK    1  A    between atoms: C_1  and  C_2
REMARK    2  A    between atoms: C_2  and  C_4
REMARK    3  A    between atoms: C_2  and  O_27
REMARK    4  A    between atoms: C_8  and  C_17
REMARK    5  A    between atoms: N_19  and  C_20
REMARK    6  A    between atoms: O_27  and  C_28
REMARK                            x       y       z     vdW  Elec       q    Type
REMARK                         _______ _______ _______ _____ _____    ______ ____
ROOT
ATOM      1  C   UNL     1       0.741  -0.380   1.129  0.00  0.00    +0.256 C 
ATOM      2  O   UNL     1       1.863  -0.793   0.926  0.00  0.00    -0.272 OA
ATOM      3  N   UNL     1       0.347  -0.086   2.384  0.00  0.00    -0.297 N 
ATOM      4  C   UNL     1      -0.973   0.420   2.827  0.00  0.00    +0.121 C 
ATOM      5  C   UNL     1      -1.252  -0.325   4.152  0.00  0.00    +0.100 C 
ATOM      6  C   UNL     1       0.137  -0.725   4.677  0.00  0.00    -0.004 C 
ATOM      7  C   UNL     1       1.136  -0.203   3.634  0.00  0.00    +0.115 C 
ATOM      8  C   UNL     1       0.243  -2.243   4.786  0.00  0.00    -0.010 C 
ATOM      9  C   UNL     1       1.612  -2.613   5.364  0.00  0.00    -0.082 C 
ATOM     10  N   UNL     1       1.771  -1.995   6.686  0.00  0.00    +0.379 N 
ATOM     11  C   UNL     1       1.760  -0.533   6.559  0.00  0.00    -0.082 C 
ATOM     12  C   UNL     1       0.398  -0.074   6.032  0.00  0.00    -0.010 C 
ATOM     13  H   UNL     1       1.013  -2.285   7.285  0.00  0.00    -0.086 HD
ATOM     14  H   UNL     1       2.647  -2.290   7.090  0.00  0.00    -0.086 HD
ENDROOT
BRANCH   5  15
ATOM     15  C   UNL     1      -1.943   0.589   5.131  0.00  0.00    +0.219 C 
ATOM     16  O   UNL     1      -1.725   1.782   5.106  0.00  0.00    -0.275 OA
ATOM     17  N   UNL     1      -2.802   0.080   6.036  0.00  0.00    -0.304 N 
ATOM     18  H   UNL     1      -2.976  -0.874   6.057  0.00  0.00    +0.149 HD
BRANCH  17  19
ATOM     19  C   UNL     1      -3.474   0.968   6.989  0.00  0.00    +0.151 C 
ATOM     20  C   UNL     1      -3.817   0.175   8.251  0.00  0.00    +0.042 C 
ATOM     21  C   UNL     1      -4.983   0.902   8.961  0.00  0.00    +0.079 C 
ATOM     22  S   UNL     1      -5.857   1.675   7.546  0.00  0.00    -0.086 S 
ATOM     23  C   UNL     1      -4.705   1.549   6.335  0.00  0.00    +0.209 C 
ATOM     24  O   UNL     1      -4.835   1.862   5.170  0.00  0.00    -0.283 OA
ENDBRANCH  17  19
ENDBRANCH   5  15
BRANCH   1  26
ATOM     25  C   UNL     1      -0.539   1.293  -0.180  0.00  0.00    +0.062 C 
ATOM     26  C   UNL     1      -0.213  -0.193  -0.023  0.00  0.00    +0.256 C 
BRANCH  26  27
ATOM     27  O   UNL     1       0.390  -0.678  -1.225  0.00  0.00    -0.480 OA
BRANCH  27  28
ATOM     28  C   UNL     1      -0.447  -1.076  -2.218  0.00  0.00    +0.122 A 
ATOM     29  C   UNL     1       0.066  -1.663  -3.366  0.00  0.00    +0.045 A 
ATOM     30  C   UNL     1      -0.787  -2.067  -4.374  0.00  0.00    +0.004 A 
ATOM     31  C   UNL     1      -2.151  -1.887  -4.241  0.00  0.00    +0.000 A 
ATOM     32  C   UNL     1      -2.665  -1.302  -3.098  0.00  0.00    +0.004 A 
ATOM     33  C   UNL     1      -1.817  -0.902  -2.084  0.00  0.00    +0.045 A 
ENDBRANCH  27  28
ENDBRANCH  26  27
ENDBRANCH   1  26
TORSDOF 5
