REMARK  Name = ZINC40178575
REMARK  10 active torsions:
REMARK  status: ('A' for Active; 'I' for Inactive)
REMARK    1  A    between atoms: C_1  and  N_2
REMARK    2  A    between atoms: N_2  and  C_3
REMARK    3  A    between atoms: N_2  and  C_4
REMARK    4  A    between atoms: C_4  and  C_5
REMARK    5  A    between atoms: C_5  and  N_6
REMARK    6  A    between atoms: N_6  and  C_7
REMARK    7  A    between atoms: C_8  and  S_21
REMARK    8  A    between atoms: C_10  and  C_12
REMARK    9  A    between atoms: C_17  and  N_18
REMARK   10  A    between atoms: S_21  and  C_24
REMARK                            x       y       z     vdW  Elec       q    Type
REMARK                         _______ _______ _______ _____ _____    ______ ____
ROOT
ATOM      1  C   UNL     1       4.156  -0.719  -1.657  0.00  0.00    +0.233 A 
ATOM      2  C   UNL     1       4.577  -0.623  -3.088  0.00  0.00    +0.243 A 
ATOM      3  N   UNL     1       5.721   0.001  -3.091  0.00  0.00    -0.188 NA
ATOM      4  C   UNL     1       6.070   0.311  -1.821  0.00  0.00    +0.234 A 
ATOM      5  O   UNL     1       5.133  -0.114  -0.952  0.00  0.00    -0.420 OA
ENDROOT
BRANCH   4   6
ATOM      6  C   UNL     1       7.253   0.991  -1.456  0.00  0.00    +0.067 A 
ATOM      7  C   UNL     1       8.475   0.290  -1.356  0.00  0.00    +0.015 A 
ATOM      8  C   UNL     1       9.611   0.959  -1.003  0.00  0.00    +0.001 A 
ATOM      9  C   UNL     1       9.569   2.322  -0.743  0.00  0.00    +0.002 A 
ATOM     10  C   UNL     1       8.373   3.023  -0.838  0.00  0.00    +0.033 A 
ATOM     11  C   UNL     1       7.224   2.378  -1.195  0.00  0.00    +0.138 A 
BRANCH  11  12
ATOM     12  N   UNL     1       5.952   3.129  -1.302  0.00  0.00    +0.057 N 
ATOM     13  O   UNL     1       5.904   4.397  -0.947  0.00  0.00    -0.126 OA
ATOM     14  O   UNL     1       4.869   2.530  -1.752  0.00  0.00    -0.126 OA
ENDBRANCH  11  12
ENDBRANCH   4   6
BRANCH   2  15
ATOM     15  S   UNL     1       3.702  -1.233  -4.490  0.00  0.00    +0.047 S 
ATOM     16  O   UNL     1       4.666  -1.432  -5.515  0.00  0.00    -0.163 OA
ATOM     17  O   UNL     1       2.862  -2.279  -4.021  0.00  0.00    -0.163 OA
BRANCH  15  18
ATOM     18  C   UNL     1       2.639   0.058  -5.043  0.00  0.00    +0.099 A 
ATOM     19  C   UNL     1       1.356   0.160  -4.537  0.00  0.00    +0.031 A 
ATOM     20  C   UNL     1       0.519   1.171  -4.969  0.00  0.00    +0.051 A 
ATOM     21  C   UNL     1       0.963   2.087  -5.911  0.00  0.00    +0.162 A 
ATOM     22  C   UNL     1       2.253   1.986  -6.418  0.00  0.00    +0.164 A 
ATOM     23  C   UNL     1       3.090   0.971  -5.978  0.00  0.00    +0.076 A 
ATOM     24  O   UNL     1       2.712   2.878  -7.338  0.00  0.00    -0.485 OA
ATOM     25  C   UNL     1       1.728   3.657  -8.025  0.00  0.00    +0.270 C 
ATOM     26  C   UNL     1       0.729   4.193  -6.990  0.00  0.00    +0.270 C 
ATOM     27  O   UNL     1       0.126   3.075  -6.330  0.00  0.00    -0.485 OA
ENDBRANCH  15  18
ENDBRANCH   2  15
BRANCH   1  28
ATOM     28  N   UNL     1       3.050  -1.277  -1.182  0.00  0.00    -0.314 N 
ATOM     29  H   UNL     1       2.414  -1.686  -1.788  0.00  0.00    +0.149 HD
BRANCH  28  30
ATOM     30  C   UNL     1       2.791  -1.276   0.260  0.00  0.00    +0.086 C 
BRANCH  30  31
ATOM     31  C   UNL     1       1.460  -1.977   0.540  0.00  0.00    -0.061 C 
BRANCH  31  33
ATOM     32  C   UNL     1       1.017  -0.595   2.449  0.00  0.00    -0.097 C 
ATOM     33  N   UNL     1       1.201  -1.976   1.986  0.00  0.00    +0.377 N 
ATOM     34  C   UNL     1      -0.015  -2.752   2.265  0.00  0.00    -0.097 C 
ATOM     35  H   UNL     1       1.983  -2.392   2.468  0.00  0.00    -0.083 HD
ENDBRANCH  31  33
ENDBRANCH  30  31
ENDBRANCH  28  30
ENDBRANCH   1  28
TORSDOF 8
