REMARK  Name = ZINC02057392
REMARK  11 active torsions:
REMARK  status: ('A' for Active; 'I' for Inactive)
REMARK    1  A    between atoms: C_1  and  C_2
REMARK    2  A    between atoms: C_5  and  C_11
REMARK    3  A    between atoms: C_7  and  N_8
REMARK    4  A    between atoms: C_14  and  C_16
REMARK    5  A    between atoms: N_17  and  N_18
REMARK    6  A    between atoms: C_19  and  C_21
REMARK    7  A    between atoms: C_21  and  C_23
REMARK    8  A    between atoms: C_21  and  N_26
REMARK    9  A    between atoms: C_23  and  C_24
REMARK   10  A    between atoms: C_23  and  C_25
REMARK   11  A    between atoms: C_27  and  C_29
REMARK                            x       y       z     vdW  Elec       q    Type
REMARK                         _______ _______ _______ _____ _____    ______ ____
ROOT
ATOM      1  N   UNL     1      -0.335   0.119  -2.776  0.00  0.00    -0.205 N 
ATOM      2  C   UNL     1      -0.273   1.452  -2.580  0.00  0.00    +0.253 C 
ATOM      3  O   UNL     1       0.300   2.153  -3.380  0.00  0.00    -0.272 OA
ATOM      4  H   UNL     1      -0.731  -0.452  -2.099  0.00  0.00    +0.177 HD
ENDROOT
BRANCH   1   6
ATOM      5  C   UNL     1       0.070  -1.707  -4.056  0.00  0.00    +0.176 C 
ATOM      6  N   UNL     1       0.131  -0.395  -3.863  0.00  0.00    -0.185 NA
BRANCH   5  10
ATOM      7  C   UNL     1       1.508  -2.460  -7.205  0.00  0.00    +0.136 A 
ATOM      8  C   UNL     1       1.159  -3.775  -6.805  0.00  0.00    +0.050 A 
ATOM      9  C   UNL     1       0.576  -3.689  -5.582  0.00  0.00    +0.051 A 
ATOM     10  C   UNL     1       0.571  -2.261  -5.226  0.00  0.00    +0.148 A 
ATOM     11  O   UNL     1       1.141  -1.589  -6.250  0.00  0.00    -0.454 OA
BRANCH   7  16
ATOM     12  C   UNL     1       4.045  -1.084 -12.107  0.00  0.00    +0.046 C 
ATOM     13  C   UNL     1       3.372  -1.449 -10.808  0.00  0.00    -0.020 A 
ATOM     14  C   UNL     1       3.083  -2.777 -10.532  0.00  0.00    +0.006 A 
ATOM     15  C   UNL     1       2.474  -3.119  -9.358  0.00  0.00    +0.012 A 
ATOM     16  C   UNL     1       2.140  -2.118  -8.426  0.00  0.00    +0.019 A 
ATOM     17  C   UNL     1       2.434  -0.772  -8.719  0.00  0.00    +0.044 A 
ATOM     18  C   UNL     1       3.048  -0.454  -9.898  0.00  0.00    +0.130 A 
BRANCH  18  19
ATOM     19  N   UNL     1       3.364   0.959 -10.206  0.00  0.00    +0.057 N 
ATOM     20  O   UNL     1       3.754   1.772  -9.246  0.00  0.00    -0.126 OA
ATOM     21  O   UNL     1       3.255   1.404 -11.441  0.00  0.00    -0.126 OA
ENDBRANCH  18  19
ENDBRANCH   7  16
ENDBRANCH   5  10
ENDBRANCH   1   6
BRANCH   2  22
ATOM     22  C   UNL     1      -0.919   2.066  -1.365  0.00  0.00    +0.163 C 
BRANCH  22  23
ATOM     23  N   UNL     1      -1.169   3.488  -1.611  0.00  0.00    -0.300 N 
ATOM     24  C   UNL     1      -2.147   4.126  -0.938  0.00  0.00    +0.245 C 
ATOM     25  O   UNL     1      -2.821   3.522  -0.126  0.00  0.00    -0.270 OA
ATOM     26  H   UNL     1      -0.632   3.970  -2.259  0.00  0.00    +0.150 HD
BRANCH  24  27
ATOM     27  C   UNL     1      -2.400   5.559  -1.186  0.00  0.00    +0.040 A 
ATOM     28  C   UNL     1      -1.623   6.257  -2.115  0.00  0.00    +0.017 A 
ATOM     29  C   UNL     1      -1.864   7.593  -2.349  0.00  0.00    +0.050 A 
ATOM     30  C   UNL     1      -2.870   8.253  -1.657  0.00  0.00    +0.166 A 
ATOM     31  C   UNL     1      -3.646   7.564  -0.724  0.00  0.00    +0.167 A 
ATOM     32  C   UNL     1      -3.413   6.223  -0.489  0.00  0.00    +0.062 A 
ATOM     33  O   UNL     1      -4.555   8.430  -0.188  0.00  0.00    -0.453 OA
ATOM     34  C   UNL     1      -4.060   9.746  -0.500  0.00  0.00    +0.466 C 
ATOM     35  O   UNL     1      -3.295   9.548  -1.703  0.00  0.00    -0.453 OA
ENDBRANCH  24  27
ENDBRANCH  22  23
BRANCH  22  36
ATOM     36  C   UNL     1       0.013   1.913  -0.161  0.00  0.00    +0.012 C 
ATOM     37  C   UNL     1       1.283   2.735  -0.391  0.00  0.00    +0.009 C 
ATOM     38  C   UNL     1      -0.697   2.413   1.099  0.00  0.00    +0.009 C 
ENDBRANCH  22  36
ENDBRANCH   2  22
TORSDOF 8
