REMARK  Name = ZINC38519953
REMARK  3 active torsions:
REMARK  status: ('A' for Active; 'I' for Inactive)
REMARK    1  A    between atoms: C_1  and  N_2
REMARK    2  A    between atoms: C_8  and  C_10
REMARK    3  A    between atoms: C_17  and  C_23
REMARK                            x       y       z     vdW  Elec       q    Type
REMARK                         _______ _______ _______ _____ _____    ______ ____
ROOT
ATOM      1  C   UNL     1      -0.018   1.461   0.010  0.00  0.00    +0.174 C 
ATOM      2  N   UNL     1       0.002  -0.004   0.002  0.00  0.00    -0.251 N 
ATOM      3  C   UNL     1       0.008  -0.791  -1.090  0.00  0.00    +0.129 A 
ATOM      4  C   UNL     1       0.041  -2.092  -0.665  0.00  0.00    +0.045 A 
ATOM      5  C   UNL     1       0.041  -2.089   0.727  0.00  0.00    +0.153 A 
ATOM      6  N   UNL     1       0.025  -0.837   1.132  0.00  0.00    -0.154 NA
ATOM      7  N   UNL     1       0.063  -3.221   1.551  0.00  0.00    -0.265 N 
ATOM      8  C   UNL     1       0.061  -3.078   2.892  0.00  0.00    +0.250 C 
ATOM      9  O   UNL     1       0.041  -1.967   3.385  0.00  0.00    -0.270 OA
ATOM     10  C   UNL     1       0.078  -3.254  -1.626  0.00  0.00    +0.100 C 
ATOM     11  C   UNL     1      -0.624  -2.831  -2.920  0.00  0.00    +0.112 C 
ATOM     12  C   UNL     1      -0.204  -1.450  -3.340  0.00  0.00    +0.219 C 
ATOM     13  O   UNL     1      -0.044  -1.218  -4.520  0.00  0.00    -0.275 OA
ATOM     14  N   UNL     1       0.001  -0.461  -2.445  0.00  0.00    -0.270 N 
ATOM     15  H   UNL     1       0.079  -4.108   1.158  0.00  0.00    +0.157 HD
ATOM     16  H   UNL     1       0.140   0.454  -2.736  0.00  0.00    +0.156 HD
ENDROOT
BRANCH   8  17
ATOM     17  C   UNL     1       0.084  -4.272   3.762  0.00  0.00    +0.050 A 
ATOM     18  C   UNL     1       0.113  -5.550   3.199  0.00  0.00    +0.014 A 
ATOM     19  C   UNL     1       0.134  -6.660   4.017  0.00  0.00    +0.001 A 
ATOM     20  C   UNL     1       0.127  -6.511   5.393  0.00  0.00    +0.001 A 
ATOM     21  C   UNL     1       0.097  -5.248   5.958  0.00  0.00    +0.015 A 
ATOM     22  C   UNL     1       0.082  -4.128   5.151  0.00  0.00    +0.025 A 
ATOM     23  I   UNL     1       0.046  -2.217   6.008  0.00  0.00    -0.043 I 
ENDBRANCH   8  17
BRANCH  10  24
ATOM     24  C   UNL     1      -0.638  -4.435  -1.022  0.00  0.00    +0.113 A 
ATOM     25  C   UNL     1      -0.092  -5.637  -0.763  0.00  0.00    +0.045 A 
ATOM     26  C   UNL     1      -1.114  -6.439  -0.204  0.00  0.00    +0.041 A 
ATOM     27  C   UNL     1      -2.222  -5.679  -0.155  0.00  0.00    +0.195 A 
ATOM     28  O   UNL     1      -1.927  -4.464  -0.646  0.00  0.00    -0.467 OA
ENDBRANCH  10  24
TORSDOF 2
