REMARK  Name = ZINC09206462
REMARK  9 active torsions:
REMARK  status: ('A' for Active; 'I' for Inactive)
REMARK    1  A    between atoms: C_1  and  C_2
REMARK    2  A    between atoms: C_4  and  C_17
REMARK    3  A    between atoms: C_5  and  C_16
REMARK    4  A    between atoms: N_6  and  C_7
REMARK    5  A    between atoms: C_17  and  C_19
REMARK    6  A    between atoms: C_19  and  N_61
REMARK    7  A    between atoms: C_20  and  N_61
REMARK    8  A    between atoms: C_21  and  C_22
REMARK    9  A    between atoms: C_21  and  N_61
REMARK                            x       y       z     vdW  Elec       q    Type
REMARK                         _______ _______ _______ _____ _____    ______ ____
ROOT
ATOM      1  C   UNL     1       3.033   7.695  -0.462  0.00  0.00    +0.149 C 
ATOM      2  O   UNL     1       1.875   8.059  -0.423  0.00  0.00    -0.294 OA
ENDROOT
BRANCH   1   6
ATOM      3  C   UNL     1       7.611   9.789  -1.246  0.00  0.00    +0.064 C 
ATOM      4  C   UNL     1       6.129   9.574  -1.075  0.00  0.00    +0.022 A 
ATOM      5  C   UNL     1       5.538   8.396  -0.813  0.00  0.00    +0.034 A 
ATOM      6  C   UNL     1       4.096   8.665  -0.730  0.00  0.00    +0.037 A 
ATOM      7  C   UNL     1       3.949  10.019  -0.963  0.00  0.00    +0.031 A 
ATOM      8  N   UNL     1       5.173  10.547  -1.161  0.00  0.00    -0.317 N 
ATOM      9  C   UNL     1       2.646  10.776  -0.988  0.00  0.00    +0.064 C 
BRANCH   8  10
ATOM     10  C   UNL     1       5.428  11.899  -1.424  0.00  0.00    +0.047 A 
ATOM     11  C   UNL     1       5.149  12.861  -0.463  0.00  0.00    +0.026 A 
ATOM     12  C   UNL     1       5.407  14.191  -0.725  0.00  0.00    +0.006 A 
ATOM     13  C   UNL     1       5.933  14.572  -1.949  0.00  0.00    -0.044 A 
ATOM     14  C   UNL     1       6.207  13.617  -2.910  0.00  0.00    -0.042 A 
ATOM     15  C   UNL     1       5.955  12.282  -2.649  0.00  0.00    +0.030 A 
ATOM     16  C   UNL     1       6.771  14.284  -4.147  0.00  0.00    +0.036 C 
ATOM     17  C   UNL     1       6.405  15.776  -4.004  0.00  0.00    +0.009 C 
ATOM     18  C   UNL     1       6.294  15.945  -2.474  0.00  0.00    +0.036 C 
ENDBRANCH   8  10
ENDBRANCH   1   6
BRANCH   1  19
ATOM     19  C   UNL     1       3.374   6.245  -0.236  0.00  0.00    +0.002 C 
BRANCH  19  21
ATOM     20  C   UNL     1       1.512   5.896   1.272  0.00  0.00    -0.095 C 
ATOM     21  N   UNL     1       2.124   5.490  -0.011  0.00  0.00    +0.387 N 
ATOM     22  H   UNL     1       1.468   5.696  -0.774  0.00  0.00    -0.081 HD
BRANCH  21  23
ATOM     23  C   UNL     1       2.405   4.039   0.000  0.00  0.00    -0.003 C 
BRANCH  23  24
ATOM     24  C   UNL     1       1.097   3.290   0.009  0.00  0.00    +0.094 A 
ATOM     25  N   UNL     1       1.132   1.932   0.002  0.00  0.00    -0.312 N 
ATOM     26  H   UNL     1       1.987   1.473  -0.009  0.00  0.00    +0.170 HD
ATOM     27  C   UNL     1      -0.014   1.213   0.009  0.00  0.00    +0.259 A 
ATOM     28  O   UNL     1       0.002  -0.004   0.002  0.00  0.00    -0.267 OA
ATOM     29  C   UNL     1      -1.281   1.960   0.019  0.00  0.00    +0.065 A 
ATOM     30  C   UNL     1      -2.517   1.315   0.033  0.00  0.00    +0.015 A 
ATOM     31  C   UNL     1      -3.673   2.064   0.048  0.00  0.00    +0.001 A 
ATOM     32  C   UNL     1      -3.615   3.452   0.055  0.00  0.00    +0.002 A 
ATOM     33  C   UNL     1      -2.405   4.108   0.047  0.00  0.00    +0.028 A 
ATOM     34  C   UNL     1      -1.219   3.371   0.032  0.00  0.00    +0.078 A 
ATOM     35  N   UNL     1      -0.005   3.976   0.023  0.00  0.00    -0.236 NA
ENDBRANCH  23  24
ENDBRANCH  21  23
ENDBRANCH  19  21
ENDBRANCH   1  19
TORSDOF 6
