REMARK  Name = ZINC22572362
REMARK  9 active torsions:
REMARK  status: ('A' for Active; 'I' for Inactive)
REMARK    1  A    between atoms: C_1  and  C_2
REMARK    2  A    between atoms: C_5  and  N_9
REMARK    3  A    between atoms: C_6  and  C_8
REMARK    4  A    between atoms: C_18  and  S_19
REMARK    5  A    between atoms: S_19  and  C_20
REMARK    6  A    between atoms: C_20  and  C_22
REMARK    7  A    between atoms: C_20  and  C_25
REMARK    8  A    between atoms: C_22  and  C_23
REMARK    9  A    between atoms: C_22  and  C_24
REMARK                            x       y       z     vdW  Elec       q    Type
REMARK                         _______ _______ _______ _____ _____    ______ ____
ROOT
ATOM      1  N   UNL     1      -0.924  -0.746   0.168  0.00  0.00    -0.255 N 
ATOM      2  C   UNL     1      -0.959  -2.087   0.060  0.00  0.00    +0.268 A 
ATOM      3  O   UNL     1      -2.006  -2.693   0.212  0.00  0.00    -0.267 OA
ATOM      4  C   UNL     1       0.252  -2.790  -0.228  0.00  0.00    +0.076 A 
ATOM      5  C   UNL     1       0.442  -4.242  -0.380  0.00  0.00    -0.023 A 
ATOM      6  C   UNL     1       1.685  -4.667  -0.655  0.00  0.00    -0.004 A 
ATOM      7  S   UNL     1       2.672  -3.189  -0.726  0.00  0.00    -0.073 S 
ATOM      8  C   UNL     1       1.401  -2.001  -0.385  0.00  0.00    +0.117 A 
ATOM      9  N   UNL     1       1.369  -0.677  -0.272  0.00  0.00    -0.215 NA
ATOM     10  C   UNL     1       0.240  -0.051  -0.005  0.00  0.00    +0.178 A 
ATOM     11  C   UNL     1       1.758  -6.164  -0.793  0.00  0.00    +0.043 C 
ATOM     12  C   UNL     1       0.291  -6.606  -0.994  0.00  0.00    +0.010 C 
ATOM     13  C   UNL     1      -0.477  -5.465  -0.299  0.00  0.00    +0.037 C 
ENDROOT
BRANCH   1  18
ATOM     14  C   UNL     1      -5.705   2.081   1.334  0.00  0.00    +0.044 C 
ATOM     15  C   UNL     1      -4.436   1.330   1.024  0.00  0.00    -0.050 A 
ATOM     16  C   UNL     1      -4.084   1.081  -0.290  0.00  0.00    +0.005 A 
ATOM     17  C   UNL     1      -2.922   0.394  -0.577  0.00  0.00    +0.027 A 
ATOM     18  C   UNL     1      -2.105  -0.048   0.456  0.00  0.00    +0.055 A 
ATOM     19  C   UNL     1      -2.463   0.199   1.774  0.00  0.00    -0.026 A 
ATOM     20  C   UNL     1      -3.624   0.892   2.055  0.00  0.00    +0.008 A 
ATOM     21  C   UNL     1      -1.583  -0.284   2.898  0.00  0.00    +0.046 C 
ENDBRANCH   1  18
BRANCH  10  22
ATOM     22  S   UNL     1       0.234   1.705   0.139  0.00  0.00    -0.074 S 
BRANCH  22  23
ATOM     23  C   UNL     1       2.001   2.043  -0.066  0.00  0.00    +0.143 C 
BRANCH  23  24
ATOM     24  C   UNL     1       2.412   1.727  -1.480  0.00  0.00    +0.234 C 
ATOM     25  O   UNL     1       1.590   1.758  -2.372  0.00  0.00    -0.274 OA
ATOM     26  N   UNL     1       3.693   1.411  -1.755  0.00  0.00    -0.239 N 
ATOM     27  C   UNL     1       4.061   1.128  -3.021  0.00  0.00    +0.303 C 
ATOM     28  O   UNL     1       3.237   1.159  -3.914  0.00  0.00    -0.253 OA
ATOM     29  N   UNL     1       5.342   0.812  -3.295  0.00  0.00    -0.313 N 
ATOM     30  H   UNL     1       4.438   1.383  -0.947  0.00  0.00    +0.159 HD
ATOM     31  H   UNL     1       5.642   0.581  -4.328  0.00  0.00    +0.146 HD
ATOM     32  H   UNL     1       6.087   0.784  -2.487  0.00  0.00    +0.146 HD
ENDBRANCH  23  24
BRANCH  23  33
ATOM     33  C   UNL     1       2.274   3.520   0.228  0.00  0.00    +0.005 C 
ATOM     34  C   UNL     1       1.855   3.841   1.663  0.00  0.00    +0.009 C 
ATOM     35  C   UNL     1       3.768   3.805   0.056  0.00  0.00    +0.009 C 
ENDBRANCH  23  33
ENDBRANCH  22  23
ENDBRANCH  10  22
TORSDOF 5
