REMARK  Name = ZINC50699315
REMARK  7 active torsions:
REMARK  status: ('A' for Active; 'I' for Inactive)
REMARK    1  A    between atoms: C_1  and  C_2
REMARK    2  A    between atoms: C_8  and  N_10
REMARK    3  A    between atoms: C_11  and  C_13
REMARK    4  A    between atoms: C_14  and  N_22
REMARK    5  A    between atoms: C_17  and  C_19
REMARK    6  A    between atoms: C_19  and  C_20
REMARK    7  A    between atoms: C_19  and  C_21
REMARK                            x       y       z     vdW  Elec       q    Type
REMARK                         _______ _______ _______ _____ _____    ______ ____
ROOT
ATOM      1  C   UNL     1       4.181   0.646   2.378  0.00  0.00    +0.149 A 
ATOM      2  C   UNL     1       4.866   0.881   3.580  0.00  0.00    +0.074 A 
ATOM      3  C   UNL     1       6.177   1.358   3.508  0.00  0.00    +0.137 A 
ATOM      4  N   UNL     1       6.718   1.568   2.322  0.00  0.00    -0.238 NA
ATOM      5  C   UNL     1       6.042   1.335   1.213  0.00  0.00    +0.132 A 
ATOM      6  N   UNL     1       4.809   0.881   1.227  0.00  0.00    -0.225 NA
ENDROOT
BRANCH   1   8
ATOM      7  N   UNL     1       2.107   0.024   1.233  0.00  0.00    -0.307 N 
ATOM      8  C   UNL     1       2.791   0.140   2.388  0.00  0.00    +0.265 C 
ATOM      9  O   UNL     1       2.265  -0.170   3.439  0.00  0.00    -0.268 OA
ATOM     10  H   UNL     1       2.526   0.272   0.394  0.00  0.00    +0.149 HD
BRANCH   7  17
ATOM     11  C   UNL     1      -0.026   1.576   0.036  0.00  0.00    +0.009 C 
ATOM     12  C   UNL     1      -0.012   0.046   0.012  0.00  0.00    +0.006 C 
ATOM     13  C   UNL     1      -1.450  -0.477   0.023  0.00  0.00    +0.005 C 
ATOM     14  C   UNL     1      -1.437  -2.006  -0.002  0.00  0.00    +0.000 C 
ATOM     15  C   UNL     1      -0.694  -2.530   1.230  0.00  0.00    +0.002 C 
ATOM     16  C   UNL     1       0.744  -2.007   1.219  0.00  0.00    +0.022 C 
ATOM     17  C   UNL     1       0.730  -0.477   1.243  0.00  0.00    +0.076 C 
ENDBRANCH   7  17
ENDBRANCH   1   8
BRANCH   5  18
ATOM     18  C   UNL     1       6.709   1.593  -0.114  0.00  0.00    +0.051 C 
ATOM     19  C   UNL     1       7.106   3.067  -0.208  0.00  0.00    +0.015 C 
ATOM     20  C   UNL     1       7.960   0.720  -0.235  0.00  0.00    +0.015 C 
ENDBRANCH   5  18
BRANCH   2  21
ATOM     21  N   UNL     1       4.257   0.647   4.806  0.00  0.00    -0.355 N 
ATOM     22  H   UNL     1       3.375   0.244   4.841  0.00  0.00    +0.142 HD
ATOM     23  H   UNL     1       4.714   0.886   5.628  0.00  0.00    +0.142 HD
ENDBRANCH   2  21
TORSDOF 4
