REMARK  Name = ZINC39768488
REMARK  12 active torsions:
REMARK  status: ('A' for Active; 'I' for Inactive)
REMARK    1  A    between atoms: C_1  and  C_2
REMARK    2  A    between atoms: C_2  and  C_3
REMARK    3  A    between atoms: C_3  and  C_5
REMARK    4  A    between atoms: C_3  and  S_14
REMARK    5  A    between atoms: C_11  and  C_13
REMARK    6  A    between atoms: S_14  and  C_15
REMARK    7  A    between atoms: C_18  and  C_23
REMARK    8  A    between atoms: N_19  and  C_20
REMARK    9  A    between atoms: C_20  and  C_21
REMARK   10  A    between atoms: C_23  and  C_25
REMARK   11  A    between atoms: C_23  and  N_26
REMARK   12  A    between atoms: C_27  and  C_29
REMARK                            x       y       z     vdW  Elec       q    Type
REMARK                         _______ _______ _______ _____ _____    ______ ____
ROOT
ATOM      1  C   UNL     1       2.708   1.594   1.397  0.00  0.00    +0.193 A 
ATOM      2  N   UNL     1       1.694   2.403   1.600  0.00  0.00    -0.122 NA
ATOM      3  N   UNL     1       2.122   3.601   1.784  0.00  0.00    -0.132 NA
ATOM      4  C   UNL     1       3.423   3.628   1.710  0.00  0.00    +0.155 A 
ATOM      5  N   UNL     1       3.843   2.350   1.467  0.00  0.00    -0.301 N 
ENDROOT
BRANCH   4   6
ATOM      6  C   UNL     1       4.301   4.842   1.869  0.00  0.00    +0.138 C 
ATOM      7  C   UNL     1       4.213   5.705   0.609  0.00  0.00    +0.036 C 
BRANCH   6   8
ATOM      8  N   UNL     1       3.853   5.621   3.026  0.00  0.00    -0.302 N 
ATOM      9  C   UNL     1       4.719   6.427   3.673  0.00  0.00    +0.245 C 
ATOM     10  O   UNL     1       5.872   6.507   3.296  0.00  0.00    -0.270 OA
ATOM     11  H   UNL     1       2.933   5.557   3.327  0.00  0.00    +0.150 HD
BRANCH   9  12
ATOM     12  C   UNL     1       4.266   7.212   4.840  0.00  0.00    +0.037 A 
ATOM     13  C   UNL     1       2.944   7.118   5.279  0.00  0.00    +0.014 A 
ATOM     14  C   UNL     1       2.528   7.853   6.369  0.00  0.00    +0.021 A 
ATOM     15  C   UNL     1       3.419   8.684   7.028  0.00  0.00    +0.041 A 
ATOM     16  C   UNL     1       4.732   8.782   6.597  0.00  0.00    +0.021 A 
ATOM     17  C   UNL     1       5.161   8.047   5.512  0.00  0.00    +0.014 A 
ATOM     18 CL   UNL     1       2.888   9.607   8.398  0.00  0.00    -0.084 Cl
ENDBRANCH   9  12
ENDBRANCH   6   8
ENDBRANCH   4   6
BRANCH   1  19
ATOM     19  S   UNL     1       2.621  -0.141   1.099  0.00  0.00    -0.073 S 
BRANCH  19  20
ATOM     20  C   UNL     1       0.860  -0.530   1.288  0.00  0.00    +0.140 C 
BRANCH  20  21
ATOM     21  C   UNL     1       0.454  -0.338   2.727  0.00  0.00    +0.232 C 
ATOM     22  O   UNL     1       1.297  -0.334   3.599  0.00  0.00    -0.274 OA
ATOM     23  N   UNL     1      -0.845  -0.171   3.044  0.00  0.00    -0.262 N 
ATOM     24  C   UNL     1      -1.220   0.006   4.372  0.00  0.00    +0.188 A 
ATOM     25  N   UNL     1      -0.463   0.046   5.451  0.00  0.00    -0.126 NA
ATOM     26  N   UNL     1      -0.952   0.216   6.603  0.00  0.00    -0.145 NA
ATOM     27  C   UNL     1      -2.256   0.357   6.732  0.00  0.00    +0.101 A 
ATOM     28  S   UNL     1      -2.759   0.233   5.021  0.00  0.00    -0.036 S 
ATOM     29  C   UNL     1      -3.088   0.569   7.971  0.00  0.00    +0.075 C 
ATOM     30  H   UNL     1      -1.519  -0.174   2.346  0.00  0.00    +0.157 HD
ENDBRANCH  20  21
BRANCH  20  32
ATOM     31  C   UNL     1       0.892  -2.146  -0.618  0.00  0.00    +0.005 C 
ATOM     32  C   UNL     1       0.612  -1.983   0.878  0.00  0.00    +0.020 C 
ENDBRANCH  20  32
ENDBRANCH  19  20
ENDBRANCH   1  19
BRANCH   5  33
ATOM     33  C   UNL     1       5.225   1.888   1.310  0.00  0.00    +0.152 C 
BRANCH  33  34
ATOM     34  C   UNL     1       5.622   1.974  -0.141  0.00  0.00    -0.013 C 
ATOM     35  C   UNL     1       6.690   2.648  -0.489  0.00  0.00    +0.005 C 
ENDBRANCH  33  34
ENDBRANCH   5  33
TORSDOF 9
