REMARK  Name = ZINC39847671
REMARK  17 active torsions:
REMARK  status: ('A' for Active; 'I' for Inactive)
REMARK    1  A    between atoms: C_1  and  C_2
REMARK    2  A    between atoms: C_2  and  N_3
REMARK    3  A    between atoms: N_3  and  C_4
REMARK    4  A    between atoms: N_3  and  C_6
REMARK    5  A    between atoms: C_4  and  C_5
REMARK    6  A    between atoms: C_6  and  C_7
REMARK    7  A    between atoms: C_7  and  C_8
REMARK    8  A    between atoms: C_8  and  N_9
REMARK    9  A    between atoms: C_10  and  C_31
REMARK   10  A    between atoms: C_12  and  C_17
REMARK   11  A    between atoms: C_17  and  C_19
REMARK   12  A    between atoms: C_24  and  O_29
REMARK   13  A    between atoms: O_29  and  C_30
REMARK   14  A    between atoms: C_34  and  O_39
REMARK   15  A    between atoms: C_35  and  O_37
REMARK   16  A    between atoms: O_37  and  C_38
REMARK   17  A    between atoms: O_39  and  C_40
REMARK                            x       y       z     vdW  Elec       q    Type
REMARK                         _______ _______ _______ _____ _____    ______ ____
ROOT
ATOM      1  N   UNL     1       2.933  -3.962   3.623  0.00  0.00    -0.284 N 
ATOM      2  C   UNL     1       4.382  -4.181   3.703  0.00  0.00    +0.145 C 
ATOM      3  C   UNL     1       4.637  -4.829   5.044  0.00  0.00    +0.076 C 
ATOM      4  C   UNL     1       3.434  -4.956   5.651  0.00  0.00    +0.249 C 
ATOM      5  C   UNL     1       2.384  -4.411   4.766  0.00  0.00    +0.288 C 
ATOM      6  O   UNL     1       1.198  -4.377   5.030  0.00  0.00    -0.266 OA
ATOM      7  O   UNL     1       3.227  -5.492   6.876  0.00  0.00    -0.282 OA
ENDROOT
BRANCH   2   8
ATOM      8  C   UNL     1       4.830  -5.095   2.591  0.00  0.00    -0.019 A 
ATOM      9  C   UNL     1       4.019  -6.139   2.188  0.00  0.00    +0.009 A 
ATOM     10  C   UNL     1       4.426  -6.980   1.169  0.00  0.00    +0.050 A 
ATOM     11  C   UNL     1       5.648  -6.777   0.549  0.00  0.00    +0.162 A 
ATOM     12  C   UNL     1       6.464  -5.725   0.954  0.00  0.00    +0.162 A 
ATOM     13  C   UNL     1       6.048  -4.883   1.973  0.00  0.00    +0.055 A 
BRANCH  12  14
ATOM     14  O   UNL     1       7.664  -5.521   0.348  0.00  0.00    -0.491 OA
ATOM     15  C   UNL     1       8.495  -4.490   0.885  0.00  0.00    +0.277 C 
ENDBRANCH  12  14
BRANCH  11  16
ATOM     16  O   UNL     1       6.049  -7.603  -0.454  0.00  0.00    -0.491 OA
ATOM     17  C   UNL     1       5.160  -8.662  -0.817  0.00  0.00    +0.277 C 
ENDBRANCH  11  16
ENDBRANCH   2   8
BRANCH   3  18
ATOM     18  C   UNL     1       5.937  -5.240   5.583  0.00  0.00    +0.195 C 
ATOM     19  O   UNL     1       6.174  -6.420   5.765  0.00  0.00    -0.287 OA
BRANCH  18  20
ATOM     20  C   UNL     1       6.958  -4.224   5.906  0.00  0.00    +0.023 A 
ATOM     21  C   UNL     1       6.636  -2.857   5.814  0.00  0.00    +0.012 A 
ATOM     22  C   UNL     1       7.557  -1.905   6.106  0.00  0.00    +0.009 A 
ATOM     23  C   UNL     1       8.855  -2.278   6.505  0.00  0.00    -0.014 A 
ATOM     24  C   UNL     1       9.822  -1.310   6.811  0.00  0.00    +0.054 A 
ATOM     25  C   UNL     1      11.083  -1.706   7.199  0.00  0.00    +0.121 A 
ATOM     26  C   UNL     1      11.408  -3.064   7.292  0.00  0.00    +0.046 A 
ATOM     27  C   UNL     1      10.490  -4.023   7.001  0.00  0.00    +0.012 A 
ATOM     28  C   UNL     1       9.193  -3.653   6.601  0.00  0.00    -0.017 A 
ATOM     29  C   UNL     1       8.226  -4.623   6.302  0.00  0.00    +0.020 A 
BRANCH  25  30
ATOM     30  O   UNL     1      12.020  -0.769   7.495  0.00  0.00    -0.495 OA
ATOM     31  C   UNL     1      13.309  -1.243   7.892  0.00  0.00    +0.277 C 
ENDBRANCH  25  30
ENDBRANCH  18  20
ENDBRANCH   3  18
BRANCH   1  32
ATOM     32  C   UNL     1       2.214  -3.355   2.501  0.00  0.00    +0.107 C 
BRANCH  32  33
ATOM     33  C   UNL     1       2.134  -1.841   2.705  0.00  0.00    +0.000 C 
BRANCH  33  34
ATOM     34  C   UNL     1       1.382  -1.207   1.533  0.00  0.00    -0.077 C 
BRANCH  34  35
ATOM     35  N   UNL     1       1.188   0.226   1.793  0.00  0.00    +0.379 N 
ATOM     36  H   UNL     1       0.723   0.346   2.680  0.00  0.00    -0.082 HD
BRANCH  35  38
ATOM     37  C   UNL     1       2.301   2.365   2.221  0.00  0.00    -0.017 C 
ATOM     38  C   UNL     1       2.493   0.898   1.827  0.00  0.00    -0.082 C 
ENDBRANCH  35  38
BRANCH  35  39
ATOM     39  C   UNL     1       0.364   0.810   0.726  0.00  0.00    -0.082 C 
ATOM     40  C   UNL     1      -1.047   0.221   0.791  0.00  0.00    -0.017 C 
ENDBRANCH  35  39
ENDBRANCH  34  35
ENDBRANCH  33  34
ENDBRANCH  32  33
ENDBRANCH   1  32
TORSDOF 12
