REMARK  Name = ZINC20374494
REMARK  7 active torsions:
REMARK  status: ('A' for Active; 'I' for Inactive)
REMARK    1  A    between atoms: C_1  and  C_2
REMARK    2  A    between atoms: C_2  and  C_3
REMARK    3  A    between atoms: C_3  and  C_5
REMARK    4  A    between atoms: C_3  and  S_8
REMARK    5  A    between atoms: S_8  and  C_9
REMARK    6  A    between atoms: C_14  and  C_20
REMARK    7  A    between atoms: C_15  and  C_19
REMARK                            x       y       z     vdW  Elec       q    Type
REMARK                         _______ _______ _______ _____ _____    ______ ____
ROOT
ATOM      1  C   UNL     1      -3.900  -0.616   1.373  0.00  0.00    +0.172 A 
ATOM      2  N   UNL     1      -4.254  -1.208   0.251  0.00  0.00    -0.185 NA
ATOM      3  C   UNL     1      -5.497  -1.644   0.033  0.00  0.00    +0.282 A 
ATOM      4  O   UNL     1      -5.784  -2.189  -1.021  0.00  0.00    -0.265 OA
ATOM      5  C   UNL     1      -6.526  -1.461   1.085  0.00  0.00    +0.075 A 
ATOM      6  C   UNL     1      -7.926  -1.844   1.086  0.00  0.00    -0.026 A 
ATOM      7  C   UNL     1      -8.678  -1.574   2.165  0.00  0.00    -0.008 A 
ATOM      8  S   UNL     1      -7.531  -0.772   3.271  0.00  0.00    -0.075 S 
ATOM      9  C   UNL     1      -6.084  -0.827   2.249  0.00  0.00    +0.092 A 
ATOM     10  N   UNL     1      -4.792  -0.419   2.385  0.00  0.00    -0.328 N 
ATOM     11  C   UNL     1     -10.138  -1.875   2.388  0.00  0.00    +0.052 C 
ATOM     12  C   UNL     1      -8.529  -2.536  -0.109  0.00  0.00    +0.045 C 
ATOM     13  H   UNL     1      -4.506   0.016   3.203  0.00  0.00    +0.168 HD
ENDROOT
BRANCH   1  14
ATOM     14  S   UNL     1      -2.236  -0.073   1.573  0.00  0.00    -0.073 S 
BRANCH  14  15
ATOM     15  C   UNL     1      -1.433  -0.534   0.013  0.00  0.00    +0.167 C 
BRANCH  15  16
ATOM     16  C   UNL     1      -1.416  -2.035  -0.119  0.00  0.00    +0.369 C 
ATOM     17  O   UNL     1      -1.459  -2.735   0.878  0.00  0.00    -0.245 OA
ATOM     18  O   UNL     1      -1.359  -2.549  -1.223  0.00  0.00    -0.245 OA
ENDBRANCH  15  16
BRANCH  15  20
ATOM     19  C   UNL     1      -0.019   1.526   0.010  0.00  0.00    +0.005 C 
ATOM     20  C   UNL     1       0.002  -0.004   0.002  0.00  0.00    +0.023 C 
ENDBRANCH  15  20
ENDBRANCH  14  15
ENDBRANCH   1  14
TORSDOF 4
