REMARK  Name = ZINC39570386
REMARK  9 active torsions:
REMARK  status: ('A' for Active; 'I' for Inactive)
REMARK    1  A    between atoms: C_1  and  C_2
REMARK    2  A    between atoms: C_2  and  C_4
REMARK    3  A    between atoms: C_2  and  N_13
REMARK    4  A    between atoms: C_14  and  C_16
REMARK    5  A    between atoms: C_16  and  N_17
REMARK    6  A    between atoms: C_23  and  C_26
REMARK    7  A    between atoms: C_26  and  C_27
REMARK    8  A    between atoms: C_26  and  C_28
REMARK    9  A    between atoms: C_26  and  C_29
REMARK                            x       y       z     vdW  Elec       q    Type
REMARK                         _______ _______ _______ _____ _____    ______ ____
ROOT
ATOM      1  N   UNL     1      -3.929  -1.240   2.572  0.00  0.00    -0.215 N 
ATOM      2  C   UNL     1      -3.791  -2.315   3.376  0.00  0.00    +0.247 C 
ATOM      3  O   UNL     1      -3.260  -3.371   3.105  0.00  0.00    -0.273 OA
ATOM      4  C   UNL     1      -4.435  -1.924   4.686  0.00  0.00    +0.113 C 
ATOM      5  C   UNL     1      -3.409  -1.955   5.813  0.00  0.00    +0.035 C 
ATOM      6  C   UNL     1      -2.903  -3.387   6.005  0.00  0.00    +0.006 C 
ATOM      7  C   UNL     1      -4.082  -4.302   6.341  0.00  0.00    -0.005 C 
ATOM      8  C   UNL     1      -5.093  -4.277   5.193  0.00  0.00    +0.006 C 
ATOM      9  C   UNL     1      -5.607  -2.848   4.998  0.00  0.00    +0.035 C 
ATOM     10  N   UNL     1      -4.907  -0.553   4.456  0.00  0.00    -0.285 N 
ATOM     11  C   UNL     1      -4.561  -0.237   3.193  0.00  0.00    +0.310 C 
ATOM     12  O   UNL     1      -4.799   0.836   2.675  0.00  0.00    -0.252 OA
ATOM     13  H   UNL     1      -5.373   0.015   5.090  0.00  0.00    +0.151 HD
ENDROOT
BRANCH   7  14
ATOM     14  C   UNL     1      -3.576  -5.732   6.543  0.00  0.00    -0.035 C 
ATOM     15  C   UNL     1      -2.567  -5.757   7.693  0.00  0.00    +0.011 C 
ATOM     16  C   UNL     1      -4.755  -6.647   6.879  0.00  0.00    +0.011 C 
ATOM     17  C   UNL     1      -2.901  -6.220   5.260  0.00  0.00    +0.011 C 
ENDBRANCH   7  14
BRANCH   1  18
ATOM     18  C   UNL     1      -3.442  -1.177   1.191  0.00  0.00    +0.213 C 
BRANCH  18  20
ATOM     19  N   UNL     1      -1.372  -0.511   0.012  0.00  0.00    -0.307 N 
ATOM     20  C   UNL     1      -2.029  -0.655   1.181  0.00  0.00    +0.231 C 
ATOM     21  O   UNL     1      -1.481  -0.365   2.224  0.00  0.00    -0.274 OA
ATOM     22  H   UNL     1      -1.810  -0.743  -0.822  0.00  0.00    +0.149 HD
BRANCH  19  24
ATOM     23  C   UNL     1      -0.019   1.526   0.010  0.00  0.00    +0.033 C 
ATOM     24  C   UNL     1       0.002  -0.004   0.002  0.00  0.00    +0.100 C 
BRANCH  24  25
ATOM     25  C   UNL     1       0.707  -0.490  -1.238  0.00  0.00    -0.024 A 
ATOM     26  C   UNL     1       0.036  -0.521  -2.446  0.00  0.00    +0.009 A 
ATOM     27  C   UNL     1       0.679  -0.965  -3.586  0.00  0.00    +0.050 A 
ATOM     28  C   UNL     1       1.999  -1.382  -3.520  0.00  0.00    +0.166 A 
ATOM     29  C   UNL     1       2.675  -1.351  -2.303  0.00  0.00    +0.167 A 
ATOM     30  C   UNL     1       2.026  -0.899  -1.166  0.00  0.00    +0.055 A 
ATOM     31  O   UNL     1       3.947  -1.806  -2.499  0.00  0.00    -0.453 OA
ATOM     32  C   UNL     1       3.917  -2.499  -3.761  0.00  0.00    +0.466 C 
ATOM     33  O   UNL     1       2.847  -1.856  -4.479  0.00  0.00    -0.453 OA
ENDBRANCH  24  25
ENDBRANCH  19  24
ENDBRANCH  18  20
ENDBRANCH   1  18
TORSDOF 5
