REMARK  Name = ZINC60354989
REMARK  10 active torsions:
REMARK  status: ('A' for Active; 'I' for Inactive)
REMARK    1  A    between atoms: C_1  and  C_2
REMARK    2  A    between atoms: C_5  and  C_7
REMARK    3  A    between atoms: C_7  and  C_9
REMARK    4  A    between atoms: C_7  and  N_28
REMARK    5  A    between atoms: C_9  and  N_10
REMARK    6  A    between atoms: C_11  and  C_13
REMARK    7  A    between atoms: C_13  and  C_14
REMARK    8  A    between atoms: C_14  and  C_15
REMARK    9  A    between atoms: C_15  and  C_16
REMARK   10  A    between atoms: C_18  and  C_21
REMARK                            x       y       z     vdW  Elec       q    Type
REMARK                         _______ _______ _______ _____ _____    ______ ____
ROOT
ATOM      1  N   UNL     1       3.139  -4.616  -1.417  0.00  0.00    -0.316 N 
ATOM      2  C   UNL     1       3.698  -5.031  -2.571  0.00  0.00    +0.213 C 
ATOM      3  O   UNL     1       3.300  -4.593  -3.630  0.00  0.00    -0.276 OA
ATOM      4  H   UNL     1       3.457  -4.966  -0.571  0.00  0.00    +0.149 HD
ENDROOT
BRANCH   1   5
ATOM      5  C   UNL     1       2.052  -3.634  -1.442  0.00  0.00    +0.096 C 
BRANCH   5   6
ATOM      6  C   UNL     1       1.514  -3.434  -0.023  0.00  0.00    +0.016 C 
BRANCH   6  11
ATOM      7  C   UNL     1      -1.860  -7.123   0.648  0.00  0.00    +0.086 C 
ATOM      8  C   UNL     1      -0.591  -6.316   0.749  0.00  0.00    +0.102 A 
ATOM      9  C   UNL     1       0.498  -6.649   1.464  0.00  0.00    +0.044 A 
ATOM     10  C   UNL     1       1.444  -5.615   1.276  0.00  0.00    +0.043 A 
ATOM     11  C   UNL     1       0.876  -4.712   0.457  0.00  0.00    +0.093 A 
ATOM     12  O   UNL     1      -0.355  -5.144   0.137  0.00  0.00    -0.466 OA
ENDBRANCH   6  11
BRANCH   6  13
ATOM     13  N   UNL     1       0.514  -2.358  -0.026  0.00  0.00    +0.387 N 
ATOM     14  C   UNL     1      -0.017  -2.148   1.345  0.00  0.00    -0.078 C 
ATOM     15  C   UNL     1      -0.574  -0.703   1.292  0.00  0.00    -0.020 C 
ATOM     16  C   UNL     1       0.455   0.031   0.401  0.00  0.00    -0.020 C 
ATOM     17  C   UNL     1       1.143  -1.077  -0.416  0.00  0.00    -0.078 C 
ATOM     18  H   UNL     1      -0.238  -2.583  -0.660  0.00  0.00    -0.081 HD
ENDBRANCH   6  13
ENDBRANCH   5   6
ENDBRANCH   1   5
BRANCH   2  19
ATOM     19  C   UNL     1       4.816  -6.041  -2.547  0.00  0.00    +0.096 C 
BRANCH  19  20
ATOM     20  C   UNL     1       5.267  -6.338  -3.978  0.00  0.00    +0.019 C 
BRANCH  20  21
ATOM     21  C   UNL     1       6.402  -7.363  -3.953  0.00  0.00    +0.099 C 
BRANCH  21  22
ATOM     22  C   UNL     1       6.846  -7.656  -5.363  0.00  0.00    +0.228 A 
ATOM     23  N   UNL     1       7.780  -7.023  -6.014  0.00  0.00    -0.191 NA
ATOM     24  C   UNL     1       7.917  -7.545  -7.246  0.00  0.00    +0.202 A 
ATOM     25  N   UNL     1       7.058  -8.525  -7.384  0.00  0.00    -0.056 NA
ATOM     26  O   UNL     1       6.351  -8.615  -6.156  0.00  0.00    -0.338 OA
BRANCH  24  27
ATOM     27  C   UNL     1       8.880  -7.087  -8.278  0.00  0.00    +0.023 A 
ATOM     28  C   UNL     1       9.748  -6.032  -8.005  0.00  0.00    +0.013 A 
ATOM     29  C   UNL     1      10.642  -5.609  -8.968  0.00  0.00    +0.021 A 
ATOM     30  C   UNL     1      10.676  -6.231 -10.204  0.00  0.00    +0.041 A 
ATOM     31  C   UNL     1       9.815  -7.279 -10.481  0.00  0.00    +0.021 A 
ATOM     32  C   UNL     1       8.922  -7.714  -9.522  0.00  0.00    +0.013 A 
ATOM     33 CL   UNL     1      11.802  -5.695 -11.412  0.00  0.00    -0.084 Cl
ENDBRANCH  24  27
ENDBRANCH  21  22
ENDBRANCH  20  21
ENDBRANCH  19  20
ENDBRANCH   2  19
TORSDOF 9
