REMARK  Name = ZINC39673046
REMARK  8 active torsions:
REMARK  status: ('A' for Active; 'I' for Inactive)
REMARK    1  A    between atoms: C_1  and  C_2
REMARK    2  A    between atoms: C_5  and  C_9
REMARK    3  A    between atoms: C_7  and  C_8
REMARK    4  A    between atoms: C_9  and  N_10
REMARK    5  A    between atoms: C_11  and  C_13
REMARK    6  A    between atoms: C_24  and  C_26
REMARK    7  A    between atoms: C_29  and  O_32
REMARK    8  A    between atoms: O_32  and  C_33
REMARK                            x       y       z     vdW  Elec       q    Type
REMARK                         _______ _______ _______ _____ _____    ______ ____
ROOT
ATOM      1  C   UNL     1       2.764  -6.568  -0.634  0.00  0.00    +0.100 C 
ATOM      2  C   UNL     1       3.728  -6.157  -1.770  0.00  0.00    +0.121 C 
ATOM      3  N   UNL     1       4.598  -7.340  -1.970  0.00  0.00    -0.296 N 
ATOM      4  C   UNL     1       3.683  -8.498  -1.829  0.00  0.00    +0.115 C 
ATOM      5  C   UNL     1       2.736  -8.105  -0.677  0.00  0.00    -0.004 C 
ATOM      6  C   UNL     1       1.322  -8.601  -0.964  0.00  0.00    -0.010 C 
ATOM      7  C   UNL     1       1.309 -10.132  -0.944  0.00  0.00    -0.082 C 
ATOM      8  N   UNL     1       1.759 -10.609   0.369  0.00  0.00    +0.379 N 
ATOM      9  C   UNL     1       3.152 -10.207   0.598  0.00  0.00    -0.082 C 
ATOM     10  C   UNL     1       3.244  -8.679   0.642  0.00  0.00    -0.010 C 
ATOM     11  C   UNL     1       5.921  -7.358  -2.221  0.00  0.00    +0.247 C 
ATOM     12  O   UNL     1       6.563  -6.326  -2.181  0.00  0.00    -0.270 OA
ATOM     13  H   UNL     1       1.173 -10.212   1.089  0.00  0.00    -0.086 HD
ATOM     14  H   UNL     1       1.691 -11.615   0.401  0.00  0.00    -0.086 HD
ENDROOT
BRANCH  11  15
ATOM     15  C   UNL     1       6.593  -8.632  -2.547  0.00  0.00    +0.037 A 
ATOM     16  C   UNL     1       5.848  -9.716  -3.019  0.00  0.00    +0.016 A 
ATOM     17  C   UNL     1       6.478 -10.902  -3.322  0.00  0.00    +0.047 A 
ATOM     18  C   UNL     1       7.853 -11.023  -3.158  0.00  0.00    +0.130 A 
ATOM     19  C   UNL     1       8.598  -9.947  -2.688  0.00  0.00    +0.047 A 
ATOM     20  C   UNL     1       7.976  -8.755  -2.388  0.00  0.00    +0.016 A 
BRANCH  18  21
ATOM     21  O   UNL     1       8.470 -12.194  -3.456  0.00  0.00    -0.406 OA
BRANCH  21  22
ATOM     22  C   UNL     1       9.885 -12.249  -3.264  0.00  0.00    +0.575 C 
ATOM     23  F   UNL     1      10.183 -11.999  -1.920  0.00  0.00    -0.133 F 
ATOM     24  F   UNL     1      10.355 -13.518  -3.617  0.00  0.00    -0.133 F 
ATOM     25  F   UNL     1      10.503 -11.283  -4.066  0.00  0.00    -0.133 F 
ENDBRANCH  21  22
ENDBRANCH  18  21
ENDBRANCH  11  15
BRANCH   1  27
ATOM     26  N   UNL     1       0.582  -5.705   0.149  0.00  0.00    -0.311 N 
ATOM     27  C   UNL     1       1.387  -6.011  -0.888  0.00  0.00    +0.218 C 
ATOM     28  O   UNL     1       1.002  -5.839  -2.025  0.00  0.00    -0.275 OA
ATOM     29  H   UNL     1       0.890  -5.842   1.059  0.00  0.00    +0.149 HD
BRANCH  26  30
ATOM     30  C   UNL     1      -0.757  -5.164  -0.097  0.00  0.00    +0.139 C 
BRANCH  30  35
ATOM     31  C   UNL     1      -3.399  -4.182   4.947  0.00  0.00    +0.044 C 
ATOM     32  C   UNL     1      -2.710  -4.438   3.632  0.00  0.00    -0.048 A 
ATOM     33  C   UNL     1      -1.947  -3.445   3.046  0.00  0.00    +0.004 A 
ATOM     34  C   UNL     1      -1.315  -3.679   1.840  0.00  0.00    +0.005 A 
ATOM     35  C   UNL     1      -1.445  -4.908   1.219  0.00  0.00    -0.030 A 
ATOM     36  C   UNL     1      -2.207  -5.901   1.804  0.00  0.00    +0.008 A 
ATOM     37  C   UNL     1      -2.836  -5.668   3.013  0.00  0.00    -0.047 A 
ATOM     38  C   UNL     1      -3.662  -6.753   3.655  0.00  0.00    +0.044 C 
ENDBRANCH  30  35
ENDBRANCH  26  30
ENDBRANCH   1  27
TORSDOF 6
