REMARK  Name = ZINC35828326
REMARK  9 active torsions:
REMARK  status: ('A' for Active; 'I' for Inactive)
REMARK    1  A    between atoms: C_1  and  C_2
REMARK    2  A    between atoms: C_2  and  C_3
REMARK    3  A    between atoms: C_10  and  C_12
REMARK    4  A    between atoms: C_12  and  C_14
REMARK    5  A    between atoms: C_12  and  O_15
REMARK    6  A    between atoms: O_15  and  C_16
REMARK    7  A    between atoms: C_16  and  C_18
REMARK    8  A    between atoms: N_23  and  C_25
REMARK    9  A    between atoms: C_28  and  C_31
REMARK                            x       y       z     vdW  Elec       q    Type
REMARK                         _______ _______ _______ _____ _____    ______ ____
ROOT
ATOM      1  C   UNL     1       5.285   2.817   0.626  0.00  0.00    +0.313 C 
ATOM      2  O   UNL     1       5.975   2.701  -0.358  0.00  0.00    -0.250 OA
ENDROOT
BRANCH   1   3
ATOM      3  C   UNL     1       5.528   3.952   1.587  0.00  0.00    +0.124 C 
ATOM      4  C   UNL     1       4.317   4.913   1.625  0.00  0.00    +0.112 C 
ATOM      5  C   UNL     1       4.938   6.286   1.769  0.00  0.00    +0.221 C 
ATOM      6  O   UNL     1       4.343   7.285   2.114  0.00  0.00    -0.275 OA
ATOM      7  N   UNL     1       6.245   6.237   1.459  0.00  0.00    -0.271 N 
ATOM      8  C   UNL     1       6.652   4.879   1.074  0.00  0.00    +0.128 C 
BRANCH   7   9
ATOM      9  C   UNL     1       7.108   7.337   1.500  0.00  0.00    +0.036 A 
ATOM     10  C   UNL     1       6.660   8.555   1.996  0.00  0.00    +0.024 A 
ATOM     11  C   UNL     1       7.514   9.639   2.035  0.00  0.00    +0.005 A 
ATOM     12  C   UNL     1       8.814   9.514   1.580  0.00  0.00    -0.050 A 
ATOM     13  C   UNL     1       9.263   8.304   1.084  0.00  0.00    +0.005 A 
ATOM     14  C   UNL     1       8.415   7.214   1.049  0.00  0.00    +0.024 A 
ATOM     15  C   UNL     1       9.743  10.700   1.623  0.00  0.00    +0.044 C 
ENDBRANCH   7   9
ENDBRANCH   1   3
BRANCH   1  16
ATOM     16  O   UNL     1       4.301   1.935   0.864  0.00  0.00    -0.452 OA
BRANCH  16  17
ATOM     17  C   UNL     1       4.128   0.884  -0.088  0.00  0.00    +0.259 C 
ATOM     18  C   UNL     1       4.986  -0.317   0.314  0.00  0.00    +0.062 C 
BRANCH  17  25
ATOM     19  C   UNL     1       0.779  -0.569  -1.266  0.00  0.00    +0.076 C 
ATOM     20  C   UNL     1       0.607  -2.085  -1.406  0.00  0.00    +0.022 C 
ATOM     21  C   UNL     1       1.451  -2.584  -2.581  0.00  0.00    +0.003 C 
ATOM     22  C   UNL     1       2.928  -2.288  -2.313  0.00  0.00    +0.019 C 
ATOM     23  C   UNL     1       3.127  -0.775  -2.184  0.00  0.00    +0.108 C 
ATOM     24  N   UNL     1       2.212  -0.261  -1.155  0.00  0.00    -0.295 N 
ATOM     25  C   UNL     1       2.678   0.475  -0.126  0.00  0.00    +0.256 C 
ATOM     26  O   UNL     1       1.930   0.808   0.769  0.00  0.00    -0.272 OA
BRANCH  19  28
ATOM     27  C   UNL     1      -1.440  -0.408  -0.129  0.00  0.00    +0.006 C 
ATOM     28  C   UNL     1       0.051  -0.083  -0.012  0.00  0.00    +0.019 C 
ENDBRANCH  19  28
ENDBRANCH  17  25
ENDBRANCH  16  17
ENDBRANCH   1  16
TORSDOF 6
