REMARK  Name = ZINC64414455
REMARK  6 active torsions:
REMARK  status: ('A' for Active; 'I' for Inactive)
REMARK    1  A    between atoms: C_1  and  C_2
REMARK    2  A    between atoms: C_3  and  C_13
REMARK    3  A    between atoms: C_5  and  N_8
REMARK    4  A    between atoms: N_15  and  C_16
REMARK    5  A    between atoms: C_16  and  C_17
REMARK    6  A    between atoms: C_20  and  C_23
REMARK                            x       y       z     vdW  Elec       q    Type
REMARK                         _______ _______ _______ _____ _____    ______ ____
ROOT
ATOM      1  C   UNL     1      -4.947  -0.398   0.026  0.00  0.00    +0.108 C 
ENDROOT
BRANCH   1   2
ATOM      2  C   UNL     1      -5.962  -1.542   0.025  0.00  0.00    +0.006 C 
ATOM      3  C   UNL     1      -5.852  -2.321  -1.287  0.00  0.00    +0.005 C 
ATOM      4  C   UNL     1      -6.867  -3.466  -1.288  0.00  0.00    +0.008 C 
ATOM      5  C   UNL     1      -8.280  -2.894  -1.151  0.00  0.00    +0.032 C 
ATOM      6  C   UNL     1      -8.390  -2.115   0.161  0.00  0.00    +0.008 C 
ATOM      7  C   UNL     1      -7.375  -0.971   0.162  0.00  0.00    +0.005 C 
BRANCH   5   8
ATOM      8  C   UNL     1      -9.295  -4.039  -1.152  0.00  0.00    +0.177 C 
ATOM      9  N   UNL     1      -9.251  -4.751  -2.435  0.00  0.00    -0.363 N 
ATOM     10  C   UNL     1     -10.428  -4.647  -2.981  0.00  0.00    +0.060 A 
ATOM     11  C   UNL     1     -10.991  -5.142  -4.245  0.00  0.00    +0.027 A 
ATOM     12  C   UNL     1     -12.276  -4.871  -4.552  0.00  0.00    +0.002 A 
ATOM     13  C   UNL     1     -13.116  -4.125  -3.706  0.00  0.00    +0.002 A 
ATOM     14  C   UNL     1     -12.701  -3.625  -2.526  0.00  0.00    +0.027 A 
ATOM     15  C   UNL     1     -11.318  -3.858  -2.086  0.00  0.00    +0.060 A 
ATOM     16  N   UNL     1     -10.657  -3.505  -1.022  0.00  0.00    -0.363 N 
ATOM     17  H   UNL     1      -8.485  -5.214  -2.808  0.00  0.00    +0.162 HD
ATOM     18  H   UNL     1     -11.000  -2.985  -0.279  0.00  0.00    +0.162 HD
ENDBRANCH   5   8
ENDBRANCH   1   2
BRANCH   1  21
ATOM     19  C   UNL     1      -2.526  -0.121   0.015  0.00  0.00    +0.252 C 
ATOM     20  O   UNL     1      -2.693   1.085   0.022  0.00  0.00    -0.270 OA
ATOM     21  N   UNL     1      -3.590  -0.949   0.016  0.00  0.00    -0.311 N 
ATOM     22  H   UNL     1      -3.457  -1.910   0.010  0.00  0.00    +0.149 HD
BRANCH  19  25
ATOM     23  C   UNL     1      -0.018   1.503   0.010  0.00  0.00    +0.062 C 
ATOM     24  C   UNL     1       0.002  -0.004   0.002  0.00  0.00    +0.022 C 
ATOM     25  C   UNL     1      -1.172  -0.671   0.005  0.00  0.00    +0.089 C 
ATOM     26  S   UNL     1      -0.674  -2.387  -0.007  0.00  0.00    -0.074 S 
ATOM     27  C   UNL     1       1.146  -2.116  -0.015  0.00  0.00    +0.237 C 
ATOM     28  N   UNL     1       1.193  -0.639  -0.013  0.00  0.00    -0.318 N 
ATOM     29  H   UNL     1       2.032  -0.153  -0.019  0.00  0.00    +0.149 HD
BRANCH  27  30
ATOM     30  N   UNL     1       1.771  -2.675   1.186  0.00  0.00    -0.326 N 
ATOM     31  C   UNL     1       1.938  -2.021   2.371  0.00  0.00    +0.088 A 
ATOM     32  C   UNL     1       2.550  -2.860   3.232  0.00  0.00    +0.019 A 
ATOM     33  C   UNL     1       2.769  -4.075   2.553  0.00  0.00    +0.019 A 
ATOM     34  C   UNL     1       2.277  -3.935   1.306  0.00  0.00    +0.088 A 
ENDBRANCH  27  30
ENDBRANCH  19  25
ENDBRANCH   1  21
TORSDOF 5
