REMARK  Name = ZINC04651588
REMARK  7 active torsions:
REMARK  status: ('A' for Active; 'I' for Inactive)
REMARK    1  A    between atoms: C_1  and  C_2
REMARK    2  A    between atoms: C_3  and  C_9
REMARK    3  A    between atoms: C_4  and  C_8
REMARK    4  A    between atoms: N_5  and  C_7
REMARK    5  A    between atoms: N_10  and  N_11
REMARK    6  A    between atoms: C_17  and  C_33
REMARK    7  A    between atoms: C_30  and  O_32
REMARK                            x       y       z     vdW  Elec       q    Type
REMARK                         _______ _______ _______ _____ _____    ______ ____
ROOT
ATOM      1  N   UNL     1      -0.036   1.331  -4.152  0.00  0.00    -0.158 NA
ATOM      2  C   UNL     1      -0.055   2.597  -4.423  0.00  0.00    +0.047 C 
ATOM      3  C   UNL     1      -0.059   3.739  -3.423  0.00  0.00    +0.053 C 
ATOM      4  C   UNL     1      -0.103   5.048  -4.242  0.00  0.00    +0.010 C 
ATOM      5  C   UNL     1      -0.732   4.606  -5.596  0.00  0.00    +0.005 C 
ATOM      6  C   UNL     1      -0.071   3.225  -5.797  0.00  0.00    +0.011 C 
ATOM      7  C   UNL     1      -0.775   2.368  -6.823  0.00  0.00    +0.013 C 
ATOM      8  C   UNL     1      -2.273   2.252  -6.534  0.00  0.00    +0.009 C 
ATOM      9  C   UNL     1      -2.863   3.665  -6.516  0.00  0.00    +0.023 C 
ATOM     10  C   UNL     1      -2.234   4.455  -5.357  0.00  0.00    +0.001 C 
ATOM     11  C   UNL     1      -2.906   5.825  -5.250  0.00  0.00    +0.009 C 
ATOM     12  C   UNL     1      -4.333   5.619  -4.742  0.00  0.00    +0.036 C 
ATOM     13  C   UNL     1      -5.041   4.552  -5.535  0.00  0.00    -0.040 A 
ATOM     14  C   UNL     1      -4.355   3.617  -6.341  0.00  0.00    -0.041 A 
ATOM     15  C   UNL     1      -5.064   2.644  -7.032  0.00  0.00    +0.008 A 
ATOM     16  C   UNL     1      -6.435   2.557  -6.914  0.00  0.00    +0.046 A 
ATOM     17  C   UNL     1      -7.112   3.451  -6.097  0.00  0.00    +0.117 A 
ATOM     18  C   UNL     1      -6.423   4.483  -5.431  0.00  0.00    +0.049 A 
ATOM     19  C   UNL     1       1.374   3.433  -6.255  0.00  0.00    +0.018 C 
ENDROOT
BRANCH   1  21
ATOM     20  C   UNL     1      -0.005  -0.377  -2.546  0.00  0.00    +0.146 C 
ATOM     21  N   UNL     1      -0.024   0.901  -2.819  0.00  0.00    -0.157 NA
BRANCH  20  24
ATOM     22  C   UNL     1      -0.018   1.503   0.010  0.00  0.00    +0.068 C 
ATOM     23  C   UNL     1       0.002  -0.004   0.002  0.00  0.00    +0.069 A 
ATOM     24  C   UNL     1       0.008  -0.828  -1.147  0.00  0.00    +0.038 A 
ATOM     25  C   UNL     1       0.028  -2.139  -0.708  0.00  0.00    +0.045 A 
ATOM     26  N   UNL     1       0.034  -2.112   0.637  0.00  0.00    -0.271 N 
ATOM     27  N   UNL     1       0.023  -0.776   1.054  0.00  0.00    -0.176 NA
ATOM     28  C   UNL     1       0.053  -3.283   1.516  0.00  0.00    +0.172 C 
ATOM     29  C   UNL     1       0.041  -3.371  -1.576  0.00  0.00    +0.066 C 
ENDBRANCH  20  24
ENDBRANCH   1  21
BRANCH  17  30
ATOM     30  O   UNL     1      -8.463   3.376  -5.976  0.00  0.00    -0.507 OA
ATOM     31  H   UNL     1      -8.763   2.800  -5.259  0.00  0.00    +0.292 HD
ENDBRANCH  17  30
TORSDOF 3
