REMARK  Name = ZINC06817236
REMARK  8 active torsions:
REMARK  status: ('A' for Active; 'I' for Inactive)
REMARK    1  A    between atoms: C_1  and  C_2
REMARK    2  A    between atoms: C_2  and  C_3
REMARK    3  A    between atoms: C_3  and  C_4
REMARK    4  A    between atoms: C_4  and  N_5
REMARK    5  A    between atoms: C_7  and  C_17
REMARK    6  A    between atoms: C_13  and  C_16
REMARK    7  A    between atoms: C_17  and  C_19
REMARK    8  A    between atoms: C_22  and  C_25
REMARK                            x       y       z     vdW  Elec       q    Type
REMARK                         _______ _______ _______ _____ _____    ______ ____
ROOT
ATOM      1  N   UNL     1       0.359   1.303   2.840  0.00  0.00    -0.331 N 
ATOM      2  C   UNL     1      -0.183   0.148   3.249  0.00  0.00    +0.103 A 
ATOM      3  C   UNL     1       0.292  -0.541   4.347  0.00  0.00    +0.086 A 
ATOM      4  C   UNL     1       1.425   0.022   5.101  0.00  0.00    +0.202 A 
ATOM      5  O   UNL     1       1.881  -0.542   6.080  0.00  0.00    -0.286 OA
ATOM      6  C   UNL     1       1.985   1.297   4.618  0.00  0.00    +0.065 A 
ATOM      7  C   UNL     1       1.418   1.901   3.482  0.00  0.00    +0.145 A 
ATOM      8  N   UNL     1       1.911   3.050   3.036  0.00  0.00    -0.234 NA
ATOM      9  C   UNL     1       2.924   3.646   3.629  0.00  0.00    +0.041 A 
ATOM     10  C   UNL     1       3.529   3.106   4.752  0.00  0.00    +0.024 A 
ATOM     11  C   UNL     1       3.060   1.910   5.265  0.00  0.00    +0.017 A 
ATOM     12  C   UNL     1       3.438   4.949   3.072  0.00  0.00    +0.065 C 
ENDROOT
BRANCH   3  13
ATOM     13  C   UNL     1      -0.326  -1.810   4.760  0.00  0.00    +0.198 C 
ATOM     14  O   UNL     1      -1.399  -1.805   5.333  0.00  0.00    -0.286 OA
BRANCH  13  15
ATOM     15  C   UNL     1       0.356  -3.091   4.479  0.00  0.00    +0.022 A 
ATOM     16  C   UNL     1       1.527  -3.109   3.719  0.00  0.00    +0.012 A 
ATOM     17  C   UNL     1       2.161  -4.308   3.463  0.00  0.00    +0.004 A 
ATOM     18  C   UNL     1       1.633  -5.490   3.951  0.00  0.00    -0.050 A 
ATOM     19  C   UNL     1       0.471  -5.479   4.701  0.00  0.00    +0.004 A 
ATOM     20  C   UNL     1      -0.171  -4.288   4.968  0.00  0.00    +0.012 A 
ATOM     21  C   UNL     1       2.329  -6.796   3.664  0.00  0.00    +0.044 C 
ENDBRANCH  13  15
ENDBRANCH   3  13
BRANCH   1  22
ATOM     22  C   UNL     1      -0.206   1.962   1.660  0.00  0.00    +0.123 C 
BRANCH  22  23
ATOM     23  C   UNL     1       0.597   1.563   0.420  0.00  0.00    +0.021 C 
BRANCH  23  25
ATOM     24  C   UNL     1       0.811   1.853  -2.052  0.00  0.00    +0.004 C 
ATOM     25  C   UNL     1       0.007   2.251  -0.813  0.00  0.00    -0.002 C 
ENDBRANCH  23  25
ENDBRANCH  22  23
ENDBRANCH   1  22
TORSDOF 5
