REMARK  Name = ZINC09639496
REMARK  6 active torsions:
REMARK  status: ('A' for Active; 'I' for Inactive)
REMARK    1  A    between atoms: C_1  and  C_2
REMARK    2  A    between atoms: C_5  and  N_9
REMARK    3  A    between atoms: C_7  and  C_8
REMARK    4  A    between atoms: C_10  and  C_25
REMARK    5  A    between atoms: C_11  and  C_14
REMARK    6  A    between atoms: N_16  and  C_17
REMARK                            x       y       z     vdW  Elec       q    Type
REMARK                         _______ _______ _______ _____ _____    ______ ____
ROOT
ATOM      1  N   UNL     1       0.163  -4.136  -0.106  0.00  0.00    -0.236 N 
ATOM      2  C   UNL     1      -0.628  -4.931  -0.849  0.00  0.00    +0.060 A 
ATOM      3  C   UNL     1      -0.412  -6.230  -0.434  0.00  0.00    +0.078 A 
ATOM      4  C   UNL     1       0.552  -6.184   0.599  0.00  0.00    +0.148 A 
ATOM      5  N   UNL     1       0.890  -4.937   0.781  0.00  0.00    -0.174 NA
ENDROOT
BRANCH   1  10
ATOM      6  C   UNL     1       0.513   1.514  -0.522  0.00  0.00    +0.044 C 
ATOM      7  C   UNL     1       0.420   0.014  -0.412  0.00  0.00    -0.047 A 
ATOM      8  C   UNL     1       0.397  -0.762  -1.556  0.00  0.00    +0.006 A 
ATOM      9  C   UNL     1       0.312  -2.137  -1.458  0.00  0.00    +0.028 A 
ATOM     10  C   UNL     1       0.250  -2.740  -0.209  0.00  0.00    +0.066 A 
ATOM     11  C   UNL     1       0.273  -1.959   0.938  0.00  0.00    +0.031 A 
ATOM     12  C   UNL     1       0.363  -0.584   0.834  0.00  0.00    -0.046 A 
ATOM     13  C   UNL     1       0.395   0.265   2.079  0.00  0.00    +0.044 C 
ENDBRANCH   1  10
BRANCH   2  14
ATOM     14  C   UNL     1      -1.576  -4.486  -1.932  0.00  0.00    +0.035 C 
ATOM     15  C   UNL     1      -2.997  -4.944  -1.589  0.00  0.00    -0.010 C 
ATOM     16  C   UNL     1      -3.940  -4.559  -2.731  0.00  0.00    -0.082 C 
ATOM     17  N   UNL     1      -3.502  -5.207  -3.973  0.00  0.00    +0.379 N 
ATOM     18  C   UNL     1      -2.169  -4.718  -4.346  0.00  0.00    -0.082 C 
ATOM     19  C   UNL     1      -1.157  -5.110  -3.267  0.00  0.00    -0.010 C 
ATOM     20  H   UNL     1      -3.466  -6.206  -3.835  0.00  0.00    -0.086 HD
ATOM     21  H   UNL     1      -4.156  -4.995  -4.711  0.00  0.00    -0.086 HD
ENDBRANCH   2  14
BRANCH   3  22
ATOM     22  C   UNL     1      -1.064  -7.439  -0.968  0.00  0.00    +0.252 C 
ATOM     23  O   UNL     1      -1.817  -7.354  -1.919  0.00  0.00    -0.270 OA
ATOM     24  N   UNL     1      -0.826  -8.639  -0.403  0.00  0.00    -0.281 N 
ATOM     25  H   UNL     1      -0.175  -8.718   0.311  0.00  0.00    +0.155 HD
BRANCH  24  26
ATOM     26  C   UNL     1      -1.518  -9.771  -0.847  0.00  0.00    +0.036 A 
ATOM     27  C   UNL     1      -1.888 -10.759   0.057  0.00  0.00    +0.043 A 
ATOM     28  C   UNL     1      -2.572 -11.876  -0.385  0.00  0.00    +0.044 A 
ATOM     29  C   UNL     1      -2.887 -12.011  -1.725  0.00  0.00    +0.040 A 
ATOM     30  C   UNL     1      -2.519 -11.028  -2.628  0.00  0.00    +0.044 A 
ATOM     31  C   UNL     1      -1.840  -9.906  -2.191  0.00  0.00    +0.043 A 
ATOM     32 CL   UNL     1      -2.917 -11.202  -4.309  0.00  0.00    -0.083 Cl
ATOM     33 CL   UNL     1      -3.035 -13.111   0.744  0.00  0.00    -0.083 Cl
ENDBRANCH  24  26
ENDBRANCH   3  22
TORSDOF 4
