REMARK  Name = ZINC01827386
REMARK  9 active torsions:
REMARK  status: ('A' for Active; 'I' for Inactive)
REMARK    1  A    between atoms: C_1  and  S_2
REMARK    2  A    between atoms: S_2  and  C_3
REMARK    3  A    between atoms: C_6  and  C_9
REMARK    4  A    between atoms: N_10  and  N_11
REMARK    5  A    between atoms: C_12  and  C_14
REMARK    6  A    between atoms: C_14  and  S_15
REMARK    7  A    between atoms: S_15  and  C_16
REMARK    8  A    between atoms: C_19  and  C_28
REMARK    9  A    between atoms: N_20  and  C_21
REMARK                            x       y       z     vdW  Elec       q    Type
REMARK                         _______ _______ _______ _____ _____    ______ ____
ROOT
ATOM      1  C   UNL     1       5.628  -6.641  -9.881  0.00  0.00    +0.197 A 
ATOM      2  N   UNL     1       6.080  -5.700 -10.680  0.00  0.00    -0.122 NA
ATOM      3  N   UNL     1       6.658  -6.225 -11.700  0.00  0.00    -0.128 NA
ATOM      4  C   UNL     1       6.611  -7.535 -11.619  0.00  0.00    +0.169 A 
ATOM      5  N   UNL     1       5.954  -7.843 -10.447  0.00  0.00    -0.270 N 
ENDROOT
BRANCH   5   6
ATOM      6  C   UNL     1       5.676  -9.121  -9.943  0.00  0.00    +0.051 A 
ATOM      7  C   UNL     1       6.714  -9.957  -9.553  0.00  0.00    +0.027 A 
ATOM      8  C   UNL     1       6.437 -11.215  -9.056  0.00  0.00    +0.017 A 
ATOM      9  C   UNL     1       5.126 -11.644  -8.947  0.00  0.00    +0.018 A 
ATOM     10  C   UNL     1       4.090 -10.814  -9.335  0.00  0.00    +0.017 A 
ATOM     11  C   UNL     1       4.361  -9.552  -9.826  0.00  0.00    +0.027 A 
ATOM     12 BR   UNL     1       4.751 -13.368  -8.268  0.00  0.00    -0.050 Br
ENDBRANCH   5   6
BRANCH   4  13
ATOM     13  C   UNL     1       7.163  -8.497 -12.596  0.00  0.00    +0.020 A 
ATOM     14  C   UNL     1       6.774  -9.837 -12.557  0.00  0.00    +0.011 A 
ATOM     15  C   UNL     1       7.294 -10.729 -13.472  0.00  0.00    +0.001 A 
ATOM     16  C   UNL     1       8.199 -10.298 -14.426  0.00  0.00    +0.000 A 
ATOM     17  C   UNL     1       8.589  -8.972 -14.470  0.00  0.00    +0.001 A 
ATOM     18  C   UNL     1       8.072  -8.068 -13.565  0.00  0.00    +0.011 A 
ENDBRANCH   4  13
BRANCH   1  19
ATOM     19  S   UNL     1       4.768  -6.400  -8.363  0.00  0.00    -0.076 S 
BRANCH  19  20
ATOM     20  C   UNL     1       4.665  -4.596  -8.198  0.00  0.00    +0.174 C 
BRANCH  20  22
ATOM     21  N   UNL     1       3.747  -2.957  -6.589  0.00  0.00    -0.206 N 
ATOM     22  C   UNL     1       3.942  -4.249  -6.922  0.00  0.00    +0.242 C 
ATOM     23  O   UNL     1       3.536  -5.131  -6.196  0.00  0.00    -0.273 OA
ATOM     24  H   UNL     1       4.072  -2.252  -7.170  0.00  0.00    +0.177 HD
BRANCH  21  26
ATOM     25  C   UNL     1       2.886  -1.391  -5.082  0.00  0.00    +0.138 C 
ATOM     26  N   UNL     1       3.075  -2.634  -5.403  0.00  0.00    -0.188 NA
BRANCH  25  30
ATOM     27  C   UNL     1       0.848  -0.411  -1.489  0.00  0.00    +0.008 A 
ATOM     28  C   UNL     1       1.315   0.603  -2.321  0.00  0.00    +0.015 A 
ATOM     29  C   UNL     1       1.976   0.288  -3.487  0.00  0.00    +0.010 A 
ATOM     30  C   UNL     1       2.179  -1.050  -3.835  0.00  0.00    -0.005 A 
ATOM     31  C   UNL     1       1.710  -2.066  -2.996  0.00  0.00    +0.010 A 
ATOM     32  C   UNL     1       1.054  -1.744  -1.829  0.00  0.00    +0.015 A 
BRANCH  27  34
ATOM     33  C   UNL     1      -0.022   1.810   0.012  0.00  0.00    +0.090 C 
ATOM     34  S   UNL     1       0.002  -0.004   0.002  0.00  0.00    -0.129 S 
ENDBRANCH  27  34
ENDBRANCH  25  30
ENDBRANCH  21  26
ENDBRANCH  20  22
ENDBRANCH  19  20
ENDBRANCH   1  19
TORSDOF 8
