REMARK  Name = ZINC03886712
REMARK  6 active torsions:
REMARK  status: ('A' for Active; 'I' for Inactive)
REMARK    1  A    between atoms: C_1  and  C_2
REMARK    2  A    between atoms: C_2  and  C_4
REMARK    3  A    between atoms: C_2  and  N_14
REMARK    4  A    between atoms: N_14  and  S_15
REMARK    5  A    between atoms: S_15  and  C_18
REMARK    6  A    between atoms: C_22  and  C_24
REMARK                            x       y       z     vdW  Elec       q    Type
REMARK                         _______ _______ _______ _____ _____    ______ ____
ROOT
ATOM      1  N   UNL     1       0.688  -0.476  -1.203  0.00  0.00    -0.187 NA
ATOM      2  H   UNL     1       0.197  -0.571  -2.035  0.00  0.00    +0.148 HD
ENDROOT
BRANCH   1   3
ATOM      3  S   UNL     1       2.300  -0.849  -1.146  0.00  0.00    +0.059 S 
ATOM      4  O   UNL     1       2.660  -1.296  -2.446  0.00  0.00    -0.153 OA
ATOM      5  O   UNL     1       2.947   0.245  -0.511  0.00  0.00    -0.153 OA
BRANCH   3   6
ATOM      6  C   UNL     1       2.478  -2.233  -0.071  0.00  0.00    +0.106 A 
ATOM      7  C   UNL     1       2.680  -2.033   1.284  0.00  0.00    +0.028 A 
ATOM      8  C   UNL     1       2.820  -3.114   2.136  0.00  0.00    +0.003 A 
ATOM      9  C   UNL     1       2.760  -4.400   1.640  0.00  0.00    +0.015 A 
ATOM     10  C   UNL     1       2.556  -4.609   0.274  0.00  0.00    +0.065 A 
ATOM     11  C   UNL     1       2.409  -3.513  -0.580  0.00  0.00    +0.043 A 
BRANCH  10  12
ATOM     12  C   UNL     1       2.490  -5.982  -0.264  0.00  0.00    +0.387 C 
ATOM     13  O   UNL     1       2.614  -6.939   0.487  0.00  0.00    -0.241 OA
ATOM     14  O   UNL     1       2.312  -6.162  -1.460  0.00  0.00    -0.241 OA
ENDBRANCH  10  12
ENDBRANCH   3   6
ENDBRANCH   1   3
BRANCH   1  16
ATOM     15  C   UNL     1      -0.019   1.526   0.010  0.00  0.00    +0.026 C 
ATOM     16  C   UNL     1       0.002  -0.004   0.002  0.00  0.00    +0.080 C 
BRANCH  16  17
ATOM     17  C   UNL     1      -1.433  -0.534   0.013  0.00  0.00    -0.012 C 
ATOM     18  C   UNL     1      -2.173  -0.027  -1.227  0.00  0.00    +0.012 C 
ATOM     19  C   UNL     1      -3.609  -0.556  -1.216  0.00  0.00    -0.010 C 
ATOM     20  C   UNL     1      -4.325  -0.063   0.043  0.00  0.00    +0.007 C 
ATOM     21  C   UNL     1      -3.585  -0.570   1.282  0.00  0.00    -0.010 C 
ATOM     22  C   UNL     1      -2.149  -0.040   1.272  0.00  0.00    +0.012 C 
ATOM     23  C   UNL     1      -3.564  -2.100   1.274  0.00  0.00    +0.007 C 
ATOM     24  C   UNL     1      -2.848  -2.593   0.015  0.00  0.00    -0.010 C 
ATOM     25  C   UNL     1      -3.588  -2.086  -1.224  0.00  0.00    +0.007 C 
ATOM     26  C   UNL     1      -1.413  -2.063   0.004  0.00  0.00    +0.012 C 
ENDBRANCH  16  17
ENDBRANCH   1  16
TORSDOF 5
