REMARK  Name = ZINC16516199
REMARK  13 active torsions:
REMARK  status: ('A' for Active; 'I' for Inactive)
REMARK    1  A    between atoms: C_1  and  C_2
REMARK    2  A    between atoms: C_5  and  C_8
REMARK    3  A    between atoms: C_8  and  C_9
REMARK    4  A    between atoms: N_14  and  C_15
REMARK    5  A    between atoms: N_14  and  C_30
REMARK    6  A    between atoms: C_15  and  C_16
REMARK    7  A    between atoms: C_16  and  C_17
REMARK    8  A    between atoms: N_19  and  C_20
REMARK    9  A    between atoms: C_20  and  C_21
REMARK   10  A    between atoms: C_21  and  C_22
REMARK   11  A    between atoms: C_22  and  N_72
REMARK   12  A    between atoms: C_27  and  C_29
REMARK   13  A    between atoms: C_30  and  C_31
REMARK                            x       y       z     vdW  Elec       q    Type
REMARK                         _______ _______ _______ _____ _____    ______ ____
ROOT
ATOM      1  C   UNL     1       5.161  13.227   3.231  0.00  0.00    +0.145 A 
ATOM      2  N   UNL     1       4.849  13.044   1.970  0.00  0.00    -0.208 NA
ATOM      3  C   UNL     1       3.704  12.441   1.679  0.00  0.00    +0.181 A 
ATOM      4  S   UNL     1       3.061  12.139   3.262  0.00  0.00    +0.049 S 
ATOM      5  N   UNL     1       4.345  12.816   4.171  0.00  0.00    -0.192 NA
ATOM      6  N   UNL     1       3.163  12.139   0.443  0.00  0.00    -0.301 N 
ENDROOT
BRANCH   1   7
ATOM      7  C   UNL     1       6.454  13.910   3.599  0.00  0.00    +0.112 C 
BRANCH   7  12
ATOM      8  C   UNL     1       5.580  19.608   3.993  0.00  0.00    +0.044 C 
ATOM      9  C   UNL     1       5.808  18.122   3.890  0.00  0.00    -0.050 A 
ATOM     10  C   UNL     1       5.646  17.319   5.004  0.00  0.00    +0.003 A 
ATOM     11  C   UNL     1       5.855  15.956   4.909  0.00  0.00    +0.004 A 
ATOM     12  C   UNL     1       6.226  15.396   3.701  0.00  0.00    -0.040 A 
ATOM     13  C   UNL     1       6.393  16.199   2.589  0.00  0.00    +0.004 A 
ATOM     14  C   UNL     1       6.180  17.562   2.682  0.00  0.00    +0.003 A 
ENDBRANCH   7  12
ENDBRANCH   1   7
BRANCH   6  15
ATOM     15  C   UNL     1       1.868  11.460   0.356  0.00  0.00    +0.117 C 
BRANCH  15  16
ATOM     16  C   UNL     1       2.085   9.946   0.345  0.00  0.00    +0.114 C 
BRANCH  16  17
ATOM     17  C   UNL     1       0.753   9.248   0.256  0.00  0.00    +0.215 C 
ATOM     18  O   UNL     1      -0.270   9.898   0.205  0.00  0.00    -0.276 OA
ATOM     19  N   UNL     1       0.697   7.902   0.232  0.00  0.00    -0.315 N 
ATOM     20  H   UNL     1       1.516   7.382   0.273  0.00  0.00    +0.149 HD
BRANCH  19  21
ATOM     21  C   UNL     1      -0.598   7.223   0.145  0.00  0.00    +0.102 C 
BRANCH  21  22
ATOM     22  C   UNL     1      -0.381   5.708   0.135  0.00  0.00    +0.000 C 
BRANCH  22  23
ATOM     23  C   UNL     1      -1.734   5.000   0.044  0.00  0.00    -0.077 C 
BRANCH  23  30
ATOM     24  C   UNL     1      -0.826   3.122  -1.185  0.00  0.00    -0.078 C 
ATOM     25  C   UNL     1      -0.756   1.594  -1.230  0.00  0.00    -0.019 C 
ATOM     26  C   UNL     1      -0.013   1.086   0.008  0.00  0.00    -0.003 C 
ATOM     27  C   UNL     1      -0.732   1.581   1.266  0.00  0.00    -0.016 C 
ATOM     28  C   UNL     1      -0.804   3.109   1.238  0.00  0.00    -0.072 C 
ATOM     29  C   UNL     1      -1.542   3.608   2.482  0.00  0.00    -0.013 C 
ATOM     30  N   UNL     1      -1.552   3.533   0.035  0.00  0.00    +0.381 N 
ATOM     31  H   UNL     1      -2.475   3.083   0.041  0.00  0.00    -0.081 HD
ENDBRANCH  23  30
ENDBRANCH  22  23
ENDBRANCH  21  22
ENDBRANCH  19  21
ENDBRANCH  16  17
ENDBRANCH  15  16
ENDBRANCH   6  15
BRANCH   6  32
ATOM     32  C   UNL     1       3.886  12.498  -0.780  0.00  0.00    +0.181 C 
BRANCH  32  33
ATOM     33  C   UNL     1       3.476  13.880  -1.220  0.00  0.00    +0.122 A 
ATOM     34  C   UNL     1       4.065  15.030  -0.848  0.00  0.00    +0.046 A 
ATOM     35  C   UNL     1       3.363  16.076  -1.491  0.00  0.00    +0.041 A 
ATOM     36  C   UNL     1       2.386  15.501  -2.216  0.00  0.00    +0.195 A 
ATOM     37  O   UNL     1       2.463  14.171  -2.053  0.00  0.00    -0.466 OA
ENDBRANCH  32  33
ENDBRANCH   6  32
TORSDOF 11
