REMARK  Name = ZINC20232981
REMARK  11 active torsions:
REMARK  status: ('A' for Active; 'I' for Inactive)
REMARK    1  A    between atoms: C_1  and  C_2
REMARK    2  A    between atoms: C_2  and  C_3
REMARK    3  A    between atoms: C_2  and  C_4
REMARK    4  A    between atoms: C_4  and  C_5
REMARK    5  A    between atoms: C_5  and  C_7
REMARK    6  A    between atoms: C_5  and  N_22
REMARK    7  A    between atoms: N_9  and  C_10
REMARK    8  A    between atoms: C_10  and  C_11
REMARK    9  A    between atoms: N_22  and  S_23
REMARK   10  A    between atoms: S_23  and  C_26
REMARK   11  A    between atoms: C_35  and  C_37
REMARK                            x       y       z     vdW  Elec       q    Type
REMARK                         _______ _______ _______ _____ _____    ______ ____
ROOT
ATOM      1  C   UNL     1       1.707   1.175  -0.021  0.00  0.00    +0.162 C 
ENDROOT
BRANCH   1   2
ATOM      2  C   UNL     1       0.244   1.502  -0.182  0.00  0.00    +0.232 C 
ATOM      3  O   UNL     1      -0.125   2.657  -0.156  0.00  0.00    -0.274 OA
ATOM      4  N   UNL     1      -0.653   0.511  -0.355  0.00  0.00    -0.310 N 
ATOM      5  H   UNL     1      -0.319  -0.536  -0.374  0.00  0.00    +0.149 HD
BRANCH   4   6
ATOM      6  C   UNL     1      -2.074   0.830  -0.517  0.00  0.00    +0.152 C 
BRANCH   6   7
ATOM      7  C   UNL     1      -2.869  -0.464  -0.701  0.00  0.00    +0.228 C 
ATOM      8  C   UNL     1      -4.338  -0.131  -0.996  0.00  0.00    +0.275 C 
ATOM      9  O   UNL     1      -5.054  -1.361  -1.150  0.00  0.00    -0.485 OA
ATOM     10  C   UNL     1      -4.824  -2.324  -0.216  0.00  0.00    +0.162 A 
ATOM     11  C   UNL     1      -5.718  -3.377  -0.089  0.00  0.00    +0.049 A 
ATOM     12  C   UNL     1      -5.496  -4.364   0.853  0.00  0.00    +0.004 A 
ATOM     13  C   UNL     1      -4.382  -4.305   1.670  0.00  0.00    +0.004 A 
ATOM     14  C   UNL     1      -3.488  -3.259   1.549  0.00  0.00    +0.049 A 
ATOM     15  C   UNL     1      -3.706  -2.264   0.607  0.00  0.00    +0.163 A 
ATOM     16  O   UNL     1      -2.818  -1.238   0.502  0.00  0.00    -0.480 OA
ENDBRANCH   6   7
ENDBRANCH   4   6
ENDBRANCH   1   2
BRANCH   1  17
ATOM     17  N   UNL     1       2.469   2.414   0.150  0.00  0.00    -0.178 NA
ATOM     18  H   UNL     1       2.956   2.884  -0.717  0.00  0.00    +0.149 HD
BRANCH  17  19
ATOM     19  S   UNL     1       2.807   2.974   1.671  0.00  0.00    +0.059 S 
ATOM     20  O   UNL     1       3.554   4.172   1.506  0.00  0.00    -0.153 OA
ATOM     21  O   UNL     1       1.588   2.930   2.401  0.00  0.00    -0.153 OA
BRANCH  19  22
ATOM     22  C   UNL     1       3.889   1.807   2.427  0.00  0.00    +0.106 A 
ATOM     23  C   UNL     1       3.371   0.697   3.069  0.00  0.00    +0.030 A 
ATOM     24  C   UNL     1       4.215  -0.221   3.657  0.00  0.00    +0.026 A 
ATOM     25  C   UNL     1       5.598  -0.031   3.619  0.00  0.00    +0.040 A 
ATOM     26  C   UNL     1       6.106   1.087   2.979  0.00  0.00    -0.023 A 
ATOM     27  C   UNL     1       5.257   2.002   2.386  0.00  0.00    +0.034 A 
ATOM     28  C   UNL     1       7.615   1.056   3.081  0.00  0.00    +0.056 C 
ATOM     29  C   UNL     1       7.923  -0.229   3.866  0.00  0.00    +0.118 C 
ATOM     30  N   UNL     1       6.617  -0.828   4.151  0.00  0.00    -0.271 N 
ATOM     31  C   UNL     1       6.425  -1.978   4.827  0.00  0.00    +0.217 C 
ATOM     32  O   UNL     1       5.301  -2.392   5.013  0.00  0.00    -0.276 OA
ATOM     33  C   UNL     1       7.609  -2.749   5.353  0.00  0.00    +0.109 C 
ENDBRANCH  19  22
ENDBRANCH  17  19
ENDBRANCH   1  17
BRANCH   1  34
ATOM     34  C   UNL     1       2.204   0.438  -1.267  0.00  0.00    +0.032 C 
BRANCH  34  36
ATOM     35  C   UNL     1       4.098  -0.876  -2.230  0.00  0.00    +0.007 C 
ATOM     36  C   UNL     1       3.650  -0.013  -1.049  0.00  0.00    -0.015 C 
ATOM     37  C   UNL     1       4.556   1.215  -0.942  0.00  0.00    +0.007 C 
ENDBRANCH  34  36
ENDBRANCH   1  34
TORSDOF 8
