REMARK  Name = ZINC60363281
REMARK  8 active torsions:
REMARK  status: ('A' for Active; 'I' for Inactive)
REMARK    1  A    between atoms: C_1  and  C_2
REMARK    2  A    between atoms: C_5  and  C_31
REMARK    3  A    between atoms: C_6  and  S_8
REMARK    4  A    between atoms: S_8  and  C_9
REMARK    5  A    between atoms: C_12  and  N_15
REMARK    6  A    between atoms: C_16  and  C_18
REMARK    7  A    between atoms: C_18  and  N_19
REMARK    8  A    between atoms: C_23  and  C_26
REMARK                            x       y       z     vdW  Elec       q    Type
REMARK                         _______ _______ _______ _____ _____    ______ ____
ROOT
ATOM      1  N   UNL     1      -0.233   0.933   7.153  0.00  0.00    -0.287 N 
ATOM      2  C   UNL     1      -0.065   0.521   8.425  0.00  0.00    +0.201 C 
ATOM      3  O   UNL     1       0.054  -0.661   8.669  0.00  0.00    -0.278 OA
ATOM      4  H   UNL     1      -0.395   1.871   6.964  0.00  0.00    +0.155 HD
ENDROOT
BRANCH   1   8
ATOM      5  C   UNL     1      -0.055  -1.823   4.028  0.00  0.00    +0.013 A 
ATOM      6  C   UNL     1       0.431  -0.534   3.846  0.00  0.00    +0.017 A 
ATOM      7  C   UNL     1       0.372   0.378   4.881  0.00  0.00    +0.024 A 
ATOM      8  C   UNL     1      -0.173   0.007   6.103  0.00  0.00    +0.033 A 
ATOM      9  C   UNL     1      -0.659  -1.281   6.285  0.00  0.00    +0.024 A 
ATOM     10  C   UNL     1      -0.605  -2.192   5.249  0.00  0.00    +0.017 A 
BRANCH   5  11
ATOM     11  S   UNL     1       0.021  -2.988   2.708  0.00  0.00    -0.089 S 
BRANCH  11  17
ATOM     12  C   UNL     1       4.434  -3.784   5.404  0.00  0.00    +0.044 C 
ATOM     13  C   UNL     1       3.518  -4.200   4.282  0.00  0.00    -0.049 A 
ATOM     14  C   UNL     1       3.845  -5.285   3.489  0.00  0.00    +0.004 A 
ATOM     15  C   UNL     1       3.007  -5.670   2.458  0.00  0.00    +0.005 A 
ATOM     16  C   UNL     1       1.840  -4.972   2.217  0.00  0.00    -0.037 A 
ATOM     17  C   UNL     1       1.508  -3.882   3.012  0.00  0.00    +0.016 A 
ATOM     18  C   UNL     1       2.350  -3.501   4.051  0.00  0.00    +0.018 A 
ATOM     19  C   UNL     1       0.929  -5.392   1.093  0.00  0.00    +0.045 C 
ENDBRANCH  11  17
ENDBRANCH   5  11
ENDBRANCH   1   8
BRANCH   2  20
ATOM     20  C   UNL     1      -0.026   1.529   9.545  0.00  0.00    +0.019 C 
BRANCH  20  21
ATOM     21  N   UNL     1       0.165   0.833  10.824  0.00  0.00    +0.386 N 
ATOM     22  C   UNL     1       1.479   0.179  10.832  0.00  0.00    -0.078 C 
ATOM     23  C   UNL     1       1.650  -0.614  12.129  0.00  0.00    -0.018 C 
ATOM     24  C   UNL     1       1.545   0.340  13.323  0.00  0.00    +0.005 C 
ATOM     25  C   UNL     1       0.201   1.071  13.263  0.00  0.00    +0.028 C 
ATOM     26  C   UNL     1       0.084   1.802  11.924  0.00  0.00    -0.070 C 
ATOM     27  H   UNL     1      -0.556   0.136  10.937  0.00  0.00    -0.081 HD
BRANCH  25  28
ATOM     28  C   UNL     1       0.118   2.083  14.407  0.00  0.00    +0.252 C 
ATOM     29  O   UNL     1       1.195   3.028  14.295  0.00  0.00    -0.349 OA
ATOM     30  C   UNL     1       1.576   3.319  15.661  0.00  0.00    +0.191 C 
ATOM     31  C   UNL     1       1.384   1.941  16.341  0.00  0.00    +0.191 C 
ATOM     32  O   UNL     1       0.232   1.400  15.663  0.00  0.00    -0.349 OA
ENDBRANCH  25  28
ENDBRANCH  20  21
ENDBRANCH   2  20
TORSDOF 6
