REMARK  Name = ZINC13322558
REMARK  8 active torsions:
REMARK  status: ('A' for Active; 'I' for Inactive)
REMARK    1  A    between atoms: C_1  and  C_2
REMARK    2  A    between atoms: C_2  and  C_3
REMARK    3  A    between atoms: C_2  and  C_4
REMARK    4  A    between atoms: C_2  and  C_5
REMARK    5  A    between atoms: C_12  and  N_17
REMARK    6  A    between atoms: C_13  and  C_14
REMARK    7  A    between atoms: C_18  and  C_20
REMARK    8  A    between atoms: C_25  and  N_26
REMARK                            x       y       z     vdW  Elec       q    Type
REMARK                         _______ _______ _______ _____ _____    ______ ____
ROOT
ATOM      1  C   UNL     1       3.793   3.289  -0.252  0.00  0.00    -0.000 C 
ATOM      2  C   UNL     1       4.355   2.134   0.581  0.00  0.00    +0.009 C 
ATOM      3  C   UNL     1       3.748   0.810   0.112  0.00  0.00    +0.037 C 
ATOM      4  C   UNL     1       2.231   0.943   0.101  0.00  0.00    -0.023 A 
ATOM      5  C   UNL     1       1.639   2.158   0.105  0.00  0.00    -0.004 A 
ATOM      6  S   UNL     1      -0.098   1.815   0.090  0.00  0.00    -0.077 S 
ATOM      7  C   UNL     1      -0.041   0.083   0.080  0.00  0.00    +0.085 A 
ATOM      8  C   UNL     1       1.320  -0.189   0.088  0.00  0.00    +0.068 A 
ATOM      9  C   UNL     1       2.317   3.493   0.117  0.00  0.00    +0.046 C 
ENDROOT
BRANCH   8  10
ATOM     10  C   UNL     1       1.820  -1.567   0.083  0.00  0.00    +0.244 C 
ATOM     11  O   UNL     1       2.036  -2.132  -0.973  0.00  0.00    -0.270 OA
ATOM     12  N   UNL     1       2.042  -2.208   1.248  0.00  0.00    -0.325 N 
ATOM     13  H   UNL     1       1.870  -1.757   2.089  0.00  0.00    +0.145 HD
ATOM     14  H   UNL     1       2.373  -3.119   1.244  0.00  0.00    +0.145 HD
ENDBRANCH   8  10
BRANCH   1  16
ATOM     15  C   UNL     1       6.052   4.356  -0.305  0.00  0.00    +0.011 C 
ATOM     16  C   UNL     1       4.578   4.567   0.048  0.00  0.00    -0.035 C 
ATOM     17  C   UNL     1       4.015   5.720  -0.786  0.00  0.00    +0.011 C 
ATOM     18  C   UNL     1       4.453   4.905   1.535  0.00  0.00    +0.011 C 
ENDBRANCH   1  16
BRANCH   7  19
ATOM     19  N   UNL     1      -1.098  -0.813   0.067  0.00  0.00    -0.275 N 
ATOM     20  C   UNL     1      -2.367  -0.359   0.061  0.00  0.00    +0.251 C 
ATOM     21  O   UNL     1      -2.584   0.837   0.068  0.00  0.00    -0.270 OA
ATOM     22  H   UNL     1      -0.924  -1.768   0.061  0.00  0.00    +0.156 HD
BRANCH  20  23
ATOM     23  C   UNL     1      -3.494  -1.314   0.047  0.00  0.00    +0.067 A 
ATOM     24  C   UNL     1      -3.589  -2.300   1.032  0.00  0.00    +0.017 A 
ATOM     25  C   UNL     1      -4.646  -3.186   1.016  0.00  0.00    +0.021 A 
ATOM     26  C   UNL     1      -5.605  -3.106   0.020  0.00  0.00    +0.043 A 
ATOM     27  C   UNL     1      -5.513  -2.134  -0.962  0.00  0.00    +0.053 A 
ATOM     28  C   UNL     1      -4.464  -1.239  -0.954  0.00  0.00    +0.140 A 
ATOM     29 CL   UNL     1      -6.929  -4.229   0.004  0.00  0.00    -0.083 Cl
BRANCH  28  30
ATOM     30  N   UNL     1      -4.367  -0.200  -2.004  0.00  0.00    +0.057 N 
ATOM     31  O   UNL     1      -5.273  -0.058  -2.806  0.00  0.00    -0.126 OA
ATOM     32  O   UNL     1      -3.381   0.512  -2.067  0.00  0.00    -0.126 OA
ENDBRANCH  28  30
ENDBRANCH  20  23
ENDBRANCH   7  19
TORSDOF 5
