REMARK  Name = ZINC14025435
REMARK  9 active torsions:
REMARK  status: ('A' for Active; 'I' for Inactive)
REMARK    1  A    between atoms: C_1  and  O_2
REMARK    2  A    between atoms: O_2  and  C_3
REMARK    3  A    between atoms: C_13  and  C_15
REMARK    4  A    between atoms: C_15  and  C_17
REMARK    5  A    between atoms: C_15  and  C_23
REMARK    6  A    between atoms: C_17  and  C_18
REMARK    7  A    between atoms: C_26  and  S_29
REMARK    8  A    between atoms: S_29  and  N_32
REMARK    9  A    between atoms: N_32  and  C_33
REMARK                            x       y       z     vdW  Elec       q    Type
REMARK                         _______ _______ _______ _____ _____    ______ ____
ROOT
ATOM      1  C   UNL     1       4.804  -5.614  -0.072  0.00  0.00    +0.105 C 
ENDROOT
BRANCH   1  12
ATOM      2  C   UNL     1       1.171   2.086   0.002  0.00  0.00    +0.216 A 
ATOM      3  C   UNL     1      -0.016   1.360   0.009  0.00  0.00    +0.069 A 
ATOM      4  C   UNL     1       0.002  -0.004   0.002  0.00  0.00    +0.036 A 
ATOM      5  C   UNL     1       1.246  -0.680  -0.013  0.00  0.00    +0.099 A 
ATOM      6  C   UNL     1       2.394   0.145  -0.020  0.00  0.00    +0.133 A 
ATOM      7  N   UNL     1       2.335   1.454  -0.012  0.00  0.00    -0.204 NA
ATOM      8  S   UNL     1       3.711  -1.050  -0.039  0.00  0.00    -0.032 S 
ATOM      9  C   UNL     1       2.687  -2.515  -0.037  0.00  0.00    +0.167 A 
ATOM     10  N   UNL     1       1.476  -2.011  -0.024  0.00  0.00    -0.223 NA
ATOM     11  N   UNL     1       3.075  -3.846  -0.047  0.00  0.00    -0.264 N 
ATOM     12  C   UNL     1       4.383  -4.167  -0.061  0.00  0.00    +0.226 C 
ATOM     13  O   UNL     1       5.222  -3.291  -0.065  0.00  0.00    -0.275 OA
ATOM     14  H   UNL     1       2.403  -4.546  -0.044  0.00  0.00    +0.157 HD
BRANCH   2  16
ATOM     15  C   UNL     1       2.393   4.123   0.001  0.00  0.00    +0.279 C 
ATOM     16  O   UNL     1       1.137   3.442   0.010  0.00  0.00    -0.480 OA
ENDBRANCH   2  16
ENDBRANCH   1  12
BRANCH   1  17
ATOM     17  C   UNL     1       6.309  -5.699  -0.086  0.00  0.00    -0.035 A 
ATOM     18  C   UNL     1       7.023  -5.141  -1.130  0.00  0.00    +0.006 A 
ATOM     19  C   UNL     1       8.403  -5.215  -1.141  0.00  0.00    +0.029 A 
ATOM     20  C   UNL     1       9.069  -5.857  -0.113  0.00  0.00    +0.105 A 
ATOM     21  C   UNL     1       8.355  -6.420   0.928  0.00  0.00    +0.029 A 
ATOM     22  C   UNL     1       6.975  -6.341   0.941  0.00  0.00    +0.006 A 
BRANCH  20  23
ATOM     23  S   UNL     1      10.828  -5.957  -0.131  0.00  0.00    +0.059 S 
ATOM     24  O   UNL     1      11.289  -4.879  -0.933  0.00  0.00    -0.153 OA
ATOM     25  O   UNL     1      11.238  -6.133   1.218  0.00  0.00    -0.153 OA
BRANCH  23  26
ATOM     26  N   UNL     1      11.231  -7.349  -0.932  0.00  0.00    -0.187 NA
ATOM     27  H   UNL     1      11.677  -8.069  -0.460  0.00  0.00    +0.148 HD
BRANCH  26  28
ATOM     28  C   UNL     1      10.912  -7.494  -2.355  0.00  0.00    +0.077 C 
ATOM     29  C   UNL     1      10.551  -8.892  -2.860  0.00  0.00    +0.022 C 
ATOM     30  C   UNL     1      11.901  -8.272  -3.225  0.00  0.00    +0.022 C 
ENDBRANCH  26  28
ENDBRANCH  23  26
ENDBRANCH  20  23
ENDBRANCH   1  17
BRANCH   1  31
ATOM     31  C   UNL     1       4.242  -6.299  -1.319  0.00  0.00    +0.021 C 
BRANCH  31  32
ATOM     32  C   UNL     1       4.564  -7.794  -1.268  0.00  0.00    -0.010 C 
ATOM     33  C   UNL     1       6.085  -8.012  -1.397  0.00  0.00    +0.003 C 
ATOM     34  C   UNL     1       6.212  -9.299  -2.252  0.00  0.00    +0.000 C 
ATOM     35  C   UNL     1       5.061  -9.145  -3.276  0.00  0.00    +0.000 C 
ATOM     36  C   UNL     1       3.912  -8.514  -2.462  0.00  0.00    +0.003 C 
ENDBRANCH  31  32
ENDBRANCH   1  31
TORSDOF 8
