REMARK  Name = ZINC39510745
REMARK  7 active torsions:
REMARK  status: ('A' for Active; 'I' for Inactive)
REMARK    1  A    between atoms: C_4  and  O_7
REMARK    2  A    between atoms: O_7  and  S_8
REMARK    3  A    between atoms: S_8  and  C_11
REMARK    4  A    between atoms: N_16  and  S_30
REMARK    5  A    between atoms: C_20  and  C_23
REMARK    6  A    between atoms: C_28  and  O_29
REMARK    7  A    between atoms: S_30  and  C_33
REMARK                            x       y       z     vdW  Elec       q    Type
REMARK                         _______ _______ _______ _____ _____    ______ ____
ROOT
ATOM      1  C   UNL     1       2.781  -2.642   1.622  0.00  0.00    +0.193 C 
ATOM      2  C   UNL     1       1.328  -2.160   1.592  0.00  0.00    +0.033 C 
ATOM      3  C   UNL     1       0.424  -3.222   2.223  0.00  0.00    +0.019 C 
ATOM      4  C   UNL     1       0.824  -3.426   3.688  0.00  0.00    +0.110 C 
ATOM      5  N   UNL     1       2.256  -3.756   3.743  0.00  0.00    -0.169 NA
ATOM      6  C   UNL     1       3.207  -2.875   3.067  0.00  0.00    +0.069 C 
ATOM      7  C   UNL     1       4.624  -3.483   3.115  0.00  0.00    +0.027 C 
ATOM      8  C   UNL     1       5.121  -3.082   4.527  0.00  0.00    +0.010 C 
ATOM      9  C   UNL     1       4.550  -1.664   4.742  0.00  0.00    +0.024 C 
ATOM     10  C   UNL     1       3.326  -1.538   3.816  0.00  0.00    +0.034 C 
ENDROOT
BRANCH   9  11
ATOM     11  C   UNL     1       4.131  -1.489   6.179  0.00  0.00    -0.003 A 
ATOM     12  C   UNL     1       3.192  -2.337   6.734  0.00  0.00    +0.007 A 
ATOM     13  C   UNL     1       2.807  -2.176   8.052  0.00  0.00    +0.001 A 
ATOM     14  C   UNL     1       3.361  -1.167   8.819  0.00  0.00    +0.004 A 
ATOM     15  C   UNL     1       4.301  -0.317   8.268  0.00  0.00    +0.046 A 
ATOM     16  C   UNL     1       4.693  -0.479   6.947  0.00  0.00    +0.120 A 
BRANCH  16  17
ATOM     17  O   UNL     1       5.621   0.352   6.405  0.00  0.00    -0.506 OA
ATOM     18  H   UNL     1       5.248   1.144   5.994  0.00  0.00    +0.292 HD
ENDBRANCH  16  17
ENDBRANCH   9  11
BRANCH   1  19
ATOM     19  S   UNL     1       3.852  -1.386   0.870  0.00  0.00    +0.125 S 
ATOM     20  O   UNL     1       5.192  -1.854   0.814  0.00  0.00    -0.136 OA
ATOM     21  O   UNL     1       3.554  -0.104   1.408  0.00  0.00    -0.136 OA
BRANCH  19  22
ATOM     22  O   UNL     1       3.405  -1.310  -0.583  0.00  0.00    -0.346 OA
BRANCH  22  26
ATOM     23  C   UNL     1       4.569  -4.543  -2.867  0.00  0.00    +0.000 A 
ATOM     24  C   UNL     1       3.395  -4.599  -2.139  0.00  0.00    +0.004 A 
ATOM     25  C   UNL     1       3.003  -3.518  -1.373  0.00  0.00    +0.048 A 
ATOM     26  C   UNL     1       3.789  -2.375  -1.335  0.00  0.00    +0.156 A 
ATOM     27  C   UNL     1       4.966  -2.321  -2.067  0.00  0.00    +0.048 A 
ATOM     28  C   UNL     1       5.353  -3.405  -2.831  0.00  0.00    +0.004 A 
ENDBRANCH  22  26
ENDBRANCH  19  22
ENDBRANCH   1  19
BRANCH   5  29
ATOM     29  S   UNL     1       2.783  -5.100   4.555  0.00  0.00    +0.061 S 
ATOM     30  O   UNL     1       4.200  -5.106   4.455  0.00  0.00    -0.153 OA
ATOM     31  O   UNL     1       2.107  -5.109   5.806  0.00  0.00    -0.153 OA
BRANCH  29  32
ATOM     32  C   UNL     1       2.208  -6.506   3.662  0.00  0.00    +0.105 A 
ATOM     33  C   UNL     1       0.935  -6.995   3.887  0.00  0.00    +0.028 A 
ATOM     34  C   UNL     1       0.484  -8.098   3.187  0.00  0.00    +0.002 A 
ATOM     35  C   UNL     1       1.307  -8.712   2.261  0.00  0.00    +0.000 A 
ATOM     36  C   UNL     1       2.580  -8.223   2.036  0.00  0.00    +0.002 A 
ATOM     37  C   UNL     1       3.029  -7.117   2.733  0.00  0.00    +0.028 A 
ENDBRANCH  29  32
ENDBRANCH   5  29
TORSDOF 7
