REMARK  Name = ZINC11154479
REMARK  9 active torsions:
REMARK  status: ('A' for Active; 'I' for Inactive)
REMARK    1  A    between atoms: C_1  and  C_2
REMARK    2  A    between atoms: C_2  and  C_4
REMARK    3  A    between atoms: C_2  and  N_14
REMARK    4  A    between atoms: N_9  and  C_10
REMARK    5  A    between atoms: C_10  and  C_11
REMARK    6  A    between atoms: C_11  and  C_12
REMARK    7  A    between atoms: C_11  and  C_13
REMARK    8  A    between atoms: N_14  and  C_15
REMARK    9  A    between atoms: C_18  and  N_21
REMARK                            x       y       z     vdW  Elec       q    Type
REMARK                         _______ _______ _______ _____ _____    ______ ____
ROOT
ATOM      1  N   UNL     1       0.688  -0.476  -1.203  0.00  0.00    -0.333 N 
ATOM      2  H   UNL     1       0.175  -0.710  -1.993  0.00  0.00    +0.147 HD
ENDROOT
BRANCH   1   3
ATOM      3  C   UNL     1       2.080  -0.591  -1.215  0.00  0.00    +0.028 A 
ATOM      4  C   UNL     1       2.815  -0.263  -0.083  0.00  0.00    +0.025 A 
ATOM      5  C   UNL     1       4.191  -0.378  -0.099  0.00  0.00    +0.023 A 
ATOM      6  C   UNL     1       4.837  -0.818  -1.239  0.00  0.00    +0.014 A 
ATOM      7  C   UNL     1       4.108  -1.146  -2.368  0.00  0.00    +0.023 A 
ATOM      8  C   UNL     1       2.732  -1.039  -2.357  0.00  0.00    +0.025 A 
BRANCH   6   9
ATOM      9  N   UNL     1       6.231  -0.932  -1.251  0.00  0.00    -0.393 NA
ATOM     10  C   UNL     1       6.783  -0.056  -2.291  0.00  0.00    +0.085 C 
ATOM     11  C   UNL     1       8.311  -0.116  -2.255  0.00  0.00    +0.017 C 
ATOM     12  C   UNL     1       8.767  -1.556  -2.505  0.00  0.00    +0.003 C 
ATOM     13  C   UNL     1       8.125  -2.472  -1.458  0.00  0.00    +0.017 C 
ATOM     14  C   UNL     1       6.604  -2.326  -1.524  0.00  0.00    +0.085 C 
ATOM     15  H   UNL     1       6.598  -0.657  -0.353  0.00  0.00    +0.126 HD
ENDBRANCH   6   9
ENDBRANCH   1   3
BRANCH   1  17
ATOM     16  C   UNL     1      -0.019   1.526   0.010  0.00  0.00    +0.038 C 
ATOM     17  C   UNL     1       0.002  -0.004   0.002  0.00  0.00    +0.154 C 
BRANCH  17  18
ATOM     18  C   UNL     1      -1.412  -0.526   0.013  0.00  0.00    +0.240 C 
ATOM     19  O   UNL     1      -1.807  -1.223  -0.897  0.00  0.00    -0.273 OA
ATOM     20  N   UNL     1      -2.236  -0.217   1.033  0.00  0.00    -0.239 N 
ATOM     21  C   UNL     1      -3.501  -0.683   1.043  0.00  0.00    +0.306 C 
ATOM     22  O   UNL     1      -3.897  -1.383   0.131  0.00  0.00    -0.252 OA
ATOM     23  N   UNL     1      -4.325  -0.374   2.063  0.00  0.00    -0.299 N 
ATOM     24  H   UNL     1      -1.920   0.341   1.761  0.00  0.00    +0.159 HD
ATOM     25  H   UNL     1      -4.009   0.183   2.791  0.00  0.00    +0.150 HD
BRANCH  23  26
ATOM     26  C   UNL     1      -5.700  -0.882   2.074  0.00  0.00    +0.108 C 
BRANCH  26  27
ATOM     27  C   UNL     1      -6.416  -0.388   3.332  0.00  0.00    -0.000 C 
ATOM     28  C   UNL     1      -6.547   1.135   3.280  0.00  0.00    +0.009 C 
ATOM     29  C   UNL     1      -7.808  -1.018   3.407  0.00  0.00    +0.009 C 
ENDBRANCH  26  27
ENDBRANCH  23  26
ENDBRANCH  17  18
ENDBRANCH   1  17
TORSDOF 6
