REMARK  Name = ZINC13059380
REMARK  6 active torsions:
REMARK  status: ('A' for Active; 'I' for Inactive)
REMARK    1  A    between atoms: C_1  and  C_2
REMARK    2  A    between atoms: C_9  and  C_11
REMARK    3  A    between atoms: C_13  and  C_31
REMARK    4  A    between atoms: C_18  and  C_23
REMARK    5  A    between atoms: C_29  and  C_30
REMARK    6  A    between atoms: C_34  and  O_37
REMARK                            x       y       z     vdW  Elec       q    Type
REMARK                         _______ _______ _______ _____ _____    ______ ____
ROOT
ATOM      1  C   UNL     1       6.084   2.411   0.685  0.00  0.00    +0.044 C 
ATOM      2  C   UNL     1       6.441   3.819   0.199  0.00  0.00    +0.071 C 
ATOM      3  C   UNL     1       7.460   4.421   1.140  0.00  0.00    +0.111 C 
ATOM      4  C   UNL     1       7.416   4.114   2.458  0.00  0.00    +0.031 C 
ATOM      5  C   UNL     1       8.408   4.719   3.422  0.00  0.00    +0.063 C 
ATOM      6  C   UNL     1       8.848   6.092   2.920  0.00  0.00    +0.068 C 
ATOM      7  C   UNL     1       9.453   5.937   1.521  0.00  0.00    +0.086 C 
ATOM      8  C   UNL     1       8.434   5.291   0.619  0.00  0.00    +0.143 C 
ATOM      9  O   UNL     1       8.455   5.524  -0.573  0.00  0.00    -0.297 OA
ATOM     10  N   UNL     1       6.485   3.264   2.934  0.00  0.00    -0.260 NA
ATOM     11  C   UNL     1       5.831   2.454   2.173  0.00  0.00    +0.047 C 
ATOM     12  C   UNL     1       6.040   1.217   3.008  0.00  0.00    +0.066 C 
ENDROOT
BRANCH   1  21
ATOM     13  C   UNL     1       5.655  -5.280  -0.939  0.00  0.00    +0.045 C 
ATOM     14  C   UNL     1       5.955  -3.875  -0.484  0.00  0.00    -0.032 A 
ATOM     15  C   UNL     1       6.926  -3.643   0.482  0.00  0.00    +0.008 A 
ATOM     16  C   UNL     1       7.174  -2.337   0.867  0.00  0.00    +0.044 A 
ATOM     17  C   UNL     1       6.442  -1.309   0.285  0.00  0.00    +0.125 A 
ATOM     18  N   UNL     1       5.525  -1.571  -0.633  0.00  0.00    -0.240 NA
ATOM     19  C   UNL     1       5.269  -2.805  -1.024  0.00  0.00    +0.116 A 
ATOM     20  N   UNL     1       6.679   0.010   0.667  0.00  0.00    -0.267 N 
ATOM     21  C   UNL     1       5.904   1.002   0.183  0.00  0.00    +0.248 C 
ATOM     22  O   UNL     1       5.063   0.759  -0.656  0.00  0.00    -0.270 OA
ATOM     23  H   UNL     1       7.401   0.215   1.281  0.00  0.00    +0.157 HD
ENDBRANCH   1  21
BRANCH   2  24
ATOM     24  C   UNL     1       5.201   4.676   0.183  0.00  0.00    -0.038 A 
ATOM     25  C   UNL     1       4.772   5.245  -1.002  0.00  0.00    +0.008 A 
ATOM     26  C   UNL     1       3.636   6.032  -1.019  0.00  0.00    +0.045 A 
ATOM     27  C   UNL     1       2.926   6.249   0.152  0.00  0.00    +0.117 A 
ATOM     28  C   UNL     1       3.362   5.681   1.341  0.00  0.00    +0.045 A 
ATOM     29  C   UNL     1       4.496   4.892   1.352  0.00  0.00    +0.008 A 
BRANCH  27  30
ATOM     30  O   UNL     1       1.808   7.022   0.138  0.00  0.00    -0.507 OA
ATOM     31  H   UNL     1       0.993   6.531  -0.032  0.00  0.00    +0.292 HD
ENDBRANCH  27  30
ENDBRANCH   2  24
BRANCH   6  32
ATOM     32  C   UNL     1       9.879   6.667   3.856  0.00  0.00    +0.109 A 
ATOM     33  C   UNL     1       9.765   7.819   4.541  0.00  0.00    +0.045 A 
ATOM     34  C   UNL     1      10.954   7.970   5.291  0.00  0.00    +0.041 A 
ATOM     35  C   UNL     1      11.727   6.904   5.014  0.00  0.00    +0.195 A 
ATOM     36  O   UNL     1      11.071   6.119   4.144  0.00  0.00    -0.468 OA
ENDBRANCH   6  32
TORSDOF 4
