REMARK  Name = ZINC28826181
REMARK  8 active torsions:
REMARK  status: ('A' for Active; 'I' for Inactive)
REMARK    1  A    between atoms: C_1  and  O_2
REMARK    2  A    between atoms: O_2  and  C_3
REMARK    3  A    between atoms: C_3  and  C_5
REMARK    4  A    between atoms: C_8  and  N_22
REMARK    5  A    between atoms: C_10  and  N_13
REMARK    6  A    between atoms: C_14  and  C_16
REMARK    7  A    between atoms: C_23  and  C_25
REMARK    8  A    between atoms: C_28  and  N_31
REMARK                            x       y       z     vdW  Elec       q    Type
REMARK                         _______ _______ _______ _____ _____    ______ ____
ROOT
ATOM      1  C   UNL     1       1.926   9.032   2.021  0.00  0.00    +0.101 C 
ATOM      2  C   UNL     1       1.905   9.449   0.536  0.00  0.00    +0.039 C 
ATOM      3  C   UNL     1       2.110   8.164  -0.285  0.00  0.00    +0.094 C 
ATOM      4  C   UNL     1       2.248   7.010   0.730  0.00  0.00    +0.094 C 
ATOM      5  C   UNL     1       2.725   7.700   2.031  0.00  0.00    +0.039 C 
ENDROOT
BRANCH   4   6
ATOM      6  N   UNL     1       0.955   6.355   0.940  0.00  0.00    -0.306 N 
ATOM      7  C   UNL     1       0.908   5.085   1.390  0.00  0.00    +0.251 C 
ATOM      8  O   UNL     1       1.940   4.483   1.621  0.00  0.00    -0.270 OA
ATOM      9  H   UNL     1       0.022   6.899   0.732  0.00  0.00    +0.149 HD
BRANCH   7  10
ATOM     10  C   UNL     1      -0.385   4.431   1.601  0.00  0.00    +0.075 A 
ATOM     11  C   UNL     1      -0.651   3.147   2.052  0.00  0.00    +0.022 A 
ATOM     12  C   UNL     1      -1.970   2.782   2.160  0.00  0.00    +0.028 A 
ATOM     13  C   UNL     1      -2.936   3.679   1.821  0.00  0.00    +0.079 A 
ATOM     14  S   UNL     1      -2.028   5.077   1.345  0.00  0.00    -0.072 S 
ATOM     15 CL   UNL     1      -4.659   3.473   1.858  0.00  0.00    -0.076 Cl
ENDBRANCH   7  10
ENDBRANCH   4   6
BRANCH   3  16
ATOM     16  N   UNL     1       0.953   7.932  -1.154  0.00  0.00    -0.307 N 
ATOM     17  C   UNL     1       0.912   8.484  -2.383  0.00  0.00    +0.244 C 
ATOM     18  O   UNL     1       1.835   9.174  -2.771  0.00  0.00    -0.270 OA
ATOM     19  H   UNL     1       0.118   7.308  -0.803  0.00  0.00    +0.149 HD
BRANCH  17  20
ATOM     20  C   UNL     1      -0.254   8.251  -3.258  0.00  0.00    +0.037 A 
ATOM     21  C   UNL     1      -1.313   7.454  -2.816  0.00  0.00    +0.015 A 
ATOM     22  C   UNL     1      -2.401   7.242  -3.633  0.00  0.00    +0.027 A 
ATOM     23  C   UNL     1      -2.442   7.812  -4.901  0.00  0.00    +0.049 A 
ATOM     24  C   UNL     1      -1.387   8.602  -5.346  0.00  0.00    +0.027 A 
ATOM     25  C   UNL     1      -0.299   8.822  -4.532  0.00  0.00    +0.015 A 
BRANCH  23  26
ATOM     26  N   UNL     1      -3.545   7.591  -5.729  0.00  0.00    -0.284 N 
ATOM     27  C   UNL     1      -4.606   8.441  -5.677  0.00  0.00    +0.095 A 
ATOM     28  C   UNL     1      -5.683   8.250  -6.474  0.00  0.00    +0.018 A 
ATOM     29  C   UNL     1      -5.717   7.160  -7.356  0.00  0.00    +0.007 A 
ATOM     30  C   UNL     1      -4.654   6.306  -7.403  0.00  0.00    +0.071 A 
ATOM     31  C   UNL     1      -3.549   6.536  -6.566  0.00  0.00    +0.256 A 
ATOM     32  O   UNL     1      -2.592   5.780  -6.598  0.00  0.00    -0.267 OA
ENDBRANCH  23  26
ENDBRANCH  17  20
ENDBRANCH   3  16
BRANCH   1  33
ATOM     33  C   UNL     1       2.628  10.074   2.852  0.00  0.00    +0.310 C 
ATOM     34  O   UNL     1       3.077  11.065   2.325  0.00  0.00    -0.251 OA
BRANCH  33  36
ATOM     35  C   UNL     1       3.443  10.947   4.914  0.00  0.00    +0.280 C 
ATOM     36  O   UNL     1       2.756   9.902   4.177  0.00  0.00    -0.468 OA
ENDBRANCH  33  36
ENDBRANCH   1  33
TORSDOF 7
