REMARK  Name = ZINC16449498
REMARK  11 active torsions:
REMARK  status: ('A' for Active; 'I' for Inactive)
REMARK    1  A    between atoms: C_4  and  O_32
REMARK    2  A    between atoms: C_5  and  C_7
REMARK    3  A    between atoms: N_8  and  N_9
REMARK    4  A    between atoms: C_21  and  N_22
REMARK    5  A    between atoms: N_22  and  C_23
REMARK    6  A    between atoms: C_23  and  C_24
REMARK    7  A    between atoms: C_23  and  C_26
REMARK    8  A    between atoms: C_23  and  C_28
REMARK    9  A    between atoms: C_24  and  O_25
REMARK   10  A    between atoms: C_26  and  O_27
REMARK   11  A    between atoms: C_28  and  O_29
REMARK                            x       y       z     vdW  Elec       q    Type
REMARK                         _______ _______ _______ _____ _____    ______ ____
ROOT
ATOM      1  N   UNL     1       2.157  -4.283   0.700  0.00  0.00    -0.119 N 
ATOM      2  C   UNL     1       0.966  -4.872   0.480  0.00  0.00    +0.274 C 
ATOM      3  O   UNL     1      -0.051  -4.205   0.492  0.00  0.00    -0.268 OA
ATOM      4  C   UNL     1       0.889  -6.317   0.226  0.00  0.00    +0.047 A 
ATOM      5  C   UNL     1      -0.318  -6.963  -0.005  0.00  0.00    +0.014 A 
ATOM      6  C   UNL     1      -0.343  -8.331  -0.241  0.00  0.00    +0.001 A 
ATOM      7  C   UNL     1       0.815  -9.078  -0.252  0.00  0.00    +0.010 A 
ATOM      8  C   UNL     1       2.051  -8.458  -0.023  0.00  0.00    +0.004 A 
ATOM      9  C   UNL     1       2.086  -7.070   0.217  0.00  0.00    +0.008 A 
ATOM     10  C   UNL     1       3.319  -6.416   0.452  0.00  0.00    +0.048 A 
ATOM     11  C   UNL     1       4.497  -7.158   0.443  0.00  0.00    +0.015 A 
ATOM     12  C   UNL     1       4.463  -8.520   0.206  0.00  0.00    +0.024 A 
ATOM     13  C   UNL     1       3.266  -9.183  -0.025  0.00  0.00    +0.036 A 
ATOM     14  C   UNL     1       3.314  -4.970   0.693  0.00  0.00    +0.274 C 
ATOM     15  O   UNL     1       4.364  -4.387   0.892  0.00  0.00    -0.268 OA
ENDROOT
BRANCH   1  17
ATOM     16  C   UNL     1       2.756  -2.110   0.078  0.00  0.00    +0.142 C 
ATOM     17  N   UNL     1       2.192  -2.903   0.938  0.00  0.00    -0.177 NA
BRANCH  16  22
ATOM     18  C   UNL     1       3.247   1.571  -0.460  0.00  0.00    +0.001 A 
ATOM     19  C   UNL     1       2.591   2.096   0.641  0.00  0.00    +0.004 A 
ATOM     20  C   UNL     1       1.988   1.259   1.561  0.00  0.00    +0.046 A 
ATOM     21  C   UNL     1       2.036  -0.114   1.387  0.00  0.00    +0.125 A 
ATOM     22  C   UNL     1       2.699  -0.651   0.274  0.00  0.00    +0.036 A 
ATOM     23  C   UNL     1       3.304   0.206  -0.649  0.00  0.00    +0.013 A 
BRANCH  21  24
ATOM     24  O   UNL     1       1.444  -0.937   2.290  0.00  0.00    -0.506 OA
ATOM     25  H   UNL     1       0.521  -1.143   2.089  0.00  0.00    +0.292 HD
ENDBRANCH  21  24
ENDBRANCH  16  22
ENDBRANCH   1  17
BRANCH  13  26
ATOM     26  N   UNL     1       3.261 -10.545  -0.257  0.00  0.00    -0.332 N 
ATOM     27  H   UNL     1       2.436 -10.992  -0.502  0.00  0.00    +0.147 HD
BRANCH  26  28
ATOM     28  C   UNL     1       4.502 -11.314  -0.133  0.00  0.00    +0.101 C 
BRANCH  28  29
ATOM     29  C   UNL     1       5.491 -10.862  -1.209  0.00  0.00    +0.186 C 
BRANCH  29  30
ATOM     30  O   UNL     1       4.875 -10.958  -2.494  0.00  0.00    -0.393 OA
ATOM     31  H   UNL     1       5.446 -10.687  -3.226  0.00  0.00    +0.209 HD
ENDBRANCH  29  30
ENDBRANCH  28  29
BRANCH  28  32
ATOM     32  C   UNL     1       5.110 -11.080   1.251  0.00  0.00    +0.186 C 
BRANCH  32  33
ATOM     33  O   UNL     1       4.197 -11.527   2.255  0.00  0.00    -0.393 OA
ATOM     34  H   UNL     1       4.518 -11.409   3.159  0.00  0.00    +0.209 HD
ENDBRANCH  32  33
ENDBRANCH  28  32
BRANCH  28  35
ATOM     35  C   UNL     1       4.199 -12.803  -0.312  0.00  0.00    +0.186 C 
BRANCH  35  36
ATOM     36  O   UNL     1       5.409 -13.553  -0.191  0.00  0.00    -0.393 OA
ATOM     37  H   UNL     1       5.292 -14.508  -0.294  0.00  0.00    +0.209 HD
ENDBRANCH  35  36
ENDBRANCH  28  35
ENDBRANCH  26  28
ENDBRANCH  13  26
TORSDOF 11
