REMARK  Name = ZINC34750022
REMARK  10 active torsions:
REMARK  status: ('A' for Active; 'I' for Inactive)
REMARK    1  A    between atoms: C_1  and  C_2
REMARK    2  A    between atoms: C_2  and  C_4
REMARK    3  A    between atoms: C_4  and  S_5
REMARK    4  A    between atoms: S_5  and  C_6
REMARK    5  A    between atoms: C_17  and  C_19
REMARK    6  A    between atoms: C_17  and  C_20
REMARK    7  A    between atoms: N_24  and  C_27
REMARK    8  A    between atoms: C_27  and  C_28
REMARK    9  A    between atoms: C_28  and  C_29
REMARK   10  A    between atoms: C_29  and  C_30
REMARK                            x       y       z     vdW  Elec       q    Type
REMARK                         _______ _______ _______ _____ _____    ______ ____
ROOT
ATOM      1  C   UNL     1      -1.497  -1.583  -3.545  0.00  0.00    +0.191 A 
ATOM      2  N   UNL     1      -2.554  -1.724  -4.337  0.00  0.00    -0.206 NA
ATOM      3  C   UNL     1      -2.497  -2.400  -5.471  0.00  0.00    +0.134 A 
ATOM      4  C   UNL     1      -1.267  -2.999  -5.864  0.00  0.00    +0.051 A 
ATOM      5  C   UNL     1      -0.971  -3.785  -7.061  0.00  0.00    -0.020 A 
ATOM      6  C   UNL     1       0.291  -4.245  -7.198  0.00  0.00    +0.021 A 
ATOM      7  S   UNL     1       1.151  -3.667  -5.763  0.00  0.00    -0.071 S 
ATOM      8  C   UNL     1      -0.189  -2.808  -4.977  0.00  0.00    +0.115 A 
ATOM      9  N   UNL     1      -0.324  -2.115  -3.863  0.00  0.00    -0.215 NA
ATOM     10  C   UNL     1       0.816  -5.066  -8.334  0.00  0.00    +0.203 C 
ATOM     11  O   UNL     1      -0.308  -5.551  -9.086  0.00  0.00    -0.368 OA
ATOM     12  C   UNL     1      -1.262  -4.534  -9.402  0.00  0.00    +0.068 C 
ATOM     13  C   UNL     1      -2.008  -4.099  -8.137  0.00  0.00    +0.071 C 
ATOM     14  C   UNL     1      -0.538  -3.328 -10.005  0.00  0.00    +0.041 C 
ATOM     15  C   UNL     1      -2.266  -5.080 -10.420  0.00  0.00    +0.041 C 
ATOM     16  N   UNL     1      -3.621  -2.524  -6.268  0.00  0.00    -0.318 N 
ATOM     17  C   UNL     1      -4.492  -3.706  -6.168  0.00  0.00    +0.088 C 
ATOM     18  C   UNL     1      -5.940  -3.230  -6.012  0.00  0.00    -0.060 C 
ATOM     19  N   UNL     1      -6.277  -2.319  -7.114  0.00  0.00    +0.382 N 
ATOM     20  C   UNL     1      -5.452  -1.108  -7.031  0.00  0.00    -0.060 C 
ATOM     21  C   UNL     1      -3.982  -1.476  -7.234  0.00  0.00    +0.088 C 
ATOM     22  H   UNL     1      -6.106  -2.782  -7.994  0.00  0.00    -0.082 HD
ENDROOT
BRANCH   1  23
ATOM     23  S   UNL     1      -1.654  -0.667  -2.048  0.00  0.00    -0.082 S 
BRANCH  23  24
ATOM     24  C   UNL     1       0.005  -0.733  -1.317  0.00  0.00    +0.107 C 
BRANCH  24  26
ATOM     25  C   UNL     1      -0.002   1.530  -0.016  0.00  0.00    +0.039 C 
ATOM     26  C   UNL     1       0.010   0.023  -0.014  0.00  0.00    -0.069 C 
ATOM     27  C   UNL     1       0.026  -0.630   1.122  0.00  0.00    +0.008 C 
ENDBRANCH  24  26
ENDBRANCH  23  24
ENDBRANCH   1  23
BRANCH  19  28
ATOM     28  C   UNL     1      -7.696  -1.950  -7.025  0.00  0.00    -0.078 C 
BRANCH  28  29
ATOM     29  C   UNL     1      -8.079  -1.103  -8.240  0.00  0.00    -0.014 C 
BRANCH  29  30
ATOM     30  C   UNL     1      -9.557  -0.719  -8.147  0.00  0.00    +0.033 C 
BRANCH  30  31
ATOM     31  C   UNL     1      -9.935   0.116  -9.344  0.00  0.00    -0.047 A 
ATOM     32  C   UNL     1      -9.807   1.491  -9.296  0.00  0.00    +0.003 A 
ATOM     33  C   UNL     1     -10.154   2.256 -10.394  0.00  0.00    +0.000 A 
ATOM     34  C   UNL     1     -10.628   1.646 -11.540  0.00  0.00    +0.000 A 
ATOM     35  C   UNL     1     -10.755   0.271 -11.588  0.00  0.00    +0.000 A 
ATOM     36  C   UNL     1     -10.404  -0.495 -10.492  0.00  0.00    +0.003 A 
ENDBRANCH  30  31
ENDBRANCH  29  30
ENDBRANCH  28  29
ENDBRANCH  19  28
TORSDOF 7
