REMARK  Name = ZINC13256253
REMARK  7 active torsions:
REMARK  status: ('A' for Active; 'I' for Inactive)
REMARK    1  A    between atoms: C_2  and  C_3
REMARK    2  A    between atoms: C_3  and  N_4
REMARK    3  A    between atoms: C_10  and  C_33
REMARK    4  A    between atoms: C_14  and  S_15
REMARK    5  A    between atoms: S_15  and  C_16
REMARK    6  A    between atoms: C_16  and  C_17
REMARK    7  A    between atoms: N_22  and  C_23
REMARK                            x       y       z     vdW  Elec       q    Type
REMARK                         _______ _______ _______ _____ _____    ______ ____
ROOT
ATOM      1  C   UNL     1       6.146  -4.738   0.320  0.00  0.00    +0.173 C 
ENDROOT
BRANCH   1   2
ATOM      2  C   UNL     1       4.832  -4.006   0.226  0.00  0.00    +0.231 C 
ATOM      3  O   UNL     1       3.790  -4.627   0.235  0.00  0.00    -0.274 OA
ATOM      4  N   UNL     1       4.814  -2.662   0.133  0.00  0.00    -0.239 N 
ATOM      5  C   UNL     1       3.639  -2.008   0.049  0.00  0.00    +0.310 C 
ATOM      6  O   UNL     1       2.595  -2.630   0.058  0.00  0.00    -0.252 OA
ATOM      7  N   UNL     1       3.622  -0.663  -0.045  0.00  0.00    -0.269 N 
ATOM      8  H   UNL     1       5.647  -2.166   0.125  0.00  0.00    +0.159 HD
ATOM      9  H   UNL     1       4.454  -0.172  -0.130  0.00  0.00    +0.156 HD
BRANCH   7  10
ATOM     10  C   UNL     1       2.401   0.025  -0.019  0.00  0.00    +0.038 A 
ATOM     11  C   UNL     1       1.346  -0.460   0.741  0.00  0.00    +0.027 A 
ATOM     12  C   UNL     1       0.142   0.218   0.766  0.00  0.00    +0.051 A 
ATOM     13  C   UNL     1      -0.016   1.384   0.032  0.00  0.00    +0.162 A 
ATOM     14  C   UNL     1       1.040   1.873  -0.728  0.00  0.00    +0.164 A 
ATOM     15  C   UNL     1       2.247   1.192  -0.754  0.00  0.00    +0.072 A 
ATOM     16  O   UNL     1       0.906   3.021  -1.448  0.00  0.00    -0.485 OA
ATOM     17  C   UNL     1      -0.429   3.474  -1.696  0.00  0.00    +0.270 C 
ATOM     18  C   UNL     1      -1.215   3.396  -0.380  0.00  0.00    +0.270 C 
ATOM     19  O   UNL     1      -1.212   2.034   0.062  0.00  0.00    -0.485 OA
ENDBRANCH   7  10
ENDBRANCH   1   2
BRANCH   1  20
ATOM     20  S   UNL     1       5.838  -6.518   0.433  0.00  0.00    -0.078 S 
BRANCH  20  31
ATOM     21  N   UNL     1       7.701  -8.456   0.633  0.00  0.00    -0.283 N 
ATOM     22  C   UNL     1       8.957  -8.956   0.703  0.00  0.00    +0.263 A 
ATOM     23  O   UNL     1       9.154 -10.153   0.793  0.00  0.00    -0.267 OA
ATOM     24  C   UNL     1      10.074  -7.998   0.673  0.00  0.00    +0.065 A 
ATOM     25  C   UNL     1      11.401  -8.419   0.746  0.00  0.00    +0.016 A 
ATOM     26  C   UNL     1      12.409  -7.499   0.716  0.00  0.00    +0.016 A 
ATOM     27  C   UNL     1      12.124  -6.132   0.612  0.00  0.00    +0.065 A 
ATOM     28  C   UNL     1      10.809  -5.690   0.538  0.00  0.00    +0.043 A 
ATOM     29  C   UNL     1       9.768  -6.622   0.568  0.00  0.00    +0.080 A 
ATOM     30  N   UNL     1       8.472  -6.237   0.499  0.00  0.00    -0.223 NA
ATOM     31  C   UNL     1       7.495  -7.110   0.528  0.00  0.00    +0.173 A 
BRANCH  27  32
ATOM     32  C   UNL     1      13.231  -5.151   0.580  0.00  0.00    +0.387 C 
ATOM     33  O   UNL     1      12.989  -3.964   0.490  0.00  0.00    -0.241 OA
ATOM     34  O   UNL     1      14.508  -5.574   0.651  0.00  0.00    -0.241 OA
ENDBRANCH  27  32
BRANCH  21  35
ATOM     35  C   UNL     1       6.554  -9.366   0.665  0.00  0.00    +0.154 C 
BRANCH  35  37
ATOM     36  C   UNL     1       6.142 -11.053  -1.051  0.00  0.00    +0.005 C 
ATOM     37  C   UNL     1       6.204  -9.782  -0.741  0.00  0.00    -0.013 C 
ENDBRANCH  35  37
ENDBRANCH  21  35
ENDBRANCH  20  31
ENDBRANCH   1  20
TORSDOF 7
