REMARK  Name = ZINC09167764
REMARK  12 active torsions:
REMARK  status: ('A' for Active; 'I' for Inactive)
REMARK    1  A    between atoms: C_1  and  C_2
REMARK    2  A    between atoms: C_2  and  C_3
REMARK    3  A    between atoms: C_3  and  N_4
REMARK    4  A    between atoms: C_8  and  N_18
REMARK    5  A    between atoms: C_13  and  C_16
REMARK    6  A    between atoms: C_13  and  C_17
REMARK    7  A    between atoms: N_18  and  S_19
REMARK    8  A    between atoms: S_19  and  C_22
REMARK    9  A    between atoms: C_25  and  N_28
REMARK   10  A    between atoms: C_29  and  C_31
REMARK   11  A    between atoms: C_31  and  C_32
REMARK   12  A    between atoms: C_31  and  C_33
REMARK                            x       y       z     vdW  Elec       q    Type
REMARK                         _______ _______ _______ _____ _____    ______ ____
ROOT
ATOM      1  N   UNL     1      -1.383   8.311   1.359  0.00  0.00    -0.216 N 
ATOM      2  H   UNL     1      -2.164   8.733   1.749  0.00  0.00    +0.174 HD
ENDROOT
BRANCH   1   7
ATOM      3  N   UNL     1       3.262   7.739   4.383  0.00  0.00    -0.268 N 
ATOM      4  C   UNL     1       2.099   7.880   3.611  0.00  0.00    +0.078 A 
ATOM      5  C   UNL     1       2.172   8.332   2.304  0.00  0.00    +0.029 A 
ATOM      6  C   UNL     1       1.017   8.474   1.557  0.00  0.00    +0.026 A 
ATOM      7  C   UNL     1      -0.216   8.165   2.116  0.00  0.00    +0.052 A 
ATOM      8  C   UNL     1      -0.293   7.715   3.428  0.00  0.00    +0.072 A 
ATOM      9  C   UNL     1       0.863   7.566   4.175  0.00  0.00    +0.144 A 
ATOM     10  O   UNL     1       0.802   7.114   5.455  0.00  0.00    -0.489 OA
ATOM     11  C   UNL     1       1.206   5.768   5.692  0.00  0.00    +0.244 C 
ATOM     12  C   UNL     1       2.490   5.454   4.927  0.00  0.00    +0.076 C 
ATOM     13  C   UNL     1       3.468   6.591   5.067  0.00  0.00    +0.229 C 
ATOM     14  O   UNL     1       4.434   6.478   5.791  0.00  0.00    -0.275 OA
ATOM     15  C   UNL     1       3.114   4.175   5.488  0.00  0.00    +0.024 C 
ATOM     16  C   UNL     1       2.161   5.251   3.446  0.00  0.00    +0.024 C 
BRANCH   3  17
ATOM     17  C   UNL     1       4.245   8.824   4.447  0.00  0.00    +0.113 C 
BRANCH  17  19
ATOM     18  C   UNL     1       4.924  10.892   5.675  0.00  0.00    +0.005 C 
ATOM     19  C   UNL     1       3.898   9.758   5.608  0.00  0.00    +0.016 C 
ENDBRANCH  17  19
ENDBRANCH   3  17
ENDBRANCH   1   7
BRANCH   1  20
ATOM     20  S   UNL     1      -1.430   7.764  -0.203  0.00  0.00    +0.072 S 
ATOM     21  O   UNL     1      -0.264   8.265  -0.844  0.00  0.00    -0.150 OA
ATOM     22  O   UNL     1      -2.739   8.030  -0.688  0.00  0.00    -0.150 OA
BRANCH  20  23
ATOM     23  C   UNL     1      -1.260   6.011  -0.147  0.00  0.00    +0.109 A 
ATOM     24  C   UNL     1      -2.385   5.212  -0.050  0.00  0.00    +0.030 A 
ATOM     25  C   UNL     1      -2.255   3.838  -0.006  0.00  0.00    +0.025 A 
ATOM     26  C   UNL     1      -0.994   3.259  -0.059  0.00  0.00    +0.034 A 
ATOM     27  C   UNL     1       0.134   4.064  -0.151  0.00  0.00    +0.025 A 
ATOM     28  C   UNL     1      -0.003   5.438  -0.200  0.00  0.00    +0.030 A 
BRANCH  26  29
ATOM     29  N   UNL     1      -0.859   1.867  -0.015  0.00  0.00    -0.285 N 
ATOM     30  C   UNL     1      -1.778   1.081  -0.611  0.00  0.00    +0.220 C 
ATOM     31  O   UNL     1      -2.768   1.576  -1.108  0.00  0.00    -0.275 OA
ATOM     32  H   UNL     1      -0.105   1.467   0.445  0.00  0.00    +0.155 HD
BRANCH  30  33
ATOM     33  C   UNL     1      -1.579  -0.412  -0.654  0.00  0.00    +0.069 C 
ATOM     34  C   UNL     1      -1.490  -0.956   0.773  0.00  0.00    +0.017 C 
ATOM     35  C   UNL     1      -2.761  -1.063  -1.376  0.00  0.00    +0.017 C 
ENDBRANCH  30  33
ENDBRANCH  26  29
ENDBRANCH  20  23
ENDBRANCH   1  20
TORSDOF 7
