REMARK  Name = ZINC06134078
REMARK  8 active torsions:
REMARK  status: ('A' for Active; 'I' for Inactive)
REMARK    1  A    between atoms: C_1  and  C_2
REMARK    2  A    between atoms: C_2  and  O_3
REMARK    3  A    between atoms: O_3  and  C_4
REMARK    4  A    between atoms: C_11  and  C_16
REMARK    5  A    between atoms: C_16  and  C_18
REMARK    6  A    between atoms: C_16  and  N_70
REMARK    7  A    between atoms: N_22  and  C_23
REMARK    8  A    between atoms: N_30  and  C_33
REMARK                            x       y       z     vdW  Elec       q    Type
REMARK                         _______ _______ _______ _____ _____    ______ ____
ROOT
ATOM      1  C   UNL     1       4.958   1.184  -0.037  0.00  0.00    +0.039 C 
ENDROOT
BRANCH   1   9
ATOM      2  C   UNL     1      -1.215   1.754   0.017  0.00  0.00    +0.121 A 
ATOM      3  C   UNL     1      -1.236   3.147   0.031  0.00  0.00    +0.047 A 
ATOM      4  C   UNL     1      -0.062   3.867   0.024  0.00  0.00    +0.030 A 
ATOM      5  C   UNL     1       1.160   3.203   0.008  0.00  0.00    +0.049 A 
ATOM      6  C   UNL     1       1.187   1.796   0.000  0.00  0.00    +0.002 A 
ATOM      7  C   UNL     1      -0.013   1.076   0.008  0.00  0.00    +0.055 A 
ATOM      8  C   UNL     1       2.480   1.110  -0.015  0.00  0.00    +0.017 A 
ATOM      9  C   UNL     1       3.611   1.859  -0.021  0.00  0.00    +0.011 A 
ATOM     10  C   UNL     1       3.530   3.268  -0.013  0.00  0.00    +0.251 A 
ATOM     11  O   UNL     1       4.559   3.922  -0.019  0.00  0.00    -0.268 OA
ATOM     12  N   UNL     1       2.347   3.907   0.002  0.00  0.00    -0.322 N 
ATOM     13  H   UNL     1       2.328   4.907   0.008  0.00  0.00    +0.169 HD
BRANCH   2  14
ATOM     14  O   UNL     1      -2.383   1.060   0.019  0.00  0.00    -0.492 OA
BRANCH  14  16
ATOM     15  C   UNL     1      -4.793   0.875   0.028  0.00  0.00    +0.048 C 
ATOM     16  C   UNL     1      -3.591   1.823   0.028  0.00  0.00    +0.225 C 
ENDBRANCH  14  16
ENDBRANCH   2  14
ENDBRANCH   1   9
BRANCH   1  22
ATOM     17  C   UNL     1       5.018   1.481  -2.440  0.00  0.00    -0.058 C 
ATOM     18  C   UNL     1       5.830   2.082  -3.590  0.00  0.00    +0.086 C 
ATOM     19  N   UNL     1       7.154   1.444  -3.637  0.00  0.00    -0.333 N 
ATOM     20  C   UNL     1       7.877   1.644  -2.373  0.00  0.00    +0.086 C 
ATOM     21  C   UNL     1       7.064   1.043  -1.223  0.00  0.00    -0.058 C 
ATOM     22  N   UNL     1       5.745   1.708  -1.173  0.00  0.00    +0.391 N 
ATOM     23  H   UNL     1       5.885   2.717  -1.045  0.00  0.00    -0.080 HD
BRANCH  19  24
ATOM     24  C   UNL     1       7.898   1.916  -4.720  0.00  0.00    +0.030 A 
ATOM     25  C   UNL     1       9.147   2.488  -4.510  0.00  0.00    +0.023 A 
ATOM     26  C   UNL     1       9.883   2.950  -5.583  0.00  0.00    +0.002 A 
ATOM     27  C   UNL     1       9.374   2.853  -6.865  0.00  0.00    +0.000 A 
ATOM     28  C   UNL     1       8.129   2.289  -7.078  0.00  0.00    +0.002 A 
ATOM     29  C   UNL     1       7.390   1.821  -6.009  0.00  0.00    +0.023 A 
ENDBRANCH  19  24
ENDBRANCH   1  22
BRANCH   1  30
ATOM     30  C   UNL     1       5.688   1.489   1.246  0.00  0.00    +0.143 A 
ATOM     31  N   UNL     1       6.263   2.622   1.568  0.00  0.00    -0.115 NA
ATOM     32  N   UNL     1       6.776   2.487   2.742  0.00  0.00    -0.023 NA
ATOM     33  N   UNL     1       6.543   1.298   3.177  0.00  0.00    -0.044 NA
ATOM     34  N   UNL     1       5.870   0.654   2.285  0.00  0.00    -0.227 N 
BRANCH  34  35
ATOM     35  C   UNL     1       5.395  -0.729   2.384  0.00  0.00    +0.111 C 
ATOM     36  C   UNL     1       4.489  -0.889   3.622  0.00  0.00    +0.027 C 
ATOM     37  C   UNL     1       4.835  -2.300   4.164  0.00  0.00    +0.002 C 
ATOM     38  C   UNL     1       6.364  -2.389   3.936  0.00  0.00    +0.002 C 
ATOM     39  C   UNL     1       6.587  -1.682   2.583  0.00  0.00    +0.027 C 
ENDBRANCH  34  35
ENDBRANCH   1  30
TORSDOF 7
