REMARK  Name = ZINC38903450
REMARK  14 active torsions:
REMARK  status: ('A' for Active; 'I' for Inactive)
REMARK    1  A    between atoms: C_1  and  C_2
REMARK    2  A    between atoms: C_2  and  O_3
REMARK    3  A    between atoms: O_3  and  C_4
REMARK    4  A    between atoms: C_7  and  C_10
REMARK    5  A    between atoms: C_10  and  C_12
REMARK    6  A    between atoms: C_10  and  N_13
REMARK    7  A    between atoms: C_14  and  C_16
REMARK    8  A    between atoms: N_21  and  C_23
REMARK    9  A    between atoms: C_23  and  C_24
REMARK   10  A    between atoms: C_26  and  C_29
REMARK   11  A    between atoms: C_32  and  C_35
REMARK   12  A    between atoms: C_35  and  C_36
REMARK   13  A    between atoms: C_35  and  C_37
REMARK   14  A    between atoms: C_35  and  C_38
REMARK                            x       y       z     vdW  Elec       q    Type
REMARK                         _______ _______ _______ _____ _____    ______ ____
ROOT
ATOM      1  C   UNL     1       4.379  -7.944   2.565  0.00  0.00    +0.058 C 
ATOM      2  C   UNL     1       5.407  -6.973   1.978  0.00  0.00    +0.009 C 
ATOM      3  C   UNL     1       6.805  -7.374   2.457  0.00  0.00    -0.018 C 
ATOM      4  C   UNL     1       7.080  -8.824   2.052  0.00  0.00    -0.078 C 
ATOM      5  N   UNL     1       6.080  -9.705   2.667  0.00  0.00    +0.386 N 
ATOM      6  C   UNL     1       4.743  -9.373   2.158  0.00  0.00    -0.065 C 
ATOM      7  H   UNL     1       6.096  -9.584   3.668  0.00  0.00    -0.081 HD
ENDROOT
BRANCH   1   9
ATOM      8  N   UNL     1       2.477  -6.389   2.276  0.00  0.00    -0.309 N 
ATOM      9  C   UNL     1       3.008  -7.605   2.039  0.00  0.00    +0.215 C 
ATOM     10  O   UNL     1       2.383  -8.426   1.402  0.00  0.00    -0.276 OA
ATOM     11  H   UNL     1       2.977  -5.732   2.785  0.00  0.00    +0.149 HD
BRANCH   8  12
ATOM     12  C   UNL     1       1.144  -6.059   1.764  0.00  0.00    +0.100 C 
ATOM     13  C   UNL     1       0.083  -6.553   2.750  0.00  0.00    +0.033 C 
BRANCH  12  17
ATOM     14  C   UNL     1       0.802  -1.824   1.306  0.00  0.00    +0.121 A 
ATOM     15  C   UNL     1       0.260  -2.673   0.351  0.00  0.00    +0.046 A 
ATOM     16  C   UNL     1       0.372  -4.041   0.502  0.00  0.00    +0.009 A 
ATOM     17  C   UNL     1       1.024  -4.566   1.603  0.00  0.00    -0.027 A 
ATOM     18  C   UNL     1       1.565  -3.722   2.555  0.00  0.00    +0.009 A 
ATOM     19  C   UNL     1       1.460  -2.353   2.406  0.00  0.00    +0.046 A 
BRANCH  14  20
ATOM     20  O   UNL     1       0.693  -0.477   1.160  0.00  0.00    -0.492 OA
BRANCH  20  22
ATOM     21  C   UNL     1      -0.019   1.526   0.010  0.00  0.00    +0.048 C 
ATOM     22  C   UNL     1       0.002  -0.004   0.002  0.00  0.00    +0.225 C 
ENDBRANCH  20  22
ENDBRANCH  14  20
ENDBRANCH  12  17
ENDBRANCH   8  12
ENDBRANCH   1   9
BRANCH   5  23
ATOM     23  C   UNL     1       6.393 -11.102   2.340  0.00  0.00    +0.022 C 
BRANCH  23  24
ATOM     24  C   UNL     1       7.705 -11.485   2.975  0.00  0.00    +0.211 A 
ATOM     25  N   UNL     1       7.855 -12.000   4.161  0.00  0.00    -0.193 NA
ATOM     26  C   UNL     1       9.159 -12.218   4.408  0.00  0.00    +0.202 A 
ATOM     27  N   UNL     1       9.852 -11.835   3.364  0.00  0.00    -0.056 NA
ATOM     28  O   UNL     1       8.914 -11.356   2.412  0.00  0.00    -0.340 OA
BRANCH  26  29
ATOM     29  C   UNL     1       9.720 -12.794   5.655  0.00  0.00    +0.022 A 
ATOM     30  C   UNL     1       8.873 -13.167   6.696  0.00  0.00    +0.012 A 
ATOM     31  C   UNL     1       9.400 -13.703   7.854  0.00  0.00    +0.005 A 
ATOM     32  C   UNL     1      10.767 -13.869   7.982  0.00  0.00    -0.042 A 
ATOM     33  C   UNL     1      11.613 -13.500   6.952  0.00  0.00    +0.005 A 
ATOM     34  C   UNL     1      11.096 -12.969   5.787  0.00  0.00    +0.012 A 
BRANCH  32  35
ATOM     35  C   UNL     1      11.337 -14.453   9.249  0.00  0.00    -0.013 C 
ATOM     36  C   UNL     1      10.770 -15.858   9.462  0.00  0.00    +0.015 C 
ATOM     37  C   UNL     1      12.861 -14.529   9.135  0.00  0.00    +0.015 C 
ATOM     38  C   UNL     1      10.957 -13.565  10.436  0.00  0.00    +0.015 C 
ENDBRANCH  32  35
ENDBRANCH  26  29
ENDBRANCH  23  24
ENDBRANCH   5  23
TORSDOF 9
