REMARK  Name = ZINC08855438
REMARK  10 active torsions:
REMARK  status: ('A' for Active; 'I' for Inactive)
REMARK    1  A    between atoms: C_3  and  O_30
REMARK    2  A    between atoms: C_6  and  N_7
REMARK    3  A    between atoms: N_7  and  C_8
REMARK    4  A    between atoms: C_9  and  C_10
REMARK    5  A    between atoms: C_10  and  C_12
REMARK    6  A    between atoms: C_15  and  C_18
REMARK    7  A    between atoms: C_18  and  N_19
REMARK    8  A    between atoms: N_19  and  C_20
REMARK    9  A    between atoms: C_23  and  C_25
REMARK   10  A    between atoms: O_30  and  C_31
REMARK                            x       y       z     vdW  Elec       q    Type
REMARK                         _______ _______ _______ _____ _____    ______ ____
ROOT
ATOM      1  C   UNL     1      -7.282   0.948   0.040  0.00  0.00    +0.130 C 
ATOM      2  N   UNL     1      -7.397  -0.337   0.028  0.00  0.00    -0.085 NA
ATOM      3  O   UNL     1      -8.743  -0.768   0.029  0.00  0.00    -0.388 OA
ATOM      4  C   UNL     1      -9.559   0.345   0.448  0.00  0.00    +0.227 C 
ATOM      5  C   UNL     1      -8.674   1.550   0.050  0.00  0.00    +0.111 C 
ENDROOT
BRANCH   1   6
ATOM      6  C   UNL     1      -6.012   1.703   0.039  0.00  0.00    +0.205 C 
ATOM      7  O   UNL     1      -6.028   2.921   0.046  0.00  0.00    -0.286 OA
BRANCH   6   9
ATOM      8  C   UNL     1      -3.617   1.706   0.028  0.00  0.00    +0.076 C 
ATOM      9  C   UNL     1      -4.781   1.013   0.029  0.00  0.00    +0.068 C 
BRANCH   8  10
ATOM     10  N   UNL     1      -2.427   1.039   0.019  0.00  0.00    -0.320 N 
ATOM     11  H   UNL     1      -2.414   0.069   0.013  0.00  0.00    +0.152 HD
BRANCH  10  17
ATOM     12  C   UNL     1      -0.013   1.076   0.008  0.00  0.00    +0.027 A 
ATOM     13  C   UNL     1       1.173   1.783   0.000  0.00  0.00    +0.048 A 
ATOM     14  C   UNL     1       1.155   3.170   0.008  0.00  0.00    +0.130 A 
ATOM     15  C   UNL     1      -0.055   3.848   0.023  0.00  0.00    +0.048 A 
ATOM     16  C   UNL     1      -1.242   3.143   0.031  0.00  0.00    +0.027 A 
ATOM     17  C   UNL     1      -1.225   1.754   0.017  0.00  0.00    +0.031 A 
BRANCH  14  18
ATOM     18  O   UNL     1       2.323   3.865  -0.001  0.00  0.00    -0.406 OA
BRANCH  18  19
ATOM     19  C   UNL     1       2.230   5.291   0.007  0.00  0.00    +0.575 C 
ATOM     20  F   UNL     1       1.553   5.707   1.159  0.00  0.00    -0.133 F 
ATOM     21  F   UNL     1       3.516   5.842  -0.003  0.00  0.00    -0.133 F 
ATOM     22  F   UNL     1       1.530   5.719  -1.126  0.00  0.00    -0.133 F 
ENDBRANCH  18  19
ENDBRANCH  14  18
ENDBRANCH  10  17
ENDBRANCH   8  10
ENDBRANCH   6   9
ENDBRANCH   1   6
BRANCH   4  23
ATOM     23  C   UNL     1     -10.887   0.366  -0.311  0.00  0.00    +0.150 C 
BRANCH  23  24
ATOM     24  N   UNL     1     -11.745  -0.717   0.175  0.00  0.00    -0.326 N 
ATOM     25  H   UNL     1     -11.429  -1.308   0.877  0.00  0.00    +0.148 HD
BRANCH  24  26
ATOM     26  C   UNL     1     -13.012  -0.898  -0.369  0.00  0.00    +0.115 A 
ATOM     27  C   UNL     1     -13.820  -1.933   0.094  0.00  0.00    +0.079 A 
ATOM     28  C   UNL     1     -15.081  -2.098  -0.453  0.00  0.00    +0.037 A 
ATOM     29  C   UNL     1     -15.487  -1.227  -1.455  0.00  0.00    +0.072 A 
ATOM     30  C   UNL     1     -14.632  -0.226  -1.869  0.00  0.00    +0.096 A 
ATOM     31 CL   UNL     1     -13.257  -2.998   1.345  0.00  0.00    -0.080 Cl
ATOM     32  N   UNL     1     -13.389  -0.031  -1.351  0.00  0.00    -0.348 N 
ATOM     33  H   UNL     1     -12.774   0.723  -1.680  0.00  0.00    +0.167 HD
BRANCH  29  34
ATOM     34  C   UNL     1     -16.849  -1.373  -2.084  0.00  0.00    +0.419 C 
ATOM     35  F   UNL     1     -17.020  -0.385  -3.060  0.00  0.00    -0.166 F 
ATOM     36  F   UNL     1     -16.956  -2.636  -2.676  0.00  0.00    -0.166 F 
ATOM     37  F   UNL     1     -17.834  -1.233  -1.101  0.00  0.00    -0.166 F 
ENDBRANCH  29  34
ENDBRANCH  24  26
ENDBRANCH  23  24
ENDBRANCH   4  23
TORSDOF 10
