REMARK  Name = ZINC38657027
REMARK  13 active torsions:
REMARK  status: ('A' for Active; 'I' for Inactive)
REMARK    1  A    between atoms: C_1  and  C_2
REMARK    2  A    between atoms: C_2  and  C_4
REMARK    3  A    between atoms: C_2  and  O_31
REMARK    4  A    between atoms: C_4  and  O_6
REMARK    5  A    between atoms: O_6  and  C_7
REMARK    6  A    between atoms: C_14  and  N_30
REMARK    7  A    between atoms: C_15  and  C_28
REMARK    8  A    between atoms: C_16  and  C_18
REMARK    9  A    between atoms: C_21  and  O_26
REMARK   10  A    between atoms: C_23  and  O_24
REMARK   11  A    between atoms: O_24  and  C_25
REMARK   12  A    between atoms: O_26  and  C_27
REMARK   13  A    between atoms: O_31  and  C_32
REMARK                            x       y       z     vdW  Elec       q    Type
REMARK                         _______ _______ _______ _____ _____    ______ ____
ROOT
ATOM      1  C   UNL     1       2.077  -1.238  -2.962  0.00  0.00    +0.135 A 
ATOM      2  C   UNL     1       0.973  -1.573  -3.733  0.00  0.00    +0.047 A 
ATOM      3  C   UNL     1       1.146  -2.211  -4.945  0.00  0.00    +0.012 A 
ATOM      4  C   UNL     1       2.418  -2.519  -5.395  0.00  0.00    +0.008 A 
ATOM      5  C   UNL     1       3.524  -2.187  -4.629  0.00  0.00    +0.138 A 
ATOM      6  C   UNL     1       3.351  -1.539  -3.412  0.00  0.00    +0.093 A 
ATOM      7  O   UNL     1       4.778  -2.480  -5.053  0.00  0.00    -0.441 OA
ATOM      8  C   UNL     1       4.963  -3.414  -6.001  0.00  0.00    +0.199 C 
ATOM      9  C   UNL     1       3.963  -3.808  -6.825  0.00  0.00    +0.098 C 
ATOM     10  C   UNL     1       2.586  -3.216  -6.720  0.00  0.00    +0.101 C 
ENDROOT
BRANCH  10  11
ATOM     11  C   UNL     1       2.383  -2.223  -7.835  0.00  0.00    +0.007 A 
ATOM     12  C   UNL     1       3.208  -1.118  -7.934  0.00  0.00    +0.012 A 
ATOM     13  C   UNL     1       3.024  -0.206  -8.956  0.00  0.00    +0.046 A 
ATOM     14  C   UNL     1       2.011  -0.397  -9.885  0.00  0.00    +0.124 A 
ATOM     15  C   UNL     1       1.183  -1.504  -9.787  0.00  0.00    +0.091 A 
ATOM     16  C   UNL     1       1.372  -2.421  -8.765  0.00  0.00    +0.128 A 
BRANCH  16  17
ATOM     17  O   UNL     1       0.566  -3.511  -8.670  0.00  0.00    -0.495 OA
ATOM     18  C   UNL     1      -0.454  -3.651  -9.661  0.00  0.00    +0.277 C 
ENDBRANCH  16  17
BRANCH  14  19
ATOM     19  O   UNL     1       1.831   0.501 -10.889  0.00  0.00    -0.495 OA
ATOM     20  C   UNL     1       2.721   1.618 -10.928  0.00  0.00    +0.277 C 
ENDBRANCH  14  19
ENDBRANCH  10  11
BRANCH   8  21
ATOM     21  N   UNL     1       6.204  -3.985  -6.139  0.00  0.00    -0.328 N 
ATOM     22  H   UNL     1       6.931  -3.713  -5.557  0.00  0.00    +0.145 HD
ATOM     23  H   UNL     1       6.354  -4.661  -6.819  0.00  0.00    +0.145 HD
ENDBRANCH   8  21
BRANCH   9  24
ATOM     24  C   UNL     1       4.223  -4.808  -7.816  0.00  0.00    +0.101 C 
ATOM     25  N   UNL     1       4.430  -5.602  -8.602  0.00  0.00    -0.191 NA
ENDBRANCH   9  24
BRANCH   1  26
ATOM     26  O   UNL     1       1.907  -0.609  -1.768  0.00  0.00    -0.423 OA
BRANCH  26  27
ATOM     27  C   UNL     1       1.498  -1.343  -0.722  0.00  0.00    +0.353 C 
ATOM     28  O   UNL     1       1.337  -2.535  -0.845  0.00  0.00    -0.246 OA
BRANCH  27  30
ATOM     29  C   UNL     1       0.060   0.285   0.475  0.00  0.00    +0.064 C 
ATOM     30  C   UNL     1       1.239  -0.682   0.607  0.00  0.00    +0.279 C 
BRANCH  30  31
ATOM     31  O   UNL     1       0.929  -1.679   1.583  0.00  0.00    -0.478 OA
BRANCH  31  32
ATOM     32  C   UNL     1       1.141  -1.354   2.886  0.00  0.00    +0.122 A 
ATOM     33  C   UNL     1       0.917  -2.295   3.881  0.00  0.00    +0.048 A 
ATOM     34  C   UNL     1       1.133  -1.963   5.205  0.00  0.00    +0.042 A 
ATOM     35  C   UNL     1       1.572  -0.693   5.538  0.00  0.00    +0.124 A 
ATOM     36  C   UNL     1       1.795   0.247   4.546  0.00  0.00    +0.042 A 
ATOM     37  C   UNL     1       1.587  -0.084   3.221  0.00  0.00    +0.048 A 
ATOM     38  F   UNL     1       1.782  -0.370   6.833  0.00  0.00    -0.205 F 
ENDBRANCH  31  32
ENDBRANCH  30  31
ENDBRANCH  27  30
ENDBRANCH  26  27
ENDBRANCH   1  26
TORSDOF 10
