REMARK  Name = ZINC31371317
REMARK  32 active torsions:
REMARK  status: ('A' for Active; 'I' for Inactive)
REMARK    1  A    between atoms: C_1  and  C_2
REMARK    2  A    between atoms: C_2  and  C_3
REMARK    3  A    between atoms: C_2  and  C_4
REMARK    4  A    between atoms: C_4  and  C_6
REMARK    5  A    between atoms: C_4  and  O_16
REMARK    6  A    between atoms: C_6  and  C_7
REMARK    7  A    between atoms: C_6  and  C_8
REMARK    8  A    between atoms: C_6  and  C_9
REMARK    9  A    between atoms: C_9  and  O_10
REMARK   10  A    between atoms: O_10  and  C_11
REMARK   11  A    between atoms: C_11  and  C_13
REMARK   12  A    between atoms: C_13  and  C_14
REMARK   13  A    between atoms: C_13  and  C_15
REMARK   14  A    between atoms: O_16  and  C_17
REMARK   15  A    between atoms: C_17  and  C_19
REMARK   16  A    between atoms: C_19  and  C_20
REMARK   17  A    between atoms: C_20  and  C_21
REMARK   18  A    between atoms: C_21  and  C_22
REMARK   19  A    between atoms: C_22  and  O_24
REMARK   20  A    between atoms: O_24  and  C_25
REMARK   21  A    between atoms: C_25  and  C_27
REMARK   22  A    between atoms: C_25  and  C_30
REMARK   23  A    between atoms: C_27  and  C_28
REMARK   24  A    between atoms: C_27  and  C_29
REMARK   25  A    between atoms: C_30  and  C_31
REMARK   26  A    between atoms: C_30  and  C_32
REMARK   27  A    between atoms: C_30  and  C_33
REMARK   28  A    between atoms: C_33  and  O_34
REMARK   29  A    between atoms: O_34  and  C_35
REMARK   30  A    between atoms: C_35  and  C_37
REMARK   31  A    between atoms: C_37  and  C_38
REMARK   32  A    between atoms: C_37  and  C_39
REMARK                            x       y       z     vdW  Elec       q    Type
REMARK                         _______ _______ _______ _____ _____    ______ ____
ROOT
ATOM      1  C   UNL     1      -1.613   4.757   0.491  0.00  0.00    +0.022 C 
ENDROOT
BRANCH   1   2
ATOM      2  C   UNL     1      -2.474   6.020   0.432  0.00  0.00    +0.121 C 
BRANCH   2   3
ATOM      3  C   UNL     1      -1.630   7.221   0.773  0.00  0.00    +0.307 C 
ATOM      4  O   UNL     1      -0.459   7.081   1.036  0.00  0.00    -0.251 OA
BRANCH   3   5
ATOM      5  O   UNL     1      -2.179   8.446   0.785  0.00  0.00    -0.460 OA
BRANCH   5   6
ATOM      6  C   UNL     1      -1.306   9.556   1.123  0.00  0.00    +0.188 C 
BRANCH   6   7
ATOM      7  C   UNL     1      -2.121  10.657   1.803  0.00  0.00    +0.036 C 
ATOM      8  C   UNL     1      -3.500  10.750   1.147  0.00  0.00    +0.018 C 
ATOM      9  C   UNL     1      -2.284  10.328   3.288  0.00  0.00    +0.018 C 
BRANCH   7  10
ATOM     10  C   UNL     1      -1.394  11.995   1.654  0.00  0.00    +0.242 C 
BRANCH  10  11
ATOM     11  O   UNL     1      -2.168  13.041   2.300  0.00  0.00    -0.464 OA
BRANCH  11  12
ATOM     12  C   UNL     1      -1.665  14.285   2.260  0.00  0.00    +0.310 C 
ATOM     13  O   UNL     1      -0.613  14.493   1.703  0.00  0.00    -0.251 OA
BRANCH  12  14
ATOM     14  C   UNL     1      -2.413  15.421   2.908  0.00  0.00    +0.092 C 
ATOM     15  C   UNL     1      -2.576  15.137   4.402  0.00  0.00    +0.019 C 
ATOM     16  C   UNL     1      -1.628  16.721   2.719  0.00  0.00    +0.019 C 
ENDBRANCH  12  14
ENDBRANCH  11  12
ENDBRANCH  10  11
ENDBRANCH   7  10
ENDBRANCH   6   7
BRANCH   6  17
ATOM     17  C   UNL     1      -0.667  10.108  -0.153  0.00  0.00    +0.024 C 
ATOM     18  C   UNL     1       0.261   9.053  -0.757  0.00  0.00    +0.011 C 
ATOM     19  C   UNL     1      -1.763  10.460  -1.161  0.00  0.00    +0.011 C 
ENDBRANCH   6  17
ENDBRANCH   5   6
ENDBRANCH   3   5
ENDBRANCH   2   3
ENDBRANCH   1   2
BRANCH   1  20
ATOM     20  C   UNL     1      -2.470   3.538   0.144  0.00  0.00    +0.121 C 
BRANCH  20  21
ATOM     21  C   UNL     1      -1.621   2.294   0.202  0.00  0.00    +0.307 C 
ATOM     22  O   UNL     1      -0.450   2.375   0.490  0.00  0.00    -0.251 OA
BRANCH  21  23
ATOM     23  O   UNL     1      -2.165   1.097  -0.068  0.00  0.00    -0.460 OA
BRANCH  23  24
ATOM     24  C   UNL     1      -1.288  -0.057   0.007  0.00  0.00    +0.188 C 
BRANCH  24  25
ATOM     25  C   UNL     1      -1.767  -1.126  -0.978  0.00  0.00    +0.036 C 
ATOM     26  C   UNL     1      -1.769  -0.549  -2.395  0.00  0.00    +0.018 C 
ATOM     27  C   UNL     1      -3.184  -1.566  -0.604  0.00  0.00    +0.018 C 
BRANCH  25  28
ATOM     28  C   UNL     1      -0.827  -2.331  -0.919  0.00  0.00    +0.242 C 
BRANCH  28  29
ATOM     29  O   UNL     1      -1.187  -3.277  -1.961  0.00  0.00    -0.464 OA
BRANCH  29  30
ATOM     30  C   UNL     1      -0.454  -4.398  -2.046  0.00  0.00    +0.310 C 
ATOM     31  O   UNL     1       0.459  -4.583  -1.276  0.00  0.00    -0.251 OA
BRANCH  30  32
ATOM     32  C   UNL     1      -0.769  -5.426  -3.102  0.00  0.00    +0.092 C 
ATOM     33  C   UNL     1      -0.636  -4.791  -4.488  0.00  0.00    +0.019 C 
ATOM     34  C   UNL     1       0.209  -6.597  -2.982  0.00  0.00    +0.019 C 
ENDBRANCH  30  32
ENDBRANCH  29  30
ENDBRANCH  28  29
ENDBRANCH  25  28
ENDBRANCH  24  25
BRANCH  24  36
ATOM     35  C   UNL     1      -0.026  -1.413   1.684  0.00  0.00    +0.011 C 
ATOM     36  C   UNL     1      -1.312  -0.625   1.427  0.00  0.00    +0.024 C 
ATOM     37  C   UNL     1      -1.417   0.522   2.434  0.00  0.00    +0.011 C 
ENDBRANCH  24  36
ENDBRANCH  23  24
ENDBRANCH  21  23
ENDBRANCH  20  21
ENDBRANCH   1  20
TORSDOF 20
