REMARK  Name = ZINC04078847
REMARK  4 active torsions:
REMARK  status: ('A' for Active; 'I' for Inactive)
REMARK    1  A    between atoms: C_3  and  N_23
REMARK    2  A    between atoms: C_6  and  C_7
REMARK    3  A    between atoms: C_8  and  C_9
REMARK    4  A    between atoms: C_14  and  C_17
REMARK                            x       y       z     vdW  Elec       q    Type
REMARK                         _______ _______ _______ _____ _____    ______ ____
ROOT
ATOM      1  C   UNL     1      -1.156  -0.694   0.009  0.00  0.00    +0.243 C 
ATOM      2  O   UNL     1      -2.218  -0.100   0.023  0.00  0.00    -0.270 OA
ATOM      3  N   UNL     1       0.002  -0.004   0.002  0.00  0.00    -0.261 N 
ATOM      4  C   UNL     1      -0.017   1.364   0.009  0.00  0.00    +0.165 A 
ATOM      5  N   UNL     1       1.009   2.194   0.004  0.00  0.00    -0.224 NA
ATOM      6  C   UNL     1       0.826   3.502   0.013  0.00  0.00    +0.087 A 
ATOM      7  C   UNL     1      -0.584   3.964   0.029  0.00  0.00    +0.077 A 
ATOM      8  S   UNL     1      -1.433   2.449   0.021  0.00  0.00    -0.060 S 
ATOM      9  H   UNL     1       0.849  -0.478  -0.009  0.00  0.00    +0.157 HD
ENDROOT
BRANCH   6  10
ATOM     10  C   UNL     1       1.897   4.397   0.007  0.00  0.00    +0.040 A 
ATOM     11  C   UNL     1       3.342   4.116  -0.002  0.00  0.00    +0.019 A 
ATOM     12  C   UNL     1       4.143   5.187  -0.011  0.00  0.00    +0.028 A 
ATOM     13  C   UNL     1       3.581   6.471   0.001  0.00  0.00    +0.079 A 
ATOM     14  S   UNL     1       1.872   6.181   0.017  0.00  0.00    -0.075 S 
ATOM     15 CL   UNL     1       4.406   7.998   0.002  0.00  0.00    -0.076 Cl
ENDBRANCH   6  10
BRANCH   1  17
ATOM     16  C   UNL     1      -2.295  -2.847   0.009  0.00  0.00    +0.013 C 
ATOM     17  C   UNL     1      -1.136  -2.156   0.001  0.00  0.00    +0.068 C 
BRANCH  16  23
ATOM     18  C   UNL     1      -1.057  -5.005  -0.021  0.00  0.00    +0.010 A 
ATOM     19  C   UNL     1      -1.046  -6.384  -0.023  0.00  0.00    +0.033 A 
ATOM     20  C   UNL     1      -2.238  -7.088  -0.015  0.00  0.00    +0.126 A 
ATOM     21  C   UNL     1      -3.448  -6.416   0.000  0.00  0.00    +0.033 A 
ATOM     22  C   UNL     1      -3.475  -5.038   0.008  0.00  0.00    +0.010 A 
ATOM     23  C   UNL     1      -2.275  -4.318   0.001  0.00  0.00    -0.025 A 
BRANCH  20  24
ATOM     24  N   UNL     1      -2.218  -8.568  -0.023  0.00  0.00    +0.056 N 
ATOM     25  O   UNL     1      -3.349  -9.242  -0.016  0.00  0.00    -0.126 OA
ATOM     26  O   UNL     1      -1.068  -9.211  -0.038  0.00  0.00    -0.126 OA
ENDBRANCH  20  24
ENDBRANCH  16  23
ENDBRANCH   1  17
TORSDOF 4
