REMARK  Name = ZINC20238752
REMARK  6 active torsions:
REMARK  status: ('A' for Active; 'I' for Inactive)
REMARK    1  A    between atoms: C_4  and  O_7
REMARK    2  A    between atoms: O_7  and  C_8
REMARK    3  A    between atoms: C_8  and  C_9
REMARK    4  A    between atoms: C_15  and  C_16
REMARK    5  A    between atoms: C_19  and  S_21
REMARK    6  A    between atoms: S_21  and  C_22
REMARK                            x       y       z     vdW  Elec       q    Type
REMARK                         _______ _______ _______ _____ _____    ______ ____
ROOT
ATOM      1  C   UNL     1       4.408  -1.304  -2.621  0.00  0.00    +0.137 C 
ATOM      2  N   UNL     1       5.525  -1.028  -2.012  0.00  0.00    -0.166 NA
ATOM      3  N   UNL     1       6.463  -2.006  -1.761  0.00  0.00    -0.152 N 
ATOM      4  C   UNL     1       7.660  -1.836  -1.034  0.00  0.00    +0.153 C 
ATOM      5  N   UNL     1       7.842  -0.874  -0.163  0.00  0.00    -0.283 NA
ATOM      6  C   UNL     1       8.694  -2.853  -1.352  0.00  0.00    +0.084 C 
ATOM      7  C   UNL     1      10.053  -2.549  -1.330  0.00  0.00    +0.063 C 
ATOM      8  C   UNL     1       8.206  -4.206  -1.694  0.00  0.00    +0.273 C 
ATOM      9  O   UNL     1       8.911  -5.189  -1.526  0.00  0.00    -0.268 OA
ATOM     10  N   UNL     1       6.960  -4.324  -2.197  0.00  0.00    -0.152 NA
ATOM     11  C   UNL     1       6.188  -3.269  -2.242  0.00  0.00    +0.181 C 
ATOM     12  S   UNL     1       4.564  -3.059  -2.924  0.00  0.00    -0.035 S 
ATOM     13  H   UNL     1       7.147  -0.213  -0.018  0.00  0.00    +0.188 HD
ENDROOT
BRANCH   7  14
ATOM     14  C   UNL     1      10.469  -1.217  -1.253  0.00  0.00    +0.130 A 
ATOM     15  C   UNL     1      11.782  -0.778  -1.113  0.00  0.00    +0.050 A 
ATOM     16  C   UNL     1      11.739   0.612  -1.080  0.00  0.00    +0.057 A 
ATOM     17  C   UNL     1      10.415   0.981  -1.199  0.00  0.00    +0.167 A 
ATOM     18  O   UNL     1       9.667  -0.129  -1.308  0.00  0.00    -0.449 OA
BRANCH  17  19
ATOM     19  S   UNL     1       9.806   2.635  -1.213  0.00  0.00    -0.051 S 
BRANCH  19  20
ATOM     20  C   UNL     1       9.621   3.006  -2.925  0.00  0.00    +0.023 A 
ATOM     21  C   UNL     1      10.015   2.094  -3.882  0.00  0.00    +0.016 A 
ATOM     22  C   UNL     1       9.874   2.378  -5.237  0.00  0.00    +0.002 A 
ATOM     23  C   UNL     1       9.344   3.561  -5.655  0.00  0.00    +0.008 A 
ATOM     24  C   UNL     1       8.930   4.518  -4.713  0.00  0.00    -0.017 A 
ATOM     25  C   UNL     1       9.064   4.238  -3.330  0.00  0.00    -0.004 A 
ATOM     26  C   UNL     1       8.645   5.192  -2.391  0.00  0.00    +0.009 A 
ATOM     27  C   UNL     1       8.112   6.371  -2.818  0.00  0.00    +0.001 A 
ATOM     28  C   UNL     1       7.974   6.644  -4.177  0.00  0.00    +0.001 A 
ATOM     29  C   UNL     1       8.380   5.747  -5.117  0.00  0.00    +0.008 A 
ENDBRANCH  19  20
ENDBRANCH  17  19
ENDBRANCH   7  14
BRANCH   1  30
ATOM     30  C   UNL     1       3.270  -0.381  -2.975  0.00  0.00    +0.293 C 
BRANCH  30  31
ATOM     31  O   UNL     1       3.579   0.944  -2.539  0.00  0.00    -0.485 OA
BRANCH  31  35
ATOM     32  C   UNL     1       0.761   3.864  -3.281  0.00  0.00    +0.000 A 
ATOM     33  C   UNL     1       1.940   4.191  -2.636  0.00  0.00    +0.004 A 
ATOM     34  C   UNL     1       2.885   3.215  -2.386  0.00  0.00    +0.045 A 
ATOM     35  C   UNL     1       2.651   1.906  -2.783  0.00  0.00    +0.121 A 
ATOM     36  C   UNL     1       1.467   1.581  -3.430  0.00  0.00    +0.045 A 
ATOM     37  C   UNL     1       0.525   2.561  -3.678  0.00  0.00    +0.004 A 
ENDBRANCH  31  35
ENDBRANCH  30  31
ENDBRANCH   1  30
TORSDOF 6
