REMARK  Name = ZINC19498244
REMARK  7 active torsions:
REMARK  status: ('A' for Active; 'I' for Inactive)
REMARK    1  A    between atoms: C_1  and  C_2
REMARK    2  A    between atoms: C_7  and  C_12
REMARK    3  A    between atoms: C_18  and  C_20
REMARK    4  A    between atoms: C_22  and  C_28
REMARK    5  A    between atoms: C_28  and  C_29
REMARK    6  A    between atoms: C_29  and  C_30
REMARK    7  A    between atoms: C_29  and  C_31
REMARK                            x       y       z     vdW  Elec       q    Type
REMARK                         _______ _______ _______ _____ _____    ______ ____
ROOT
ATOM      1  C   UNL     1      -2.449  -5.097   2.284  0.00  0.00    +0.080 A 
ATOM      2  C   UNL     1      -2.020  -6.086   3.126  0.00  0.00    +0.076 A 
ATOM      3  S   UNL     1      -3.408  -7.211   3.049  0.00  0.00    -0.060 S 
ATOM      4  C   UNL     1      -4.406  -6.257   1.914  0.00  0.00    +0.165 A 
ATOM      5  N   UNL     1      -3.634  -5.207   1.704  0.00  0.00    -0.225 NA
ATOM      6  N   UNL     1      -5.661  -6.543   1.395  0.00  0.00    -0.259 N 
ATOM      7  C   UNL     1      -6.291  -7.681   1.745  0.00  0.00    +0.268 C 
ATOM      8  O   UNL     1      -5.761  -8.458   2.513  0.00  0.00    -0.268 OA
ATOM      9  H   UNL     1      -6.084  -5.923   0.781  0.00  0.00    +0.157 HD
ENDROOT
BRANCH   1  15
ATOM     10  C   UNL     1      -0.019   1.526   0.010  0.00  0.00    +0.052 C 
ATOM     11  C   UNL     1       0.002  -0.004   0.002  0.00  0.00    +0.175 C 
ATOM     12  C   UNL     1      -1.435  -0.572   0.076  0.00  0.00    +0.083 C 
ATOM     13  C   UNL     1      -1.241  -1.803   0.940  0.00  0.00    -0.002 A 
ATOM     14  C   UNL     1      -2.038  -2.901   1.172  0.00  0.00    +0.017 A 
ATOM     15  C   UNL     1      -1.597  -3.910   2.027  0.00  0.00    +0.001 A 
ATOM     16  C   UNL     1      -0.349  -3.796   2.639  0.00  0.00    +0.013 A 
ATOM     17  C   UNL     1       0.440  -2.692   2.404  0.00  0.00    +0.046 A 
ATOM     18  C   UNL     1       0.000  -1.679   1.553  0.00  0.00    +0.124 A 
ATOM     19  O   UNL     1       0.612  -0.512   1.201  0.00  0.00    -0.488 OA
ENDBRANCH   1  15
BRANCH   7  20
ATOM     20  C   UNL     1      -7.637  -7.987   1.189  0.00  0.00    +0.133 A 
ATOM     21  C   UNL     1      -8.300  -9.170   1.554  0.00  0.00    +0.054 A 
ATOM     22  C   UNL     1      -9.532  -9.425   1.030  0.00  0.00    +0.023 A 
ATOM     23  N   UNL     1     -10.084  -8.536   0.174  0.00  0.00    -0.310 N 
ATOM     24  H   UNL     1     -10.960  -8.710  -0.203  0.00  0.00    +0.170 HD
ATOM     25  C   UNL     1      -9.424  -7.412  -0.158  0.00  0.00    +0.347 A 
ATOM     26  O   UNL     1      -9.938  -6.621  -0.931  0.00  0.00    -0.245 OA
ATOM     27  N   UNL     1      -8.219  -7.144   0.350  0.00  0.00    -0.188 NA
BRANCH  22  28
ATOM     28  C   UNL     1     -10.271 -10.685   1.401  0.00  0.00    +0.056 C 
BRANCH  28  29
ATOM     29  C   UNL     1     -11.229 -10.392   2.558  0.00  0.00    -0.011 C 
ATOM     30  C   UNL     1     -12.308  -9.412   2.092  0.00  0.00    +0.007 C 
ATOM     31  C   UNL     1     -11.888 -11.695   3.017  0.00  0.00    +0.007 C 
ENDBRANCH  28  29
ENDBRANCH  22  28
ENDBRANCH   7  20
TORSDOF 4
