REMARK  Name = ZINC46624499
REMARK  10 active torsions:
REMARK  status: ('A' for Active; 'I' for Inactive)
REMARK    1  A    between atoms: C_1  and  C_2
REMARK    2  A    between atoms: C_5  and  N_8
REMARK    3  A    between atoms: C_9  and  C_30
REMARK    4  A    between atoms: C_11  and  C_17
REMARK    5  A    between atoms: N_19  and  C_20
REMARK    6  A    between atoms: C_20  and  C_21
REMARK    7  A    between atoms: N_27  and  C_28
REMARK    8  A    between atoms: N_27  and  C_29
REMARK    9  A    between atoms: C_33  and  O_36
REMARK   10  A    between atoms: O_36  and  C_37
REMARK                            x       y       z     vdW  Elec       q    Type
REMARK                         _______ _______ _______ _____ _____    ______ ____
ROOT
ATOM      1  N   UNL     1       0.108  -4.208  -0.163  0.00  0.00    -0.263 N 
ATOM      2  C   UNL     1       0.223  -4.877   1.127  0.00  0.00    +0.123 C 
ATOM      3  C   UNL     1       0.688  -6.322   0.940  0.00  0.00    +0.101 C 
ATOM      4  C   UNL     1      -0.207  -6.994  -0.108  0.00  0.00    +0.024 C 
ATOM      5  C   UNL     1       0.062  -6.340  -1.466  0.00  0.00    +0.097 C 
ATOM      6  C   UNL     1       0.009  -4.845  -1.330  0.00  0.00    +0.220 C 
ATOM      7  O   UNL     1      -0.128  -4.182  -2.337  0.00  0.00    -0.275 OA
ENDROOT
BRANCH   1  12
ATOM      8  C   UNL     1       0.059   1.465  -0.217  0.00  0.00    +0.044 C 
ATOM      9  C   UNL     1       0.072  -0.042  -0.203  0.00  0.00    -0.050 A 
ATOM     10  C   UNL     1      -0.957  -0.735   0.408  0.00  0.00    +0.005 A 
ATOM     11  C   UNL     1      -0.948  -2.116   0.423  0.00  0.00    +0.024 A 
ATOM     12  C   UNL     1       0.095  -2.808  -0.177  0.00  0.00    +0.037 A 
ATOM     13  C   UNL     1       1.127  -2.110  -0.790  0.00  0.00    +0.024 A 
ATOM     14  C   UNL     1       1.109  -0.729  -0.806  0.00  0.00    +0.005 A 
ENDBRANCH   1  12
BRANCH   2  15
ATOM     15  C   UNL     1       1.223  -4.143   1.982  0.00  0.00    -0.026 A 
ATOM     16  C   UNL     1       2.379  -3.641   1.414  0.00  0.00    +0.009 A 
ATOM     17  C   UNL     1       3.298  -2.968   2.196  0.00  0.00    +0.046 A 
ATOM     18  C   UNL     1       3.059  -2.795   3.552  0.00  0.00    +0.120 A 
ATOM     19  C   UNL     1       1.897  -3.299   4.119  0.00  0.00    +0.046 A 
ATOM     20  C   UNL     1       0.980  -3.967   3.332  0.00  0.00    +0.009 A 
BRANCH  18  21
ATOM     21  O   UNL     1       3.961  -2.133   4.323  0.00  0.00    -0.495 OA
ATOM     22  C   UNL     1       3.649  -1.993   5.711  0.00  0.00    +0.277 C 
ENDBRANCH  18  21
ENDBRANCH   2  15
BRANCH   3  23
ATOM     23  C   UNL     1       0.581  -7.060   2.249  0.00  0.00    +0.219 C 
ATOM     24  O   UNL     1       0.172  -6.487   3.237  0.00  0.00    -0.275 OA
ATOM     25  N   UNL     1       0.939  -8.357   2.323  0.00  0.00    -0.311 N 
ATOM     26  H   UNL     1       1.266  -8.816   1.533  0.00  0.00    +0.149 HD
BRANCH  25  27
ATOM     27  C   UNL     1       0.836  -9.075   3.595  0.00  0.00    +0.139 C 
BRANCH  27  28
ATOM     28  C   UNL     1       1.294 -10.499   3.408  0.00  0.00    -0.026 A 
ATOM     29  C   UNL     1       0.396 -11.492   3.041  0.00  0.00    +0.023 A 
ATOM     30  C   UNL     1       0.848 -12.786   2.877  0.00  0.00    +0.084 A 
ATOM     31  N   UNL     1       2.119 -13.087   3.065  0.00  0.00    -0.350 N 
ATOM     32  C   UNL     1       3.006 -12.169   3.416  0.00  0.00    +0.098 A 
ATOM     33  C   UNL     1       2.621 -10.844   3.593  0.00  0.00    +0.047 A 
ATOM     34  N   UNL     1       4.335 -12.531   3.604  0.00  0.00    -0.323 N 
ATOM     35  C   UNL     1       4.773 -13.895   3.296  0.00  0.00    +0.130 C 
ATOM     36  C   UNL     1       5.297 -11.549   4.110  0.00  0.00    +0.130 C 
ATOM     37  H   UNL     1       2.411 -14.004   2.943  0.00  0.00    +0.166 HD
ENDBRANCH  27  28
ENDBRANCH  25  27
ENDBRANCH   3  23
TORSDOF 6
