REMARK  Name = ZINC09315546
REMARK  11 active torsions:
REMARK  status: ('A' for Active; 'I' for Inactive)
REMARK    1  A    between atoms: C_1  and  C_2
REMARK    2  A    between atoms: C_2  and  C_3
REMARK    3  A    between atoms: C_3  and  C_4
REMARK    4  A    between atoms: C_4  and  N_5
REMARK    5  A    between atoms: C_6  and  N_35
REMARK    6  A    between atoms: C_7  and  C_14
REMARK    7  A    between atoms: N_10  and  C_13
REMARK    8  A    between atoms: C_14  and  C_16
REMARK    9  A    between atoms: C_14  and  N_69
REMARK   10  A    between atoms: C_21  and  C_22
REMARK   11  A    between atoms: N_25  and  C_28
REMARK                            x       y       z     vdW  Elec       q    Type
REMARK                         _______ _______ _______ _____ _____    ______ ____
ROOT
ATOM      1  C   UNL     1       1.895   4.003   0.200  0.00  0.00    +0.002 C 
ENDROOT
BRANCH   1   4
ATOM      2  N   UNL     1       3.581   5.869   2.988  0.00  0.00    -0.282 N 
ATOM      3  C   UNL     1       2.970   5.601   1.787  0.00  0.00    +0.107 A 
ATOM      4  C   UNL     1       2.568   4.324   1.509  0.00  0.00    +0.046 A 
ATOM      5  C   UNL     1       2.788   3.317   2.462  0.00  0.00    +0.260 A 
ATOM      6  O   UNL     1       2.434   2.172   2.238  0.00  0.00    -0.267 OA
ATOM      7  N   UNL     1       3.395   3.623   3.626  0.00  0.00    -0.264 N 
ATOM      8  C   UNL     1       3.784   4.885   3.883  0.00  0.00    +0.333 A 
ATOM      9  O   UNL     1       4.327   5.140   4.941  0.00  0.00    -0.246 OA
ATOM     10  C   UNL     1       3.630   2.573   4.620  0.00  0.00    +0.157 C 
BRANCH   3  11
ATOM     11  N   UNL     1       2.764   6.605   0.876  0.00  0.00    -0.344 N 
ATOM     12  H   UNL     1       2.448   6.393  -0.016  0.00  0.00    +0.144 HD
ATOM     13  H   UNL     1       2.933   7.527   1.125  0.00  0.00    +0.144 HD
ENDBRANCH   3  11
BRANCH   2  14
ATOM     14  C   UNL     1       4.015   7.234   3.295  0.00  0.00    +0.128 C 
BRANCH  14  15
ATOM     15  C   UNL     1       2.880   7.984   3.996  0.00  0.00    +0.021 C 
BRANCH  15  17
ATOM     16  C   UNL     1       2.199  10.160   5.018  0.00  0.00    +0.004 C 
ATOM     17  C   UNL     1       3.333   9.410   4.317  0.00  0.00    -0.002 C 
ENDBRANCH  15  17
ENDBRANCH  14  15
ENDBRANCH   2  14
ENDBRANCH   1   4
BRANCH   1  18
ATOM     18  C   UNL     1       0.501   3.494   0.463  0.00  0.00    -0.053 A 
ATOM     19  C   UNL     1       0.265   2.134   0.540  0.00  0.00    +0.002 A 
ATOM     20  C   UNL     1      -1.013   1.667   0.782  0.00  0.00    +0.000 A 
ATOM     21  C   UNL     1      -2.056   2.560   0.943  0.00  0.00    +0.000 A 
ATOM     22  C   UNL     1      -1.819   3.919   0.871  0.00  0.00    +0.003 A 
ATOM     23  C   UNL     1      -0.541   4.386   0.629  0.00  0.00    -0.049 A 
ATOM     24  C   UNL     1      -0.283   5.869   0.547  0.00  0.00    +0.044 C 
ENDBRANCH   1  18
BRANCH   1  30
ATOM     25  C   UNL     1       4.059   3.399  -0.703  0.00  0.00    -0.058 C 
ATOM     26  C   UNL     1       4.847   2.270  -1.371  0.00  0.00    +0.086 C 
ATOM     27  N   UNL     1       4.219   1.931  -2.656  0.00  0.00    -0.331 N 
ATOM     28  C   UNL     1       2.826   1.504  -2.461  0.00  0.00    +0.086 C 
ATOM     29  C   UNL     1       2.038   2.634  -1.793  0.00  0.00    -0.058 C 
ATOM     30  N   UNL     1       2.667   2.949  -0.493  0.00  0.00    +0.389 N 
ATOM     31  H   UNL     1       2.674   2.103   0.089  0.00  0.00    -0.080 HD
BRANCH  27  32
ATOM     32  C   UNL     1       4.953   0.950  -3.330  0.00  0.00    +0.065 A 
ATOM     33  C   UNL     1       4.567   0.541  -4.599  0.00  0.00    +0.026 A 
ATOM     34  C   UNL     1       5.297  -0.425  -5.264  0.00  0.00    +0.002 A 
ATOM     35  C   UNL     1       6.407  -0.992  -4.664  0.00  0.00    +0.003 A 
ATOM     36  C   UNL     1       6.792  -0.591  -3.398  0.00  0.00    +0.040 A 
ATOM     37  C   UNL     1       6.069   0.378  -2.728  0.00  0.00    +0.144 A 
ATOM     38  F   UNL     1       6.445   0.769  -1.491  0.00  0.00    -0.204 F 
ENDBRANCH  27  32
ENDBRANCH   1  30
TORSDOF 8
