REMARK  Name = ZINC01889806
REMARK  6 active torsions:
REMARK  status: ('A' for Active; 'I' for Inactive)
REMARK    1  A    between atoms: C_6  and  C_7
REMARK    2  A    between atoms: C_10  and  C_21
REMARK    3  A    between atoms: C_15  and  C_17
REMARK    4  A    between atoms: C_17  and  C_18
REMARK    5  A    between atoms: C_18  and  C_19
REMARK    6  A    between atoms: C_19  and  O_20
REMARK                            x       y       z     vdW  Elec       q    Type
REMARK                         _______ _______ _______ _____ _____    ______ ____
ROOT
ATOM      1  C   UNL     1      -1.293  -0.775   0.011  0.00  0.00    +0.147 C 
ATOM      2  C   UNL     1      -1.374  -1.667  -1.234  0.00  0.00    +0.087 C 
ATOM      3  C   UNL     1      -2.405  -2.745  -1.060  0.00  0.00    +0.055 C 
ATOM      4  N   UNL     1      -2.654  -3.302   0.095  0.00  0.00    -0.215 NA
ATOM      5  C   UNL     1      -2.006  -2.838   1.197  0.00  0.00    +0.250 A 
ATOM      6  N   UNL     1      -1.346  -1.638   1.190  0.00  0.00    -0.221 N 
ATOM      7  N   UNL     1      -0.803  -1.475   2.460  0.00  0.00    -0.153 NA
ATOM      8  C   UNL     1      -1.158  -2.526   3.161  0.00  0.00    +0.153 A 
ATOM      9  N   UNL     1      -1.887  -3.344   2.399  0.00  0.00    -0.194 NA
ENDROOT
BRANCH   1  15
ATOM     10  C   UNL     1      -0.017   1.378   0.010  0.00  0.00    +0.007 A 
ATOM     11  C   UNL     1       1.171   2.086   0.002  0.00  0.00    +0.020 A 
ATOM     12  C   UNL     1       2.378   1.410  -0.013  0.00  0.00    +0.041 A 
ATOM     13  C   UNL     1       2.396   0.027  -0.021  0.00  0.00    +0.020 A 
ATOM     14  C   UNL     1       1.208  -0.679  -0.013  0.00  0.00    +0.007 A 
ATOM     15  C   UNL     1       0.002  -0.004   0.002  0.00  0.00    -0.023 A 
ATOM     16 CL   UNL     1       3.870   2.298  -0.023  0.00  0.00    -0.084 Cl
ENDBRANCH   1  15
BRANCH   3  17
ATOM     17  C   UNL     1      -3.166  -3.192  -2.238  0.00  0.00    -0.003 A 
ATOM     18  C   UNL     1      -2.921  -2.620  -3.491  0.00  0.00    +0.011 A 
ATOM     19  C   UNL     1      -3.637  -3.044  -4.590  0.00  0.00    +0.016 A 
ATOM     20  C   UNL     1      -4.598  -4.033  -4.455  0.00  0.00    +0.018 A 
ATOM     21  C   UNL     1      -4.846  -4.603  -3.218  0.00  0.00    +0.016 A 
ATOM     22  C   UNL     1      -4.133  -4.194  -2.111  0.00  0.00    +0.011 A 
ATOM     23 BR   UNL     1      -5.575  -4.606  -5.969  0.00  0.00    -0.050 Br
ENDBRANCH   3  17
BRANCH   8  24
ATOM     24  C   UNL     1      -0.795  -2.773   4.603  0.00  0.00    +0.080 C 
BRANCH  24  25
ATOM     25  C   UNL     1      -1.872  -2.173   5.510  0.00  0.00    +0.035 C 
BRANCH  25  26
ATOM     26  C   UNL     1      -1.504  -2.423   6.973  0.00  0.00    +0.156 C 
BRANCH  26  27
ATOM     27  O   UNL     1      -2.510  -1.863   7.820  0.00  0.00    -0.395 OA
ATOM     28  H   UNL     1      -2.341  -1.985   8.764  0.00  0.00    +0.209 HD
ENDBRANCH  26  27
ENDBRANCH  25  26
ENDBRANCH  24  25
ENDBRANCH   8  24
TORSDOF 6
