REMARK  Name = ZINC32916791
REMARK  14 active torsions:
REMARK  status: ('A' for Active; 'I' for Inactive)
REMARK    1  A    between atoms: C_1  and  C_2
REMARK    2  A    between atoms: C_5  and  C_8
REMARK    3  A    between atoms: C_10  and  C_14
REMARK    4  A    between atoms: N_16  and  N_17
REMARK    5  A    between atoms: C_18  and  C_19
REMARK    6  A    between atoms: C_21  and  C_30
REMARK    7  A    between atoms: C_22  and  O_29
REMARK    8  A    between atoms: C_23  and  C_25
REMARK    9  A    between atoms: C_25  and  C_26
REMARK   10  A    between atoms: C_25  and  C_27
REMARK   11  A    between atoms: C_25  and  C_28
REMARK   12  A    between atoms: C_30  and  C_31
REMARK   13  A    between atoms: C_30  and  C_32
REMARK   14  A    between atoms: C_30  and  C_33
REMARK                            x       y       z     vdW  Elec       q    Type
REMARK                         _______ _______ _______ _____ _____    ______ ____
ROOT
ATOM      1  N   UNL     1       1.372   0.977   0.310  0.00  0.00    -0.187 NA
ATOM      2  C   UNL     1       0.191   0.672  -0.134  0.00  0.00    +0.138 C 
ENDROOT
BRANCH   2   3
ATOM      3  C   UNL     1      -0.748   1.740  -0.522  0.00  0.00    -0.005 A 
ATOM      4  C   UNL     1      -0.268   3.011  -0.851  0.00  0.00    +0.017 A 
ATOM      5  C   UNL     1      -1.149   4.005  -1.218  0.00  0.00    +0.000 A 
ATOM      6  C   UNL     1      -2.514   3.748  -1.251  0.00  0.00    +0.124 A 
ATOM      7  C   UNL     1      -2.997   2.488  -0.920  0.00  0.00    +0.000 A 
ATOM      8  C   UNL     1      -2.122   1.487  -0.557  0.00  0.00    +0.017 A 
BRANCH   7   9
ATOM      9  C   UNL     1      -4.478   2.216  -0.957  0.00  0.00    -0.009 C 
ATOM     10  C   UNL     1      -4.741   0.764  -0.552  0.00  0.00    +0.015 C 
ATOM     11  C   UNL     1      -5.194   3.155   0.017  0.00  0.00    +0.015 C 
ATOM     12  C   UNL     1      -5.005   2.454  -2.374  0.00  0.00    +0.015 C 
ENDBRANCH   7   9
BRANCH   5  13
ATOM     13  C   UNL     1      -0.632   5.373  -1.579  0.00  0.00    -0.009 C 
ATOM     14  C   UNL     1       0.897   5.363  -1.554  0.00  0.00    +0.015 C 
ATOM     15  C   UNL     1      -1.117   5.748  -2.981  0.00  0.00    +0.015 C 
ATOM     16  C   UNL     1      -1.152   6.398  -0.569  0.00  0.00    +0.015 C 
ENDBRANCH   5  13
BRANCH   6  17
ATOM     17  O   UNL     1      -3.380   4.732  -1.608  0.00  0.00    -0.506 OA
ATOM     18  H   UNL     1      -4.461   4.531  -1.634  0.00  0.00    +0.292 HD
ENDBRANCH   6  17
ENDBRANCH   2   3
BRANCH   1  21
ATOM     19  C   UNL     1       2.894   2.632   1.090  0.00  0.00    +0.281 C 
ATOM     20  O   UNL     1       3.784   1.802   1.082  0.00  0.00    -0.267 OA
ATOM     21  N   UNL     1       1.636   2.275   0.766  0.00  0.00    -0.202 N 
ATOM     22  H   UNL     1       0.816   3.002   0.860  0.00  0.00    +0.178 HD
BRANCH  19  25
ATOM     23  C   UNL     1       4.202   5.921   2.009  0.00  0.00    +0.093 A 
ATOM     24  C   UNL     1       4.439   4.566   1.714  0.00  0.00    +0.062 A 
ATOM     25  C   UNL     1       3.193   4.027   1.454  0.00  0.00    +0.122 A 
ATOM     26  N   UNL     1       2.292   5.043   1.607  0.00  0.00    -0.272 N 
ATOM     27  H   UNL     1       1.219   4.854   1.454  0.00  0.00    +0.189 HD
ATOM     28  N   UNL     1       2.904   6.125   1.927  0.00  0.00    -0.173 NA
BRANCH  23  33
ATOM     29  C   UNL     1       8.188   9.856   3.350  0.00  0.00    +0.044 C 
ATOM     30  C   UNL     1       7.146   8.827   2.999  0.00  0.00    -0.050 A 
ATOM     31  C   UNL     1       5.811   9.186   2.952  0.00  0.00    +0.004 A 
ATOM     32  C   UNL     1       4.851   8.247   2.631  0.00  0.00    +0.010 A 
ATOM     33  C   UNL     1       5.230   6.935   2.354  0.00  0.00    +0.002 A 
ATOM     34  C   UNL     1       6.575   6.577   2.409  0.00  0.00    +0.010 A 
ATOM     35  C   UNL     1       7.527   7.526   2.725  0.00  0.00    +0.004 A 
ENDBRANCH  23  33
ENDBRANCH  19  25
ENDBRANCH   1  21
TORSDOF 7
