REMARK  Name = ZINC44004039
REMARK  8 active torsions:
REMARK  status: ('A' for Active; 'I' for Inactive)
REMARK    1  A    between atoms: C_1  and  C_2
REMARK    2  A    between atoms: C_9  and  O_32
REMARK    3  A    between atoms: C_16  and  O_31
REMARK    4  A    between atoms: C_19  and  C_30
REMARK    5  A    between atoms: C_24  and  C_25
REMARK    6  A    between atoms: C_24  and  O_29
REMARK    7  A    between atoms: C_25  and  C_27
REMARK    8  A    between atoms: C_27  and  O_28
REMARK                            x       y       z     vdW  Elec       q    Type
REMARK                         _______ _______ _______ _____ _____    ______ ____
ROOT
ATOM      1  C   UNL     1      -0.019   1.526   0.010  0.00  0.00    +0.016 C 
ATOM      2  C   UNL     1       0.002  -0.004   0.002  0.00  0.00    -0.002 C 
ATOM      3  C   UNL     1       0.632  -0.459  -1.303  0.00  0.00    +0.019 C 
ATOM      4  C   UNL     1       2.157  -0.375  -1.252  0.00  0.00    +0.080 C 
ATOM      5  C   UNL     1       2.620  -1.236  -0.093  0.00  0.00    +0.156 C 
ATOM      6  O   UNL     1       3.504  -2.057  -0.222  0.00  0.00    -0.293 OA
ATOM      7  C   UNL     1       1.944  -1.024   1.191  0.00  0.00    +0.048 C 
ATOM      8  C   UNL     1       0.732  -0.465   1.226  0.00  0.00    -0.032 C 
ATOM      9  C   UNL     1       0.085  -0.250   2.582  0.00  0.00    +0.141 C 
ATOM     10  C   UNL     1      -1.355  -0.762   2.526  0.00  0.00    +0.040 C 
ATOM     11  C   UNL     1      -2.092  -0.074   1.374  0.00  0.00    +0.002 C 
ATOM     12  C   UNL     1      -1.450  -0.497   0.045  0.00  0.00    +0.031 C 
ATOM     13  C   UNL     1      -2.200   0.052  -1.165  0.00  0.00    +0.119 C 
ATOM     14  C   UNL     1      -3.695  -0.304  -1.116  0.00  0.00    +0.041 C 
ATOM     15  C   UNL     1      -4.244   0.252   0.183  0.00  0.00    +0.009 C 
ATOM     16  C   UNL     1      -3.544  -0.515   1.357  0.00  0.00    +0.002 C 
ATOM     17  C   UNL     1      -4.380  -0.099   2.573  0.00  0.00    +0.008 C 
ATOM     18  C   UNL     1      -5.833  -0.141   2.028  0.00  0.00    +0.043 C 
ATOM     19  C   UNL     1      -5.727   0.015   0.452  0.00  0.00    +0.131 C 
ATOM     20  C   UNL     1      -3.933   1.746   0.281  0.00  0.00    +0.015 C 
ENDROOT
BRANCH  19  21
ATOM     21  C   UNL     1      -6.191  -1.237  -0.249  0.00  0.00    +0.190 C 
ATOM     22  O   UNL     1      -5.419  -2.148  -0.431  0.00  0.00    -0.292 OA
BRANCH  21  23
ATOM     23  C   UNL     1      -7.617  -1.351  -0.721  0.00  0.00    +0.233 C 
BRANCH  23  24
ATOM     24  O   UNL     1      -7.810  -2.620  -1.349  0.00  0.00    -0.387 OA
ATOM     25  H   UNL     1      -8.708  -2.763  -1.679  0.00  0.00    +0.210 HD
ENDBRANCH  23  24
ENDBRANCH  21  23
ENDBRANCH  19  21
BRANCH  19  26
ATOM     26  O   UNL     1      -6.495   1.139   0.018  0.00  0.00    -0.380 OA
ATOM     27  H   UNL     1      -7.446   1.046   0.163  0.00  0.00    +0.211 HD
ENDBRANCH  19  26
BRANCH  13  28
ATOM     28  O   UNL     1      -1.631  -0.496  -2.355  0.00  0.00    -0.391 OA
ATOM     29  H   UNL     1      -2.055  -0.194  -3.170  0.00  0.00    +0.210 HD
ENDBRANCH  13  28
BRANCH   9  30
ATOM     30  O   UNL     1       0.090   1.143   2.900  0.00  0.00    -0.387 OA
ATOM     31  H   UNL     1       0.973   1.534   2.941  0.00  0.00    +0.210 HD
ENDBRANCH   9  30
TORSDOF 6
