REMARK  Name = ZINC05516249
REMARK  3 active torsions:
REMARK  status: ('A' for Active; 'I' for Inactive)
REMARK    1  A    between atoms: C_1  and  C_2
REMARK    2  A    between atoms: C_5  and  C_8
REMARK    3  A    between atoms: C_25  and  C_27
REMARK                            x       y       z     vdW  Elec       q    Type
REMARK                         _______ _______ _______ _____ _____    ______ ____
ROOT
ATOM      1  C   UNL     1       0.059  -4.275  -0.021  0.00  0.00    +0.234 C 
ATOM      2  C   UNL     1      -1.345  -4.790   0.097  0.00  0.00    +0.027 C 
ATOM      3  C   UNL     1      -1.890  -5.029   1.308  0.00  0.00    +0.083 C 
ATOM      4  C   UNL     1      -1.044  -4.774   2.501  0.00  0.00    +0.042 A 
ATOM      5  C   UNL     1      -1.593  -4.672   3.772  0.00  0.00    +0.013 A 
ATOM      6  C   UNL     1      -0.769  -4.432   4.854  0.00  0.00    +0.001 A 
ATOM      7  C   UNL     1       0.596  -4.293   4.673  0.00  0.00    +0.004 A 
ATOM      8  C   UNL     1       1.151  -4.393   3.411  0.00  0.00    +0.046 A 
ATOM      9  C   UNL     1       0.338  -4.634   2.318  0.00  0.00    +0.131 A 
ATOM     10  O   UNL     1       0.853  -4.744   1.071  0.00  0.00    -0.479 OA
ATOM     11  N   UNL     1      -3.159  -5.488   1.436  0.00  0.00    -0.213 NA
ATOM     12  C   UNL     1      -3.959  -5.745   0.427  0.00  0.00    +0.237 C 
ATOM     13  N   UNL     1      -5.230  -6.202   0.377  0.00  0.00    -0.205 NA
ATOM     14  C   UNL     1      -5.625  -6.309  -0.862  0.00  0.00    +0.203 C 
ATOM     15  N   UNL     1      -4.619  -5.922  -1.694  0.00  0.00    -0.251 N 
ATOM     16  N   UNL     1      -3.547  -5.557  -0.877  0.00  0.00    -0.208 N 
ATOM     17  C   UNL     1      -2.190  -5.057  -1.129  0.00  0.00    +0.160 C 
ATOM     18  H   UNL     1      -4.643  -5.904  -2.664  0.00  0.00    +0.171 HD
ENDROOT
BRANCH   1  23
ATOM     19  C   UNL     1      -0.018   1.503   0.010  0.00  0.00    +0.044 C 
ATOM     20  C   UNL     1       0.002  -0.004   0.002  0.00  0.00    -0.050 A 
ATOM     21  C   UNL     1       0.006  -0.689  -1.199  0.00  0.00    +0.004 A 
ATOM     22  C   UNL     1       0.025  -2.071  -1.206  0.00  0.00    +0.008 A 
ATOM     23  C   UNL     1       0.040  -2.768  -0.013  0.00  0.00    -0.003 A 
ATOM     24  C   UNL     1       0.037  -2.084   1.188  0.00  0.00    +0.008 A 
ATOM     25  C   UNL     1       0.023  -0.702   1.195  0.00  0.00    +0.004 A 
ENDBRANCH   1  23
BRANCH  17  26
ATOM     26  C   UNL     1      -1.469  -6.065  -1.987  0.00  0.00    -0.003 A 
ATOM     27  C   UNL     1      -0.737  -5.652  -3.089  0.00  0.00    +0.009 A 
ATOM     28  C   UNL     1      -0.090  -6.613  -3.850  0.00  0.00    +0.020 A 
ATOM     29  C   UNL     1      -0.196  -7.943  -3.486  0.00  0.00    +0.111 A 
ATOM     30  N   UNL     1      -0.902  -8.299  -2.432  0.00  0.00    -0.263 NA
ATOM     31  C   UNL     1      -1.526  -7.411  -1.682  0.00  0.00    +0.116 A 
ENDBRANCH  17  26
TORSDOF 2
