REMARK  Name = ZINC02653179
REMARK  6 active torsions:
REMARK  status: ('A' for Active; 'I' for Inactive)
REMARK    1  A    between atoms: C_1  and  C_2
REMARK    2  A    between atoms: C_2  and  C_3
REMARK    3  A    between atoms: C_3  and  C_5
REMARK    4  A    between atoms: C_3  and  C_6
REMARK    5  A    between atoms: C_11  and  N_12
REMARK    6  A    between atoms: C_13  and  C_15
REMARK                            x       y       z     vdW  Elec       q    Type
REMARK                         _______ _______ _______ _____ _____    ______ ____
ROOT
ATOM      1  N   UNL     1      -0.720  -1.827  -3.321  0.00  0.00    -0.280 N 
ATOM      2  C   UNL     1      -0.963  -2.336  -4.545  0.00  0.00    +0.269 C 
ATOM      3  O   UNL     1      -0.710  -3.502  -4.779  0.00  0.00    -0.268 OA
ATOM      4  H   UNL     1      -0.974  -0.913  -3.117  0.00  0.00    +0.155 HD
ENDROOT
BRANCH   2   5
ATOM      5  C   UNL     1      -1.536  -1.479  -5.601  0.00  0.00    +0.154 A 
ATOM      6  C   UNL     1      -1.800  -2.025  -6.942  0.00  0.00    +0.020 A 
ATOM      7  C   UNL     1      -1.541  -3.348  -7.281  0.00  0.00    +0.011 A 
ATOM      8  C   UNL     1      -1.820  -3.787  -8.558  0.00  0.00    +0.001 A 
ATOM      9  C   UNL     1      -2.360  -2.925  -9.504  0.00  0.00    +0.001 A 
ATOM     10  C   UNL     1      -2.628  -1.610  -9.187  0.00  0.00    +0.014 A 
ATOM     11  C   UNL     1      -2.354  -1.148  -7.904  0.00  0.00    +0.050 A 
ATOM     12  C   UNL     1      -2.609   0.236  -7.482  0.00  0.00    +0.272 A 
ATOM     13  O   UNL     1      -3.080   1.047  -8.258  0.00  0.00    -0.266 OA
ATOM     14  N   UNL     1      -2.308   0.588  -6.215  0.00  0.00    -0.242 N 
ATOM     15  H   UNL     1      -2.483   1.531  -5.931  0.00  0.00    +0.192 HD
ATOM     16  N   UNL     1      -1.812  -0.221  -5.356  0.00  0.00    -0.166 NA
ENDBRANCH   2   5
BRANCH   1  22
ATOM     17  C   UNL     1       0.626  -2.017  -1.325  0.00  0.00    -0.023 A 
ATOM     18  C   UNL     1       1.231  -2.799  -0.360  0.00  0.00    +0.006 A 
ATOM     19  C   UNL     1       1.117  -4.176  -0.412  0.00  0.00    +0.000 A 
ATOM     20  C   UNL     1       0.397  -4.775  -1.430  0.00  0.00    +0.002 A 
ATOM     21  C   UNL     1      -0.209  -3.999  -2.398  0.00  0.00    +0.023 A 
ATOM     22  C   UNL     1      -0.102  -2.615  -2.346  0.00  0.00    +0.037 A 
BRANCH  17  23
ATOM     23  C   UNL     1       0.751  -0.516  -1.268  0.00  0.00    +0.017 C 
ATOM     24  C   UNL     1       2.230  -0.129  -1.221  0.00  0.00    +0.012 C 
BRANCH  23  26
ATOM     25  C   UNL     1       0.065   1.536  -0.019  0.00  0.00    +0.004 C 
ATOM     26  C   UNL     1       0.047   0.006  -0.014  0.00  0.00    +0.004 C 
ENDBRANCH  23  26
ENDBRANCH  17  23
ENDBRANCH   1  22
TORSDOF 4
