REMARK  Name = ZINC63517786
REMARK  12 active torsions:
REMARK  status: ('A' for Active; 'I' for Inactive)
REMARK    1  A    between atoms: C_1  and  C_2
REMARK    2  A    between atoms: C_2  and  C_3
REMARK    3  A    between atoms: C_3  and  C_4
REMARK    4  A    between atoms: C_4  and  N_5
REMARK    5  A    between atoms: C_6  and  N_29
REMARK    6  A    between atoms: C_7  and  N_14
REMARK    7  A    between atoms: N_14  and  C_15
REMARK    8  A    between atoms: N_14  and  C_16
REMARK    9  A    between atoms: C_16  and  C_17
REMARK   10  A    between atoms: C_17  and  C_18
REMARK   11  A    between atoms: C_18  and  N_19
REMARK   12  A    between atoms: C_27  and  N_28
REMARK                            x       y       z     vdW  Elec       q    Type
REMARK                         _______ _______ _______ _____ _____    ______ ____
ROOT
ATOM      1  N   UNL     1       4.867  -3.595   3.262  0.00  0.00    -0.326 N 
ATOM      2  C   UNL     1       5.608  -3.282   2.037  0.00  0.00    +0.129 C 
ENDROOT
BRANCH   1   5
ATOM      3  N   UNL     1       1.743  -2.002   4.343  0.00  0.00    -0.280 N 
ATOM      4  C   UNL     1       3.081  -2.312   4.261  0.00  0.00    +0.127 A 
ATOM      5  C   UNL     1       3.498  -3.259   3.365  0.00  0.00    +0.133 A 
ATOM      6  C   UNL     1       2.543  -3.892   2.549  0.00  0.00    +0.277 A 
ATOM      7  O   UNL     1       2.890  -4.739   1.744  0.00  0.00    -0.266 OA
ATOM      8  N   UNL     1       1.243  -3.556   2.663  0.00  0.00    -0.273 N 
ATOM      9  H   UNL     1       0.583  -3.992   2.101  0.00  0.00    +0.173 HD
ATOM     10  C   UNL     1       0.851  -2.627   3.553  0.00  0.00    +0.331 A 
ATOM     11  O   UNL     1      -0.329  -2.344   3.641  0.00  0.00    -0.246 OA
BRANCH   4  12
ATOM     12  N   UNL     1       3.992  -1.675   5.073  0.00  0.00    -0.343 N 
ATOM     13  H   UNL     1       3.702  -0.961   5.661  0.00  0.00    +0.144 HD
ATOM     14  H   UNL     1       4.925  -1.941   5.057  0.00  0.00    +0.144 HD
ENDBRANCH   4  12
BRANCH   3  15
ATOM     15  C   UNL     1       1.286  -0.990   5.298  0.00  0.00    +0.128 C 
BRANCH  15  16
ATOM     16  C   UNL     1       0.957  -1.661   6.633  0.00  0.00    +0.021 C 
BRANCH  16  18
ATOM     17  C   UNL     1       0.151  -1.276   8.967  0.00  0.00    +0.004 C 
ATOM     18  C   UNL     1       0.480  -0.604   7.632  0.00  0.00    -0.002 C 
ENDBRANCH  16  18
ENDBRANCH  15  16
ENDBRANCH   3  15
ENDBRANCH   1   5
BRANCH   1  19
ATOM     19  C   UNL     1       5.545  -4.258   4.378  0.00  0.00    +0.107 C 
BRANCH  19  20
ATOM     20  C   UNL     1       5.331  -5.769   4.281  0.00  0.00    +0.040 C 
BRANCH  20  21
ATOM     21  C   UNL     1       6.040  -6.461   5.447  0.00  0.00    +0.126 C 
BRANCH  21  22
ATOM     22  N   UNL     1       5.834  -7.909   5.354  0.00  0.00    -0.315 N 
ATOM     23  C   UNL     1       4.861  -8.628   5.982  0.00  0.00    +0.201 A 
ATOM     24  N   UNL     1       4.972  -9.888   5.676  0.00  0.00    -0.231 NA
ATOM     25  C   UNL     1       6.020 -10.057   4.835  0.00  0.00    +0.147 A 
ATOM     26  C   UNL     1       6.583  -8.789   4.614  0.00  0.00    +0.165 A 
ATOM     27  N   UNL     1       7.635  -8.680   3.809  0.00  0.00    -0.216 NA
ATOM     28  C   UNL     1       8.144  -9.743   3.223  0.00  0.00    +0.225 A 
ATOM     29  N   UNL     1       7.648 -10.955   3.398  0.00  0.00    -0.219 NA
ATOM     30  C   UNL     1       6.602 -11.162   4.191  0.00  0.00    +0.147 A 
BRANCH  30  31
ATOM     31  N   UNL     1       6.089 -12.436   4.367  0.00  0.00    -0.341 N 
ATOM     32  H   UNL     1       5.318 -12.573   4.940  0.00  0.00    +0.144 HD
ATOM     33  H   UNL     1       6.500 -13.191   3.918  0.00  0.00    +0.144 HD
ENDBRANCH  30  31
ENDBRANCH  21  22
ENDBRANCH  20  21
ENDBRANCH  19  20
ENDBRANCH   1  19
TORSDOF 10
