REMARK  Name = ZINC39676903
REMARK  9 active torsions:
REMARK  status: ('A' for Active; 'I' for Inactive)
REMARK    1  A    between atoms: C_1  and  C_2
REMARK    2  A    between atoms: C_5  and  C_34
REMARK    3  A    between atoms: C_6  and  C_8
REMARK    4  A    between atoms: C_8  and  C_9
REMARK    5  A    between atoms: C_9  and  N_10
REMARK    6  A    between atoms: C_11  and  C_13
REMARK    7  A    between atoms: C_24  and  C_26
REMARK    8  A    between atoms: C_31  and  O_32
REMARK    9  A    between atoms: O_32  and  C_33
REMARK                            x       y       z     vdW  Elec       q    Type
REMARK                         _______ _______ _______ _____ _____    ______ ____
ROOT
ATOM      1  C   UNL     1       2.693  -5.105   5.950  0.00  0.00    +0.100 C 
ATOM      2  C   UNL     1       1.841  -6.389   5.839  0.00  0.00    +0.121 C 
ATOM      3  N   UNL     1       2.811  -7.453   5.485  0.00  0.00    -0.296 N 
ATOM      4  C   UNL     1       4.014  -7.139   6.294  0.00  0.00    +0.115 C 
ATOM      5  C   UNL     1       4.117  -5.601   6.252  0.00  0.00    -0.004 C 
ATOM      6  C   UNL     1       5.074  -5.168   5.145  0.00  0.00    -0.010 C 
ATOM      7  C   UNL     1       6.493  -5.623   5.496  0.00  0.00    -0.082 C 
ATOM      8  N   UNL     1       6.896  -5.032   6.778  0.00  0.00    +0.379 N 
ATOM      9  C   UNL     1       6.028  -5.526   7.853  0.00  0.00    -0.082 C 
ATOM     10  C   UNL     1       4.589  -5.067   7.601  0.00  0.00    -0.010 C 
ATOM     11  C   UNL     1       2.639  -8.474   4.623  0.00  0.00    +0.250 C 
ATOM     12  O   UNL     1       1.624  -8.544   3.958  0.00  0.00    -0.270 OA
ATOM     13  H   UNL     1       7.852  -5.284   6.977  0.00  0.00    -0.086 HD
ATOM     14  H   UNL     1       6.820  -4.027   6.721  0.00  0.00    -0.086 HD
ENDROOT
BRANCH  11  15
ATOM     15  C   UNL     1       3.683  -9.508   4.487  0.00  0.00    +0.078 A 
ATOM     16  C   UNL     1       4.427  -9.907   5.601  0.00  0.00    +0.017 A 
ATOM     17  C   UNL     1       5.399 -10.873   5.467  0.00  0.00    +0.001 A 
ATOM     18  C   UNL     1       5.644 -11.453   4.233  0.00  0.00    +0.004 A 
ATOM     19  C   UNL     1       4.916 -11.069   3.124  0.00  0.00    +0.046 A 
ATOM     20  C   UNL     1       3.929 -10.101   3.241  0.00  0.00    +0.132 A 
BRANCH  20  21
ATOM     21  O   UNL     1       3.210  -9.727   2.154  0.00  0.00    -0.494 OA
ATOM     22  C   UNL     1       3.517 -10.374   0.918  0.00  0.00    +0.277 C 
ENDBRANCH  20  21
ENDBRANCH  11  15
BRANCH   1  24
ATOM     23  N   UNL     1       2.780  -3.001   4.653  0.00  0.00    -0.315 N 
ATOM     24  C   UNL     1       2.667  -4.344   4.650  0.00  0.00    +0.218 C 
ATOM     25  O   UNL     1       2.546  -4.940   3.601  0.00  0.00    -0.275 OA
ATOM     26  H   UNL     1       2.877  -2.524   5.493  0.00  0.00    +0.149 HD
BRANCH  23  27
ATOM     27  C   UNL     1       2.754  -2.260   3.389  0.00  0.00    +0.109 C 
BRANCH  27  28
ATOM     28  C   UNL     1       2.898  -0.764   3.672  0.00  0.00    +0.054 C 
BRANCH  28  34
ATOM     29  C   UNL     1       5.325   1.410  -0.127  0.00  0.00    +0.044 C 
ATOM     30  C   UNL     1       4.034   1.038   0.555  0.00  0.00    -0.050 A 
ATOM     31  C   UNL     1       2.825   1.396  -0.013  0.00  0.00    +0.003 A 
ATOM     32  C   UNL     1       1.640   1.055   0.612  0.00  0.00    +0.004 A 
ATOM     33  C   UNL     1       1.664   0.356   1.805  0.00  0.00    -0.047 A 
ATOM     34  C   UNL     1       2.872  -0.002   2.372  0.00  0.00    -0.043 A 
ATOM     35  C   UNL     1       4.057   0.335   1.744  0.00  0.00    +0.007 A 
ATOM     36  C   UNL     1       0.372  -0.015   2.486  0.00  0.00    +0.044 C 
ENDBRANCH  28  34
ENDBRANCH  27  28
ENDBRANCH  23  27
ENDBRANCH   1  24
TORSDOF 6
