REMARK  Name = ZINC20814460
REMARK  7 active torsions:
REMARK  status: ('A' for Active; 'I' for Inactive)
REMARK    1  A    between atoms: C_1  and  C_2
REMARK    2  A    between atoms: C_2  and  C_28
REMARK    3  A    between atoms: C_6  and  C_18
REMARK    4  A    between atoms: C_8  and  C_16
REMARK    5  A    between atoms: C_9  and  S_11
REMARK    6  A    between atoms: S_11  and  C_12
REMARK    7  A    between atoms: C_12  and  C_13
REMARK                            x       y       z     vdW  Elec       q    Type
REMARK                         _______ _______ _______ _____ _____    ______ ____
ROOT
ATOM      1  C   UNL     1       5.162   0.931  -2.836  0.00  0.00    +0.011 C 
ATOM      2  C   UNL     1       4.433   1.465  -4.070  0.00  0.00    -0.023 C 
ATOM      3  C   UNL     1       2.997   1.840  -3.697  0.00  0.00    +0.058 C 
ATOM      4  C   UNL     1       2.263   0.614  -3.212  0.00  0.00    +0.016 C 
ATOM      5  C   UNL     1       2.568  -0.613  -3.686  0.00  0.00    +0.024 C 
ATOM      6  C   UNL     1       1.825  -1.835  -3.210  0.00  0.00    +0.097 C 
ATOM      7  C   UNL     1       1.105  -1.563  -1.922  0.00  0.00    +0.069 C 
ATOM      8  C   UNL     1       0.859  -0.290  -1.510  0.00  0.00    +0.080 C 
ATOM      9  N   UNL     1       1.274   0.774  -2.277  0.00  0.00    -0.311 N 
ATOM     10  C   UNL     1       3.589  -0.788  -4.636  0.00  0.00    +0.162 C 
ATOM     11  O   UNL     1       3.832  -1.905  -5.051  0.00  0.00    -0.292 OA
ATOM     12  C   UNL     1       4.386   0.379  -5.151  0.00  0.00    +0.086 C 
ATOM     13  C   UNL     1       5.162   2.697  -4.610  0.00  0.00    +0.011 C 
ATOM     14  H   UNL     1       0.807   1.760  -2.134  0.00  0.00    +0.152 HD
ENDROOT
BRANCH   6  15
ATOM     15  C   UNL     1       0.824  -2.245  -4.259  0.00  0.00    -0.035 A 
ATOM     16  C   UNL     1      -0.198  -1.383  -4.612  0.00  0.00    +0.006 A 
ATOM     17  C   UNL     1      -1.114  -1.756  -5.578  0.00  0.00    +0.020 A 
ATOM     18  C   UNL     1      -1.014  -2.996  -6.184  0.00  0.00    +0.041 A 
ATOM     19  C   UNL     1       0.006  -3.860  -5.826  0.00  0.00    +0.020 A 
ATOM     20  C   UNL     1       0.924  -3.484  -4.864  0.00  0.00    +0.006 A 
ATOM     21 CL   UNL     1      -2.167  -3.467  -7.393  0.00  0.00    -0.084 Cl
ENDBRANCH   6  15
BRANCH   7  22
ATOM     22  C   UNL     1       0.670  -2.661  -1.112  0.00  0.00    +0.098 C 
ATOM     23  N   UNL     1       0.324  -3.532  -0.470  0.00  0.00    -0.191 NA
ENDBRANCH   7  22
BRANCH   8  24
ATOM     24  S   UNL     1       0.002  -0.004   0.002  0.00  0.00    -0.098 S 
BRANCH  24  25
ATOM     25  C   UNL     1      -0.022   1.806   0.012  0.00  0.00    +0.200 C 
BRANCH  25  26
ATOM     26  C   UNL     1      -0.728   2.292   1.252  0.00  0.00    +0.366 C 
ATOM     27  O   UNL     1      -1.169   1.496   2.047  0.00  0.00    -0.245 OA
ATOM     28  O   UNL     1      -0.866   3.608   1.473  0.00  0.00    -0.245 OA
ENDBRANCH  25  26
ENDBRANCH  24  25
ENDBRANCH   8  24
TORSDOF 5
