REMARK  Name = ZINC39675391
REMARK  10 active torsions:
REMARK  status: ('A' for Active; 'I' for Inactive)
REMARK    1  A    between atoms: C_1  and  C_2
REMARK    2  A    between atoms: C_7  and  C_8
REMARK    3  A    between atoms: C_12  and  C_21
REMARK    4  A    between atoms: N_23  and  C_24
REMARK    5  A    between atoms: C_24  and  C_26
REMARK    6  A    between atoms: C_24  and  C_27
REMARK    7  A    between atoms: C_27  and  C_28
REMARK    8  A    between atoms: C_28  and  C_29
REMARK    9  A    between atoms: C_32  and  O_35
REMARK   10  A    between atoms: O_35  and  C_36
REMARK                            x       y       z     vdW  Elec       q    Type
REMARK                         _______ _______ _______ _____ _____    ______ ____
ROOT
ATOM      1  C   UNL     1       0.113  -0.231   2.510  0.00  0.00    +0.247 C 
ATOM      2  O   UNL     1      -0.025   0.975   2.572  0.00  0.00    -0.270 OA
ATOM      3  N   UNL     1       0.320  -0.945   3.634  0.00  0.00    -0.296 N 
ATOM      4  C   UNL     1       0.621  -2.392   3.748  0.00  0.00    +0.121 C 
ATOM      5  C   UNL     1       1.670  -2.484   4.879  0.00  0.00    +0.100 C 
ATOM      6  C   UNL     1       1.453  -1.216   5.721  0.00  0.00    -0.004 C 
ATOM      7  C   UNL     1       0.306  -0.459   5.035  0.00  0.00    +0.115 C 
ATOM      8  C   UNL     1       1.062  -1.588   7.147  0.00  0.00    -0.010 C 
ATOM      9  C   UNL     1       0.909  -0.312   7.980  0.00  0.00    -0.082 C 
ATOM     10  N   UNL     1       2.174   0.432   7.976  0.00  0.00    +0.379 N 
ATOM     11  C   UNL     1       2.495   0.867   6.611  0.00  0.00    -0.082 C 
ATOM     12  C   UNL     1       2.716  -0.359   5.721  0.00  0.00    -0.010 C 
ATOM     13  H   UNL     1       2.089   1.240   8.574  0.00  0.00    -0.086 HD
ATOM     14  H   UNL     1       2.913  -0.162   8.321  0.00  0.00    -0.086 HD
ENDROOT
BRANCH   1  21
ATOM     15  C   UNL     1       1.414   0.958   0.216  0.00  0.00    +0.044 C 
ATOM     16  C   UNL     1       0.678  -0.350   0.086  0.00  0.00    -0.038 A 
ATOM     17  C   UNL     1       0.624  -0.995  -1.132  0.00  0.00    +0.007 A 
ATOM     18  C   UNL     1      -0.050  -2.196  -1.254  0.00  0.00    +0.038 A 
ATOM     19  C   UNL     1      -0.677  -2.760  -0.154  0.00  0.00    +0.124 A 
ATOM     20  C   UNL     1      -0.631  -2.124   1.071  0.00  0.00    +0.051 A 
ATOM     21  C   UNL     1       0.054  -0.915   1.200  0.00  0.00    +0.043 A 
ATOM     22  F   UNL     1      -1.335  -3.933  -0.281  0.00  0.00    -0.205 F 
ENDBRANCH   1  21
BRANCH   5  23
ATOM     23  C   UNL     1       3.062  -2.502   4.302  0.00  0.00    +0.218 C 
ATOM     24  O   UNL     1       3.281  -1.981   3.229  0.00  0.00    -0.275 OA
ATOM     25  N   UNL     1       4.064  -3.098   4.979  0.00  0.00    -0.312 N 
ATOM     26  H   UNL     1       3.889  -3.514   5.838  0.00  0.00    +0.149 HD
BRANCH  25  27
ATOM     27  C   UNL     1       5.418  -3.115   4.419  0.00  0.00    +0.070 C 
ATOM     28  C   UNL     1       6.138  -1.816   4.785  0.00  0.00    +0.028 C 
BRANCH  27  29
ATOM     29  C   UNL     1       6.190  -4.306   4.990  0.00  0.00    +0.026 C 
BRANCH  29  30
ATOM     30  C   UNL     1       5.540  -5.609   4.519  0.00  0.00    +0.037 C 
BRANCH  30  31
ATOM     31  C   UNL     1       6.302  -6.782   5.081  0.00  0.00    -0.047 A 
ATOM     32  C   UNL     1       7.362  -7.319   4.375  0.00  0.00    +0.007 A 
ATOM     33  C   UNL     1       8.061  -8.394   4.888  0.00  0.00    +0.046 A 
ATOM     34  C   UNL     1       7.699  -8.935   6.113  0.00  0.00    +0.120 A 
ATOM     35  C   UNL     1       6.635  -8.393   6.821  0.00  0.00    +0.046 A 
ATOM     36  C   UNL     1       5.943  -7.315   6.306  0.00  0.00    +0.007 A 
BRANCH  34  37
ATOM     37  O   UNL     1       8.385  -9.993   6.620  0.00  0.00    -0.495 OA
ATOM     38  C   UNL     1       7.957 -10.497   7.886  0.00  0.00    +0.277 C 
ENDBRANCH  34  37
ENDBRANCH  30  31
ENDBRANCH  29  30
ENDBRANCH  27  29
ENDBRANCH  25  27
ENDBRANCH   5  23
TORSDOF 7
