REMARK  Name = ZINC08063435
REMARK  5 active torsions:
REMARK  status: ('A' for Active; 'I' for Inactive)
REMARK    1  A    between atoms: C_1  and  N_2
REMARK    2  A    between atoms: N_2  and  C_3
REMARK    3  A    between atoms: N_2  and  C_15
REMARK    4  A    between atoms: C_3  and  C_4
REMARK    5  A    between atoms: N_18  and  C_23
REMARK                            x       y       z     vdW  Elec       q    Type
REMARK                         _______ _______ _______ _____ _____    ______ ____
ROOT
ATOM      1  C   UNL     1       1.110   7.525   0.744  0.00  0.00    +0.074 A 
ATOM      2  C   UNL     1       0.538   8.096  -0.413  0.00  0.00    +0.158 A 
ATOM      3  N   UNL     1       0.456   9.392  -0.537  0.00  0.00    -0.170 NA
ATOM      4  N   UNL     1       0.942  10.244   0.460  0.00  0.00    -0.195 N 
ATOM      5  C   UNL     1       1.501   9.741   1.578  0.00  0.00    +0.292 A 
ATOM      6  O   UNL     1       1.923  10.492   2.445  0.00  0.00    -0.264 OA
ATOM      7  C   UNL     1       1.596   8.352   1.741  0.00  0.00    +0.129 A 
ATOM      8 CL   UNL     1       2.312   7.679   3.172  0.00  0.00    -0.076 Cl
ENDROOT
BRANCH   4   9
ATOM      9  C   UNL     1       0.846  11.630   0.295  0.00  0.00    +0.069 A 
ATOM     10  C   UNL     1       0.331  12.419   1.316  0.00  0.00    +0.028 A 
ATOM     11  C   UNL     1       0.242  13.787   1.151  0.00  0.00    +0.002 A 
ATOM     12  C   UNL     1       0.656  14.371  -0.032  0.00  0.00    +0.000 A 
ATOM     13  C   UNL     1       1.165  13.588  -1.052  0.00  0.00    +0.002 A 
ATOM     14  C   UNL     1       1.261  12.220  -0.892  0.00  0.00    +0.028 A 
ENDBRANCH   4   9
BRANCH   1  16
ATOM     15  C   UNL     1      -0.149   5.547   0.938  0.00  0.00    +0.129 C 
ATOM     16  N   UNL     1       1.190   6.148   0.877  0.00  0.00    -0.327 N 
BRANCH  16  17
ATOM     17  C   UNL     1       1.983   5.559  -0.211  0.00  0.00    +0.152 C 
BRANCH  17  18
ATOM     18  C   UNL     1       3.469   5.822   0.041  0.00  0.00    +0.228 C 
ATOM     19  C   UNL     1       4.299   5.251  -1.116  0.00  0.00    +0.275 C 
ATOM     20  O   UNL     1       5.682   5.501  -0.842  0.00  0.00    -0.485 OA
ATOM     21  C   UNL     1       6.118   5.218   0.415  0.00  0.00    +0.162 A 
ATOM     22  C   UNL     1       7.478   5.091   0.652  0.00  0.00    +0.049 A 
ATOM     23  C   UNL     1       7.936   4.808   1.925  0.00  0.00    +0.004 A 
ATOM     24  C   UNL     1       7.040   4.651   2.966  0.00  0.00    +0.004 A 
ATOM     25  C   UNL     1       5.682   4.775   2.736  0.00  0.00    +0.049 A 
ATOM     26  C   UNL     1       5.216   5.057   1.461  0.00  0.00    +0.163 A 
ATOM     27  O   UNL     1       3.877   5.170   1.249  0.00  0.00    -0.480 OA
ENDBRANCH  17  18
ENDBRANCH  16  17
ENDBRANCH   1  16
TORSDOF 4
