REMARK  Name = ZINC35575223
REMARK  12 active torsions:
REMARK  status: ('A' for Active; 'I' for Inactive)
REMARK    1  A    between atoms: C_1  and  C_2
REMARK    2  A    between atoms: C_2  and  O_3
REMARK    3  A    between atoms: O_3  and  C_4
REMARK    4  A    between atoms: C_4  and  C_6
REMARK    5  A    between atoms: C_6  and  N_7
REMARK    6  A    between atoms: N_10  and  C_11
REMARK    7  A    between atoms: N_10  and  C_12
REMARK    8  A    between atoms: C_12  and  C_13
REMARK    9  A    between atoms: N_16  and  C_18
REMARK   10  A    between atoms: C_21  and  C_24
REMARK   11  A    between atoms: N_27  and  C_29
REMARK   12  A    between atoms: C_29  and  C_30
REMARK                            x       y       z     vdW  Elec       q    Type
REMARK                         _______ _______ _______ _____ _____    ______ ____
ROOT
ATOM      1  C   UNL     1       3.942  -6.732  -4.018  0.00  0.00    +0.082 A 
ATOM      2  C   UNL     1       4.975  -5.880  -4.396  0.00  0.00    -0.018 A 
ATOM      3  C   UNL     1       6.142  -6.407  -3.938  0.00  0.00    +0.045 A 
ATOM      4  N   UNL     1       5.855  -7.549  -3.293  0.00  0.00    -0.236 N 
ATOM      5  N   UNL     1       4.464  -7.734  -3.351  0.00  0.00    -0.169 NA
ATOM      6  C   UNL     1       7.483  -5.755  -4.169  0.00  0.00    +0.037 C 
ATOM      7  C   UNL     1       7.305  -4.705  -5.275  0.00  0.00    -0.072 C 
ATOM      8  N   UNL     1       6.154  -3.847  -4.964  0.00  0.00    +0.385 N 
ATOM      9  C   UNL     1       4.898  -4.587  -5.168  0.00  0.00    -0.039 C 
ATOM     10  H   UNL     1       6.212  -3.546  -4.003  0.00  0.00    -0.081 HD
ENDROOT
BRANCH   4  11
ATOM     11  C   UNL     1       6.777  -8.400  -2.669  0.00  0.00    +0.066 A 
ATOM     12  C   UNL     1       7.808  -7.870  -1.905  0.00  0.00    +0.028 A 
ATOM     13  C   UNL     1       8.715  -8.711  -1.292  0.00  0.00    +0.005 A 
ATOM     14  C   UNL     1       8.597 -10.081  -1.437  0.00  0.00    -0.050 A 
ATOM     15  C   UNL     1       7.571 -10.613  -2.197  0.00  0.00    +0.005 A 
ATOM     16  C   UNL     1       6.658  -9.777  -2.808  0.00  0.00    +0.028 A 
ATOM     17  C   UNL     1       9.588 -10.997  -0.766  0.00  0.00    +0.044 C 
ENDBRANCH   4  11
BRANCH   1  18
ATOM     18  C   UNL     1       2.479  -6.535  -4.318  0.00  0.00    +0.166 C 
BRANCH  18  22
ATOM     19  N   UNL     1       1.188  -9.214  -6.477  0.00  0.00    -0.289 N 
ATOM     20  C   UNL     1       1.623  -8.550  -5.388  0.00  0.00    +0.303 C 
ATOM     21  O   UNL     1       1.570  -9.076  -4.293  0.00  0.00    -0.253 OA
ATOM     22  N   UNL     1       2.117  -7.302  -5.512  0.00  0.00    -0.283 N 
ATOM     23  C   UNL     1       2.292  -6.713  -6.842  0.00  0.00    +0.134 C 
ATOM     24  H   UNL     1       1.230  -8.794  -7.350  0.00  0.00    +0.151 HD
BRANCH  19  25
ATOM     25  C   UNL     1       0.651 -10.571  -6.341  0.00  0.00    +0.226 C 
BRANCH  25  26
ATOM     26  C   UNL     1       0.238 -11.085  -7.696  0.00  0.00    +0.324 C 
ATOM     27  O   UNL     1       0.378 -10.390  -8.675  0.00  0.00    -0.249 OA
BRANCH  26  28
ATOM     28  O   UNL     1      -0.286 -12.315  -7.816  0.00  0.00    -0.464 OA
BRANCH  28  30
ATOM     29  C   UNL     1      -1.228 -14.155  -9.068  0.00  0.00    +0.048 C 
ATOM     30  C   UNL     1      -0.655 -12.738  -9.130  0.00  0.00    +0.229 C 
ENDBRANCH  28  30
ENDBRANCH  26  28
ENDBRANCH  25  26
ENDBRANCH  19  25
ENDBRANCH  18  22
ENDBRANCH   1  18
BRANCH   8  31
ATOM     31  C   UNL     1       6.173  -2.669  -5.841  0.00  0.00    -0.043 C 
BRANCH  31  32
ATOM     32  C   UNL     1       7.389  -1.834  -5.534  0.00  0.00    -0.064 A 
ATOM     33  C   UNL     1       7.319  -0.839  -4.576  0.00  0.00    +0.004 A 
ATOM     34  C   UNL     1       8.434  -0.073  -4.293  0.00  0.00    +0.038 A 
ATOM     35  C   UNL     1       9.621  -0.301  -4.968  0.00  0.00    +0.123 A 
ATOM     36  C   UNL     1       9.689  -1.297  -5.927  0.00  0.00    +0.038 A 
ATOM     37  C   UNL     1       8.575  -2.066  -6.205  0.00  0.00    +0.004 A 
ATOM     38  F   UNL     1      10.711   0.448  -4.693  0.00  0.00    -0.205 F 
ENDBRANCH  31  32
ENDBRANCH   8  31
TORSDOF 9
