REMARK  Name = ZINC20685319
REMARK  12 active torsions:
REMARK  status: ('A' for Active; 'I' for Inactive)
REMARK    1  A    between atoms: C_1  and  C_2
REMARK    2  A    between atoms: C_2  and  C_3
REMARK    3  A    between atoms: C_7  and  C_35
REMARK    4  A    between atoms: C_8  and  N_9
REMARK    5  A    between atoms: N_9  and  C_10
REMARK    6  A    between atoms: C_10  and  N_12
REMARK    7  A    between atoms: N_12  and  N_13
REMARK    8  A    between atoms: N_21  and  C_24
REMARK    9  A    between atoms: C_24  and  N_25
REMARK   10  A    between atoms: C_27  and  C_34
REMARK   11  A    between atoms: C_30  and  C_33
REMARK   12  A    between atoms: C_35  and  C_36
REMARK                            x       y       z     vdW  Elec       q    Type
REMARK                         _______ _______ _______ _____ _____    ______ ____
ROOT
ATOM      1  N   UNL     1      -3.592   0.684   1.957  0.00  0.00    -0.175 NA
ATOM      2  C   UNL     1      -4.842   1.058   1.819  0.00  0.00    +0.153 C 
ATOM      3  C   UNL     1      -5.426   1.863   0.721  0.00  0.00    +0.028 A 
ATOM      4  C   UNL     1      -4.892   2.440  -0.425  0.00  0.00    +0.012 A 
ATOM      5  C   UNL     1      -5.711   3.151  -1.280  0.00  0.00    +0.001 A 
ATOM      6  C   UNL     1      -7.059   3.288  -0.994  0.00  0.00    +0.002 A 
ATOM      7  C   UNL     1      -7.599   2.719   0.142  0.00  0.00    +0.024 A 
ATOM      8  C   UNL     1      -6.789   1.999   1.014  0.00  0.00    +0.047 A 
ATOM      9  N   UNL     1      -7.072   1.338   2.204  0.00  0.00    -0.252 N 
ATOM     10  C   UNL     1      -5.973   0.762   2.719  0.00  0.00    +0.272 C 
ATOM     11  O   UNL     1      -5.919   0.115   3.748  0.00  0.00    -0.268 OA
ENDROOT
BRANCH   1  12
ATOM     12  N   UNL     1      -3.209  -0.087   3.063  0.00  0.00    -0.217 N 
ATOM     13  H   UNL     1      -3.869  -0.344   3.726  0.00  0.00    +0.176 HD
BRANCH  12  14
ATOM     14  C   UNL     1      -1.925  -0.471   3.205  0.00  0.00    +0.154 C 
ATOM     15  S   UNL     1      -1.458  -1.413   4.556  0.00  0.00    -0.017 S 
BRANCH  14  16
ATOM     16  N   UNL     1      -1.009  -0.113   2.283  0.00  0.00    -0.295 N 
ATOM     17  H   UNL     1      -1.258   0.477   1.555  0.00  0.00    +0.154 HD
BRANCH  16  23
ATOM     18  C   UNL     1       1.220   0.046   3.198  0.00  0.00    -0.026 A 
ATOM     19  C   UNL     1       2.511  -0.434   3.293  0.00  0.00    +0.005 A 
ATOM     20  C   UNL     1       2.891  -1.547   2.566  0.00  0.00    +0.001 A 
ATOM     21  C   UNL     1       1.981  -2.183   1.742  0.00  0.00    +0.005 A 
ATOM     22  C   UNL     1       0.688  -1.708   1.643  0.00  0.00    -0.026 A 
ATOM     23  C   UNL     1       0.301  -0.593   2.376  0.00  0.00    +0.039 A 
BRANCH  18  25
ATOM     24  C   UNL     1       1.914   1.624   4.981  0.00  0.00    +0.009 C 
ATOM     25  C   UNL     1       0.807   1.260   3.991  0.00  0.00    +0.033 C 
ENDBRANCH  18  25
BRANCH  22  26
ATOM     26  C   UNL     1      -0.304  -2.400   0.744  0.00  0.00    +0.033 C 
ATOM     27  C   UNL     1      -0.326  -1.708  -0.620  0.00  0.00    +0.009 C 
ENDBRANCH  22  26
ENDBRANCH  16  23
ENDBRANCH  14  16
ENDBRANCH  12  14
ENDBRANCH   1  12
BRANCH   9  28
ATOM     28  C   UNL     1      -8.402   1.272   2.815  0.00  0.00    +0.201 C 
BRANCH  28  29
ATOM     29  N   UNL     1      -9.114   0.090   2.311  0.00  0.00    -0.286 NA
ATOM     30  C   UNL     1      -9.700   0.352   0.990  0.00  0.00    +0.089 C 
ATOM     31  C   UNL     1     -10.306  -0.939   0.434  0.00  0.00    +0.000 C 
ATOM     32  C   UNL     1     -11.381  -1.448   1.397  0.00  0.00    +0.009 C 
ATOM     33  C   UNL     1     -10.756  -1.667   2.778  0.00  0.00    +0.000 C 
ATOM     34  C   UNL     1     -10.137  -0.355   3.266  0.00  0.00    +0.089 C 
ATOM     35  C   UNL     1     -11.836  -2.120   3.762  0.00  0.00    +0.009 C 
ATOM     36  C   UNL     1      -9.210  -1.996   0.286  0.00  0.00    +0.009 C 
ENDBRANCH  28  29
ENDBRANCH   9  28
TORSDOF 8
