REMARK  Name = ZINC20582873
REMARK  6 active torsions:
REMARK  status: ('A' for Active; 'I' for Inactive)
REMARK    1  A    between atoms: C_1  and  C_2
REMARK    2  A    between atoms: C_7  and  N_12
REMARK    3  A    between atoms: C_9  and  C_11
REMARK    4  A    between atoms: C_16  and  S_18
REMARK    5  A    between atoms: S_18  and  C_19
REMARK    6  A    between atoms: C_19  and  C_20
REMARK                            x       y       z     vdW  Elec       q    Type
REMARK                         _______ _______ _______ _____ _____    ______ ____
ROOT
ATOM      1  N   UNL     1      -0.020   1.094   2.454  0.00  0.00    -0.319 N 
ATOM      2  C   UNL     1      -0.293  -0.173   2.956  0.00  0.00    +0.183 A 
ATOM      3  N   UNL     1      -1.147  -1.079   2.521  0.00  0.00    -0.125 NA
ATOM      4  N   UNL     1      -1.258  -2.285   3.173  0.00  0.00    -0.133 NA
ATOM      5  C   UNL     1      -0.517  -2.525   4.238  0.00  0.00    +0.160 A 
ATOM      6  S   UNL     1       0.413  -1.006   4.370  0.00  0.00    -0.025 S 
ATOM      7  H   UNL     1       0.728   1.732   2.947  0.00  0.00    +0.148 HD
ENDROOT
BRANCH   1  13
ATOM      8  C   UNL     1      -2.925   3.086   0.047  0.00  0.00    +0.008 C 
ATOM      9  C   UNL     1      -1.490   3.616   0.036  0.00  0.00    -0.009 C 
ATOM     10  C   UNL     1      -0.773   3.123  -1.223  0.00  0.00    +0.003 C 
ATOM     11  C   UNL     1      -0.753   1.593  -1.232  0.00  0.00    +0.002 C 
ATOM     12  C   UNL     1      -0.013   1.086   0.008  0.00  0.00    +0.022 C 
ATOM     13  C   UNL     1      -0.729   1.579   1.267  0.00  0.00    +0.075 C 
ATOM     14  C   UNL     1      -0.750   3.109   1.275  0.00  0.00    +0.009 C 
ATOM     15  C   UNL     1      -1.466   3.603   2.534  0.00  0.00    +0.009 C 
ENDBRANCH   1  13
BRANCH   5  16
ATOM     16  S   UNL     1      -0.460  -3.962   5.257  0.00  0.00    -0.085 S 
BRANCH  16  17
ATOM     17  C   UNL     1      -1.677  -5.080   4.509  0.00  0.00    +0.201 C 
BRANCH  17  18
ATOM     18  C   UNL     1      -1.729  -6.364   5.295  0.00  0.00    +0.366 C 
ATOM     19  O   UNL     1      -1.018  -6.511   6.261  0.00  0.00    -0.245 OA
ATOM     20  O   UNL     1      -2.565  -7.346   4.922  0.00  0.00    -0.245 OA
ENDBRANCH  17  18
ENDBRANCH  16  17
ENDBRANCH   5  16
TORSDOF 4
