REMARK  Name = ZINC35753624
REMARK  11 active torsions:
REMARK  status: ('A' for Active; 'I' for Inactive)
REMARK    1  A    between atoms: C_1  and  C_2
REMARK    2  A    between atoms: C_2  and  C_3
REMARK    3  A    between atoms: C_2  and  C_4
REMARK    4  A    between atoms: C_4  and  C_5
REMARK    5  A    between atoms: N_7  and  C_8
REMARK    6  A    between atoms: C_12  and  C_14
REMARK    7  A    between atoms: C_16  and  C_30
REMARK    8  A    between atoms: N_18  and  C_22
REMARK    9  A    between atoms: C_22  and  C_23
REMARK   10  A    between atoms: N_32  and  C_33
REMARK   11  A    between atoms: C_33  and  C_34
REMARK                            x       y       z     vdW  Elec       q    Type
REMARK                         _______ _______ _______ _____ _____    ______ ____
ROOT
ATOM      1  C   UNL     1      -7.285  -0.562  -4.500  0.00  0.00    +0.238 C 
ATOM      2  C   UNL     1      -8.199   0.681  -4.394  0.00  0.00    +0.210 C 
ATOM      3  N   UNL     1      -9.159   0.457  -5.493  0.00  0.00    -0.248 N 
ATOM      4  C   UNL     1      -8.655  -0.505  -6.288  0.00  0.00    +0.405 C 
ATOM      5  O   UNL     1      -9.228  -0.935  -7.270  0.00  0.00    -0.226 OA
ATOM      6  O   UNL     1      -7.451  -0.942  -5.880  0.00  0.00    -0.440 OA
ENDROOT
BRANCH   1  11
ATOM      7  C   UNL     1      -3.973  -0.181  -2.719  0.00  0.00    +0.034 A 
ATOM      8  C   UNL     1      -3.214   0.466  -3.686  0.00  0.00    +0.023 A 
ATOM      9  C   UNL     1      -3.776   0.776  -4.909  0.00  0.00    +0.002 A 
ATOM     10  C   UNL     1      -5.093   0.443  -5.171  0.00  0.00    +0.007 A 
ATOM     11  C   UNL     1      -5.850  -0.201  -4.210  0.00  0.00    -0.003 A 
ATOM     12  C   UNL     1      -5.292  -0.520  -2.987  0.00  0.00    +0.030 A 
BRANCH   7  15
ATOM     13  C   UNL     1      -3.757  -1.635  -0.848  0.00  0.00    +0.217 C 
ATOM     14  O   UNL     1      -4.624  -2.344  -1.313  0.00  0.00    -0.275 OA
ATOM     15  N   UNL     1      -3.406  -0.497  -1.479  0.00  0.00    -0.285 N 
ATOM     16  H   UNL     1      -2.761   0.103  -1.074  0.00  0.00    +0.155 HD
BRANCH  13  17
ATOM     17  C   UNL     1      -3.071  -2.027   0.435  0.00  0.00    +0.099 C 
BRANCH  17  19
ATOM     18  C   UNL     1      -3.319  -4.465  -0.053  0.00  0.00    +0.008 C 
ATOM     19  C   UNL     1      -3.651  -3.350   0.940  0.00  0.00    -0.008 C 
ATOM     20  C   UNL     1      -3.046  -3.685   2.305  0.00  0.00    +0.008 C 
ENDBRANCH  17  19
ENDBRANCH  13  17
ENDBRANCH   7  15
ENDBRANCH   1  11
BRANCH   2  21
ATOM     21  C   UNL     1      -7.411   1.947  -4.614  0.00  0.00    +0.238 C 
ATOM     22  O   UNL     1      -7.440   2.499  -5.694  0.00  0.00    -0.274 OA
ATOM     23  N   UNL     1      -6.676   2.466  -3.611  0.00  0.00    -0.307 N 
ATOM     24  H   UNL     1      -6.653   2.025  -2.748  0.00  0.00    +0.149 HD
BRANCH  23  25
ATOM     25  C   UNL     1      -5.910   3.696  -3.825  0.00  0.00    +0.178 C 
BRANCH  25  26
ATOM     26  C   UNL     1      -5.180   4.061  -2.558  0.00  0.00    +0.122 A 
ATOM     27  C   UNL     1      -3.939   3.665  -2.223  0.00  0.00    +0.046 A 
ATOM     28  C   UNL     1      -3.654   4.235  -0.961  0.00  0.00    +0.041 A 
ATOM     29  C   UNL     1      -4.738   4.945  -0.600  0.00  0.00    +0.195 A 
ATOM     30  O   UNL     1      -5.657   4.841  -1.573  0.00  0.00    -0.466 OA
ENDBRANCH  25  26
ENDBRANCH  23  25
ENDBRANCH   2  21
BRANCH   3  31
ATOM     31  C   UNL     1     -10.432   1.157  -5.684  0.00  0.00    +0.147 C 
BRANCH  31  32
ATOM     32  C   UNL     1     -10.209   2.385  -6.528  0.00  0.00    -0.030 A 
ATOM     33  C   UNL     1      -9.896   3.589  -5.925  0.00  0.00    +0.008 A 
ATOM     34  C   UNL     1      -9.691   4.716  -6.698  0.00  0.00    +0.038 A 
ATOM     35  C   UNL     1      -9.798   4.639  -8.077  0.00  0.00    +0.123 A 
ATOM     36  C   UNL     1     -10.111   3.432  -8.679  0.00  0.00    +0.038 A 
ATOM     37  C   UNL     1     -10.311   2.305  -7.904  0.00  0.00    +0.008 A 
ATOM     38  F   UNL     1      -9.597   5.740  -8.833  0.00  0.00    -0.205 F 
ENDBRANCH  31  32
ENDBRANCH   3  31
TORSDOF 9
