REMARK  Name = ZINC36245730
REMARK  8 active torsions:
REMARK  status: ('A' for Active; 'I' for Inactive)
REMARK    1  A    between atoms: C_1  and  C_2
REMARK    2  A    between atoms: C_2  and  C_3
REMARK    3  A    between atoms: C_3  and  C_4
REMARK    4  A    between atoms: C_3  and  C_5
REMARK    5  A    between atoms: C_3  and  C_6
REMARK    6  A    between atoms: N_14  and  C_18
REMARK    7  A    between atoms: C_18  and  C_19
REMARK    8  A    between atoms: N_21  and  C_22
REMARK                            x       y       z     vdW  Elec       q    Type
REMARK                         _______ _______ _______ _____ _____    ______ ____
ROOT
ATOM      1  C   UNL     1       0.734  -2.032  -1.258  0.00  0.00    -0.005 C 
ATOM      2  C   UNL     1       1.481  -2.534  -0.020  0.00  0.00    +0.006 C 
ATOM      3  C   UNL     1       1.495  -4.065  -0.021  0.00  0.00    +0.035 C 
ATOM      4  C   UNL     1       2.179  -4.567  -1.287  0.00  0.00    +0.113 C 
ATOM      5  C   UNL     1       1.458  -4.057  -2.529  0.00  0.00    +0.035 C 
ATOM      6  C   UNL     1       1.444  -2.526  -2.520  0.00  0.00    +0.006 C 
ATOM      7  C   UNL     1       2.235  -6.078  -1.292  0.00  0.00    +0.247 C 
ATOM      8  O   UNL     1       1.298  -6.847  -1.282  0.00  0.00    -0.273 OA
ATOM      9  N   UNL     1       3.548  -6.389  -1.313  0.00  0.00    -0.215 N 
ATOM     10  C   UNL     1       4.315  -5.292  -1.321  0.00  0.00    +0.310 C 
ATOM     11  O   UNL     1       5.530  -5.317  -1.339  0.00  0.00    -0.252 OA
ATOM     12  N   UNL     1       3.589  -4.158  -1.306  0.00  0.00    -0.285 N 
ATOM     13  H   UNL     1       3.930  -3.250  -1.308  0.00  0.00    +0.151 HD
ENDROOT
BRANCH   1  14
ATOM     14  C   UNL     1       0.710  -0.502  -1.252  0.00  0.00    -0.032 C 
ATOM     15  C   UNL     1      -0.038   0.001  -2.489  0.00  0.00    +0.011 C 
ATOM     16  C   UNL     1       2.144   0.031  -1.273  0.00  0.00    +0.011 C 
BRANCH  14  18
ATOM     17  C   UNL     1      -0.023   1.523   0.015  0.00  0.00    +0.004 C 
ATOM     18  C   UNL     1       0.001  -0.007   0.010  0.00  0.00    +0.003 C 
ENDBRANCH  14  18
ENDBRANCH   1  14
BRANCH   9  19
ATOM     19  C   UNL     1       4.069  -7.759  -1.324  0.00  0.00    +0.214 C 
BRANCH  19  20
ATOM     20  C   UNL     1       4.226  -8.224  -2.749  0.00  0.00    +0.235 C 
ATOM     21  O   UNL     1       3.932  -7.485  -3.664  0.00  0.00    -0.274 OA
ATOM     22  N   UNL     1       4.694  -9.462  -3.005  0.00  0.00    -0.284 N 
ATOM     23  H   UNL     1       4.992 -10.028  -2.276  0.00  0.00    +0.155 HD
BRANCH  22  24
ATOM     24  C   UNL     1       4.749  -9.930  -4.323  0.00  0.00    +0.034 A 
ATOM     25  C   UNL     1       5.048  -9.057  -5.360  0.00  0.00    +0.023 A 
ATOM     26  C   UNL     1       5.102  -9.524  -6.657  0.00  0.00    +0.006 A 
ATOM     27  C   UNL     1       4.858 -10.861  -6.930  0.00  0.00    -0.044 A 
ATOM     28  C   UNL     1       4.559 -11.732  -5.899  0.00  0.00    -0.042 A 
ATOM     29  C   UNL     1       4.510 -11.269  -4.596  0.00  0.00    +0.027 A 
ATOM     30  C   UNL     1       4.336 -13.123  -6.454  0.00  0.00    +0.036 C 
ATOM     31  C   UNL     1       4.099 -12.922  -7.965  0.00  0.00    +0.009 C 
ATOM     32  C   UNL     1       4.855 -11.607  -8.247  0.00  0.00    +0.036 C 
ENDBRANCH  22  24
ENDBRANCH  19  20
ENDBRANCH   9  19
TORSDOF 5
