REMARK  Name = ZINC16701537
REMARK  8 active torsions:
REMARK  status: ('A' for Active; 'I' for Inactive)
REMARK    1  A    between atoms: C_1  and  C_2
REMARK    2  A    between atoms: C_4  and  N_25
REMARK    3  A    between atoms: C_7  and  S_8
REMARK    4  A    between atoms: S_8  and  N_11
REMARK    5  A    between atoms: N_11  and  C_12
REMARK    6  A    between atoms: C_15  and  N_18
REMARK    7  A    between atoms: C_21  and  C_24
REMARK    8  A    between atoms: C_28  and  C_34
REMARK                            x       y       z     vdW  Elec       q    Type
REMARK                         _______ _______ _______ _____ _____    ______ ____
ROOT
ATOM      1  S   UNL     1       1.928  -6.642  -0.707  0.00  0.00    +0.073 S 
ATOM      2  O   UNL     1       3.338  -6.755  -0.842  0.00  0.00    -0.150 OA
ATOM      3  O   UNL     1       1.279  -5.392  -0.516  0.00  0.00    -0.150 OA
ENDROOT
BRANCH   1  10
ATOM      4  C   UNL     1       2.689  -9.356  -1.797  0.00  0.00    +0.046 C 
ATOM      5  C   UNL     1       1.637  -8.609  -2.576  0.00  0.00    -0.022 A 
ATOM      6  C   UNL     1       1.087  -9.175  -3.709  0.00  0.00    +0.030 A 
ATOM      7  C   UNL     1       0.118  -8.486  -4.426  0.00  0.00    +0.060 A 
ATOM      8  C   UNL     1      -0.291  -7.227  -4.004  0.00  0.00    +0.027 A 
ATOM      9  C   UNL     1       0.259  -6.670  -2.866  0.00  0.00    +0.031 A 
ATOM     10  C   UNL     1       1.224  -7.359  -2.154  0.00  0.00    +0.111 A 
BRANCH   7  11
ATOM     11  N   UNL     1      -0.442  -9.056  -5.575  0.00  0.00    -0.144 N 
ATOM     12  C   UNL     1      -0.519 -10.367  -5.849  0.00  0.00    +0.243 C 
ATOM     13  O   UNL     1      -0.111 -11.190  -5.057  0.00  0.00    -0.273 OA
ATOM     14  C   UNL     1      -1.121 -10.791  -7.154  0.00  0.00    +0.097 C 
ATOM     15  C   UNL     1      -1.966  -9.617  -7.715  0.00  0.00    +0.201 C 
ATOM     16  S   UNL     1      -1.133  -8.222  -6.852  0.00  0.00    +0.053 S 
ATOM     17  O   UNL     1      -2.087  -7.345  -6.267  0.00  0.00    -0.155 OA
ATOM     18  O   UNL     1      -0.046  -7.725  -7.620  0.00  0.00    -0.155 OA
ATOM     19  C   UNL     1      -2.017 -12.012  -6.936  0.00  0.00    +0.019 C 
ENDBRANCH   7  11
ENDBRANCH   1  10
BRANCH   1  20
ATOM     20  N   UNL     1       1.496  -7.599   0.574  0.00  0.00    -0.216 N 
ATOM     21  H   UNL     1       2.180  -8.040   1.102  0.00  0.00    +0.174 HD
BRANCH  20  22
ATOM     22  C   UNL     1       0.144  -7.772   0.894  0.00  0.00    +0.048 A 
ATOM     23  C   UNL     1      -0.702  -6.672   0.954  0.00  0.00    +0.026 A 
ATOM     24  C   UNL     1      -2.036  -6.843   1.264  0.00  0.00    +0.025 A 
ATOM     25  C   UNL     1      -2.530  -8.114   1.526  0.00  0.00    +0.030 A 
ATOM     26  C   UNL     1      -1.684  -9.213   1.472  0.00  0.00    +0.025 A 
ATOM     27  C   UNL     1      -0.350  -9.043   1.157  0.00  0.00    +0.026 A 
BRANCH  25  28
ATOM     28  N   UNL     1      -3.883  -8.287   1.846  0.00  0.00    -0.330 N 
ATOM     29  C   UNL     1      -4.521  -9.244   0.933  0.00  0.00    +0.105 C 
ATOM     30  C   UNL     1      -5.952  -9.519   1.398  0.00  0.00    +0.022 C 
ATOM     31  C   UNL     1      -6.737  -8.204   1.420  0.00  0.00    -0.011 C 
ATOM     32  C   UNL     1      -6.026  -7.209   2.340  0.00  0.00    +0.022 C 
ATOM     33  C   UNL     1      -4.592  -7.001   1.847  0.00  0.00    +0.105 C 
ATOM     34  C   UNL     1      -8.152  -8.462   1.942  0.00  0.00    +0.007 C 
ENDBRANCH  25  28
ENDBRANCH  20  22
ENDBRANCH   1  20
TORSDOF 5
