REMARK  Name = ZINC18774279
REMARK  5 active torsions:
REMARK  status: ('A' for Active; 'I' for Inactive)
REMARK    1  A    between atoms: C_1  and  C_2
REMARK    2  A    between atoms: C_11  and  C_13
REMARK    3  A    between atoms: C_13  and  S_14
REMARK    4  A    between atoms: S_14  and  C_15
REMARK    5  A    between atoms: C_17  and  C_25
REMARK                            x       y       z     vdW  Elec       q    Type
REMARK                         _______ _______ _______ _____ _____    ______ ____
ROOT
ATOM      1  C   UNL     1       4.804   4.178  -0.021  0.00  0.00    +0.131 C 
ENDROOT
BRANCH   1  12
ATOM      2  C   UNL     1      -1.336   2.075   0.020  0.00  0.00    +0.064 C 
ATOM      3  C   UNL     1      -0.016   1.348   0.009  0.00  0.00    +0.025 A 
ATOM      4  C   UNL     1       0.002  -0.004   0.002  0.00  0.00    +0.021 A 
ATOM      5  C   UNL     1       1.224  -0.692  -0.013  0.00  0.00    +0.005 A 
ATOM      6  C   UNL     1       2.391   0.011  -0.021  0.00  0.00    +0.047 A 
ATOM      7  C   UNL     1       2.351   1.418  -0.013  0.00  0.00    +0.141 A 
ATOM      8  N   UNL     1       1.145   2.060   0.002  0.00  0.00    -0.265 N 
ATOM      9  C   UNL     1       1.101   3.409   0.010  0.00  0.00    +0.259 A 
ATOM     10  O   UNL     1       0.030   3.995   0.023  0.00  0.00    -0.267 OA
ATOM     11  C   UNL     1       2.303   4.126   0.002  0.00  0.00    +0.094 A 
ATOM     12  C   UNL     1       3.496   3.430  -0.013  0.00  0.00    +0.059 A 
ATOM     13  N   UNL     1       3.491   2.107  -0.020  0.00  0.00    -0.233 NA
ENDBRANCH   1  12
BRANCH   1  14
ATOM     14  S   UNL     1       5.563   4.086   1.619  0.00  0.00    -0.100 S 
BRANCH  14  15
ATOM     15  C   UNL     1       7.032   5.015   1.330  0.00  0.00    +0.098 A 
ATOM     16  C   UNL     1       7.941   5.204   2.381  0.00  0.00    +0.038 A 
ATOM     17  C   UNL     1       9.083   5.915   2.171  0.00  0.00    -0.039 A 
ATOM     18  C   UNL     1       9.308   6.455   0.887  0.00  0.00    +0.003 A 
ATOM     19  C   UNL     1      10.461   7.203   0.604  0.00  0.00    +0.010 A 
ATOM     20  C   UNL     1      10.645   7.709  -0.648  0.00  0.00    +0.001 A 
ATOM     21  C   UNL     1       9.703   7.493  -1.651  0.00  0.00    +0.002 A 
ATOM     22  C   UNL     1       8.574   6.772  -1.410  0.00  0.00    +0.028 A 
ATOM     23  C   UNL     1       8.349   6.234  -0.131  0.00  0.00    +0.072 A 
ATOM     24  N   UNL     1       7.247   5.522   0.133  0.00  0.00    -0.240 NA
ATOM     25  C   UNL     1      10.079   6.126   3.283  0.00  0.00    +0.044 C 
ENDBRANCH  14  15
ENDBRANCH   1  14
TORSDOF 3
