REMARK  Name = ZINC20286035
REMARK  12 active torsions:
REMARK  status: ('A' for Active; 'I' for Inactive)
REMARK    1  A    between atoms: C_1  and  C_2
REMARK    2  A    between atoms: C_5  and  N_9
REMARK    3  A    between atoms: N_9  and  C_10
REMARK    4  A    between atoms: N_13  and  C_14
REMARK    5  A    between atoms: C_14  and  C_15
REMARK    6  A    between atoms: C_15  and  C_17
REMARK    7  A    between atoms: C_15  and  N_18
REMARK    8  A    between atoms: N_18  and  C_19
REMARK    9  A    between atoms: C_21  and  C_27
REMARK   10  A    between atoms: C_21  and  C_28
REMARK   11  A    between atoms: C_23  and  C_25
REMARK   12  A    between atoms: C_23  and  C_26
REMARK                            x       y       z     vdW  Elec       q    Type
REMARK                         _______ _______ _______ _____ _____    ______ ____
ROOT
ATOM      1  C   UNL     1      -1.255  -5.469   6.845  0.00  0.00    +0.072 C 
ATOM      2  C   UNL     1      -1.443  -4.355   7.877  0.00  0.00    +0.026 C 
ENDROOT
BRANCH   1   3
ATOM      3  N   UNL     1      -2.374  -5.449   5.894  0.00  0.00    -0.309 NA
ATOM      4  H   UNL     1      -2.640  -4.503   5.668  0.00  0.00    +0.123 HD
BRANCH   3   5
ATOM      5  C   UNL     1      -3.522  -6.211   6.414  0.00  0.00    +0.051 C 
ATOM      6  C   UNL     1      -3.361  -7.684   6.034  0.00  0.00    +0.006 C 
ATOM      7  C   UNL     1      -4.552  -8.487   6.557  0.00  0.00    -0.072 C 
ATOM      8  N   UNL     1      -5.823  -7.933   6.115  0.00  0.00    +0.386 N 
ATOM      9  C   UNL     1      -6.013  -6.496   6.238  0.00  0.00    -0.072 C 
ATOM     10  C   UNL     1      -4.806  -5.688   5.771  0.00  0.00    +0.006 C 
ATOM     11  C   UNL     1      -6.389  -6.095   7.666  0.00  0.00    -0.010 C 
ATOM     12  C   UNL     1      -7.204  -6.106   5.331  0.00  0.00    -0.010 C 
ATOM     13  C   UNL     1      -4.477  -8.614   8.078  0.00  0.00    -0.010 C 
ATOM     14  C   UNL     1      -4.436  -9.913   5.971  0.00  0.00    -0.010 C 
ATOM     15  H   UNL     1      -5.963  -8.193   5.135  0.00  0.00    -0.084 HD
ATOM     16  H   UNL     1      -6.574  -8.402   6.627  0.00  0.00    -0.084 HD
ENDBRANCH   3   5
ENDBRANCH   1   3
BRANCH   1  17
ATOM     17  C   UNL     1       0.059  -5.250   6.092  0.00  0.00    +0.162 C 
BRANCH  17  21
ATOM     18  C   UNL     1       0.143  -4.856   1.661  0.00  0.00    +0.188 C 
ATOM     19  N   UNL     1       0.092  -4.706   3.011  0.00  0.00    -0.198 NA
ATOM     20  C   UNL     1       0.180  -5.870   3.780  0.00  0.00    +0.193 C 
ATOM     21  N   UNL     1       0.182  -6.246   5.025  0.00  0.00    -0.258 NA
ATOM     22  S   UNL     1       0.282  -6.560   2.145  0.00  0.00    -0.013 S 
BRANCH  18  23
ATOM     23  N   UNL     1       0.102  -4.096   0.528  0.00  0.00    -0.188 NA
BRANCH  23  28
ATOM     24  C   UNL     1       0.033   1.564   0.909  0.00  0.00    +0.044 C 
ATOM     25  C   UNL     1       0.051   0.060   0.807  0.00  0.00    -0.049 A 
ATOM     26  C   UNL     1      -0.083  -0.710   1.948  0.00  0.00    +0.005 A 
ATOM     27  C   UNL     1      -0.067  -2.088   1.859  0.00  0.00    +0.027 A 
ATOM     28  C   UNL     1       0.085  -2.701   0.622  0.00  0.00    +0.074 A 
ATOM     29  C   UNL     1       0.220  -1.924  -0.523  0.00  0.00    +0.064 A 
ATOM     30  C   UNL     1       0.197  -0.546  -0.427  0.00  0.00    +0.025 A 
ATOM     31 CL   UNL     1       0.410  -2.685  -2.072  0.00  0.00    -0.082 Cl
ENDBRANCH  23  28
ENDBRANCH  18  23
ENDBRANCH  17  21
ENDBRANCH   1  17
TORSDOF 6
