REMARK  Name = ZINC06265760
REMARK  8 active torsions:
REMARK  status: ('A' for Active; 'I' for Inactive)
REMARK    1  A    between atoms: C_1  and  C_2
REMARK    2  A    between atoms: C_2  and  C_3
REMARK    3  A    between atoms: C_11  and  C_23
REMARK    4  A    between atoms: C_13  and  C_19
REMARK    5  A    between atoms: C_13  and  C_21
REMARK    6  A    between atoms: C_14  and  N_18
REMARK    7  A    between atoms: C_15  and  C_16
REMARK    8  A    between atoms: C_23  and  C_24
REMARK                            x       y       z     vdW  Elec       q    Type
REMARK                         _______ _______ _______ _____ _____    ______ ____
ROOT
ATOM      1  C   UNL     1       0.873  -0.636  -1.147  0.00  0.00    -0.007 C 
ATOM      2  C   UNL     1       2.361  -0.262  -1.134  0.00  0.00    +0.031 C 
ATOM      3  C   UNL     1       2.951  -0.684  -2.455  0.00  0.00    -0.021 C 
ATOM      4  C   UNL     1       2.501  -1.750  -3.088  0.00  0.00    -0.029 C 
ATOM      5  C   UNL     1       1.431  -2.652  -2.548  0.00  0.00    +0.027 C 
ATOM      6  C   UNL     1       0.757  -2.151  -1.293  0.00  0.00    +0.012 C 
ATOM      7  C   UNL     1       0.428  -2.931  -3.669  0.00  0.00    +0.041 C 
ATOM      8  C   UNL     1       1.141  -3.680  -4.795  0.00  0.00    +0.184 C 
ATOM      9  C   UNL     1       2.411  -2.994  -5.201  0.00  0.00    +0.054 C 
ATOM     10  C   UNL     1       3.066  -2.101  -4.417  0.00  0.00    +0.074 C 
ENDROOT
BRANCH   9  11
ATOM     11  N   UNL     1       2.937  -3.284  -6.429  0.00  0.00    -0.358 N 
ATOM     12  H   UNL     1       2.490  -3.918  -7.011  0.00  0.00    +0.142 HD
ATOM     13  H   UNL     1       3.757  -2.855  -6.718  0.00  0.00    +0.142 HD
ENDBRANCH   9  11
BRANCH   1  15
ATOM     14  C   UNL     1       0.237   1.335   0.251  0.00  0.00    +0.004 C 
ATOM     15  C   UNL     1       0.218  -0.192   0.163  0.00  0.00    +0.000 C 
ENDBRANCH   1  15
BRANCH  10  16
ATOM     16  C   UNL     1       4.289  -1.505  -4.865  0.00  0.00    +0.101 C 
ATOM     17  N   UNL     1       5.258  -1.032  -5.220  0.00  0.00    -0.191 NA
ENDBRANCH  10  16
BRANCH   8  18
ATOM     18  C   UNL     1       0.245  -3.760  -5.960  0.00  0.00    +0.091 C 
ATOM     19  N   UNL     1      -0.446  -3.821  -6.860  0.00  0.00    -0.195 NA
ENDBRANCH   8  18
BRANCH   8  20
ATOM     20  C   UNL     1       1.457  -5.043  -4.340  0.00  0.00    +0.091 C 
ATOM     21  N   UNL     1       1.700  -6.096  -3.989  0.00  0.00    -0.195 NA
ENDBRANCH   8  20
BRANCH   7  22
ATOM     22  C   UNL     1      -0.720  -3.785  -3.128  0.00  0.00    +0.042 C 
BRANCH  22  23
ATOM     23  C   UNL     1      -1.778  -3.936  -4.191  0.00  0.00    -0.047 A 
ATOM     24  C   UNL     1      -2.805  -3.015  -4.278  0.00  0.00    +0.003 A 
ATOM     25  C   UNL     1      -3.775  -3.153  -5.253  0.00  0.00    +0.000 A 
ATOM     26  C   UNL     1      -3.719  -4.212  -6.140  0.00  0.00    +0.000 A 
ATOM     27  C   UNL     1      -2.691  -5.132  -6.053  0.00  0.00    +0.000 A 
ATOM     28  C   UNL     1      -1.718  -4.992  -5.081  0.00  0.00    +0.003 A 
ENDBRANCH  22  23
ENDBRANCH   7  22
TORSDOF 7
