REMARK  Name = ZINC53631893
REMARK  11 active torsions:
REMARK  status: ('A' for Active; 'I' for Inactive)
REMARK    1  A    between atoms: C_1  and  C_2
REMARK    2  A    between atoms: C_8  and  C_16
REMARK    3  A    between atoms: C_10  and  C_14
REMARK    4  A    between atoms: C_11  and  N_13
REMARK    5  A    between atoms: C_18  and  O_25
REMARK    6  A    between atoms: C_19  and  O_23
REMARK    7  A    between atoms: O_23  and  C_24
REMARK    8  A    between atoms: O_25  and  C_26
REMARK    9  A    between atoms: N_29  and  C_30
REMARK   10  A    between atoms: C_30  and  C_31
REMARK   11  A    between atoms: C_31  and  C_32
REMARK                            x       y       z     vdW  Elec       q    Type
REMARK                         _______ _______ _______ _____ _____    ______ ____
ROOT
ATOM      1  C   UNL     1      -0.019   1.526   0.010  0.00  0.00    +0.032 C 
ATOM      2  C   UNL     1       0.002  -0.004   0.002  0.00  0.00    +0.099 C 
ATOM      3  C   UNL     1      -1.404  -0.506  -0.022  0.00  0.00    +0.037 C 
ATOM      4  C   UNL     1      -1.926  -1.296   0.870  0.00  0.00    +0.118 C 
ATOM      5  C   UNL     1      -1.161  -1.819   2.058  0.00  0.00    +0.153 C 
ATOM      6  C   UNL     1      -1.919  -1.402   3.325  0.00  0.00    +0.084 C 
ATOM      7  C   UNL     1      -3.393  -1.620   3.120  0.00  0.00    +0.095 C 
ATOM      8  C   UNL     1      -3.952  -1.737   1.896  0.00  0.00    +0.198 C 
ATOM      9  O   UNL     1      -3.231  -1.691   0.756  0.00  0.00    -0.445 OA
ATOM     10  C   UNL     1       0.228  -1.268   2.102  0.00  0.00    +0.227 C 
ATOM     11  O   UNL     1       0.939  -1.584   3.032  0.00  0.00    -0.275 OA
ATOM     12  N   UNL     1       0.736  -0.471   1.165  0.00  0.00    -0.294 N 
ENDROOT
BRANCH   6  13
ATOM     13  C   UNL     1      -1.445  -2.233   4.491  0.00  0.00    -0.033 A 
ATOM     14  C   UNL     1      -0.882  -1.617   5.593  0.00  0.00    +0.053 A 
ATOM     15  C   UNL     1      -0.446  -2.378   6.665  0.00  0.00    +0.163 A 
ATOM     16  C   UNL     1      -0.577  -3.763   6.630  0.00  0.00    +0.175 A 
ATOM     17  C   UNL     1      -1.143  -4.375   5.522  0.00  0.00    +0.063 A 
ATOM     18  C   UNL     1      -1.580  -3.608   4.457  0.00  0.00    +0.023 A 
ATOM     19 BR   UNL     1      -1.322  -6.256   5.470  0.00  0.00    -0.046 Br
BRANCH  16  20
ATOM     20  O   UNL     1      -0.149  -4.515   7.680  0.00  0.00    -0.490 OA
ATOM     21  C   UNL     1      -1.097  -4.778   8.717  0.00  0.00    +0.277 C 
ENDBRANCH  16  20
BRANCH  15  22
ATOM     22  O   UNL     1       0.110  -1.773   7.749  0.00  0.00    -0.491 OA
ATOM     23  C   UNL     1       0.212  -0.348   7.715  0.00  0.00    +0.277 C 
ENDBRANCH  15  22
ENDBRANCH   6  13
BRANCH   8  24
ATOM     24  N   UNL     1      -5.311  -1.912   1.807  0.00  0.00    -0.328 N 
ATOM     25  H   UNL     1      -5.849  -1.948   2.613  0.00  0.00    +0.145 HD
ATOM     26  H   UNL     1      -5.733  -1.998   0.938  0.00  0.00    +0.145 HD
ENDBRANCH   8  24
BRANCH   7  27
ATOM     27  C   UNL     1      -4.241  -1.707   4.271  0.00  0.00    +0.100 C 
ATOM     28  N   UNL     1      -4.913  -1.776   5.185  0.00  0.00    -0.191 NA
ENDBRANCH   7  27
BRANCH  12  29
ATOM     29  C   UNL     1       2.122  -0.023   1.327  0.00  0.00    +0.114 C 
BRANCH  29  30
ATOM     30  C   UNL     1       2.147   1.278   2.132  0.00  0.00    +0.073 C 
BRANCH  30  31
ATOM     31  C   UNL     1       3.572   1.738   2.299  0.00  0.00    +0.035 A 
ATOM     32  H   UNL     1       6.249   3.160   1.560  0.00  0.00    +0.166 HD
ATOM     33  C   UNL     1       4.274   2.475   1.416  0.00  0.00    +0.105 A 
ATOM     34  N   UNL     1       5.516   2.666   1.960  0.00  0.00    -0.352 N 
ATOM     35  C   UNL     1       5.529   2.039   3.156  0.00  0.00    +0.171 A 
ATOM     36  N   UNL     1       4.362   1.491   3.354  0.00  0.00    -0.350 N 
ATOM     37  H   UNL     1       4.106   0.983   4.140  0.00  0.00    +0.166 HD
ENDBRANCH  30  31
ENDBRANCH  29  30
ENDBRANCH  12  29
TORSDOF 8
