REMARK  Name = ZINC02422591
REMARK  4 active torsions:
REMARK  status: ('A' for Active; 'I' for Inactive)
REMARK    1  A    between atoms: C_1  and  C_2
REMARK    2  A    between atoms: C_2  and  C_26
REMARK    3  A    between atoms: C_10  and  C_16
REMARK    4  A    between atoms: C_17  and  C_18
REMARK                            x       y       z     vdW  Elec       q    Type
REMARK                         _______ _______ _______ _____ _____    ______ ____
ROOT
ATOM      1  C   UNL     1       0.338   6.485  -1.022  0.00  0.00    +0.020 C 
ATOM      2  C   UNL     1      -0.416   5.581  -0.045  0.00  0.00    +0.034 C 
ATOM      3  C   UNL     1       0.191   4.186  -0.012  0.00  0.00    -0.017 A 
ATOM      4  C   UNL     1       1.498   3.755  -0.018  0.00  0.00    +0.006 A 
ATOM      5  C   UNL     1       1.784   2.402  -0.044  0.00  0.00    +0.000 A 
ATOM      6  C   UNL     1       0.753   1.480  -0.066  0.00  0.00    +0.002 A 
ATOM      7  C   UNL     1      -0.559   1.904  -0.056  0.00  0.00    +0.023 A 
ATOM      8  C   UNL     1      -0.860   3.263  -0.012  0.00  0.00    +0.035 A 
ATOM      9  N   UNL     1      -2.066   3.940   0.044  0.00  0.00    -0.304 N 
ATOM     10  C   UNL     1      -1.841   5.287  -0.553  0.00  0.00    +0.130 C 
ATOM     11  N   UNL     1      -2.853   6.140   0.086  0.00  0.00    -0.290 N 
ATOM     12  C   UNL     1      -4.094   5.592   0.160  0.00  0.00    +0.216 C 
ATOM     13  O   UNL     1      -4.961   6.176   0.775  0.00  0.00    -0.276 OA
ATOM     14  C   UNL     1      -4.422   4.285  -0.498  0.00  0.00    +0.115 C 
ATOM     15  C   UNL     1      -3.233   3.326  -0.557  0.00  0.00    +0.117 C 
ATOM     16  C   UNL     1      -0.450   6.198   1.355  0.00  0.00    +0.020 C 
ATOM     17  H   UNL     1      -2.650   7.025   0.427  0.00  0.00    +0.151 HD
ENDROOT
BRANCH  10  18
ATOM     18  C   UNL     1      -1.948   5.290  -2.056  0.00  0.00    +0.020 C 
ATOM     19  C   UNL     1      -2.776   6.132  -2.659  0.00  0.00    +0.009 C 
BRANCH  19  20
ATOM     20  C   UNL     1      -2.979   6.048  -4.121  0.00  0.00    -0.005 A 
ATOM     21  C   UNL     1      -2.301   5.085  -4.869  0.00  0.00    +0.009 A 
ATOM     22  C   UNL     1      -2.494   5.011  -6.233  0.00  0.00    +0.002 A 
ATOM     23  C   UNL     1      -3.359   5.890  -6.861  0.00  0.00    +0.021 A 
ATOM     24  C   UNL     1      -4.036   6.848  -6.127  0.00  0.00    +0.060 A 
ATOM     25  C   UNL     1      -3.855   6.929  -4.759  0.00  0.00    +0.066 A 
ATOM     26 CL   UNL     1      -4.709   8.127  -3.837  0.00  0.00    -0.081 Cl
ATOM     27 CL   UNL     1      -5.119   7.946  -6.924  0.00  0.00    -0.082 Cl
ENDBRANCH  19  20
ENDBRANCH  10  18
TORSDOF 2
