REMARK  Name = ZINC39021419
REMARK  4 active torsions:
REMARK  status: ('A' for Active; 'I' for Inactive)
REMARK    1  A    between atoms: C_6  and  O_7
REMARK    2  A    between atoms: O_7  and  C_8
REMARK    3  A    between atoms: C_8  and  C_9
REMARK    4  A    between atoms: N_15  and  N_16
REMARK                            x       y       z     vdW  Elec       q    Type
REMARK                         _______ _______ _______ _____ _____    ______ ____
ROOT
ATOM      1  C   UNL     1      -1.070  -2.126   0.001  0.00  0.00    +0.278 C 
ENDROOT
BRANCH   1   2
ATOM      2  C   UNL     1      -2.475  -2.731   0.011  0.00  0.00    +0.265 C 
ATOM      3  N   UNL     1      -3.242  -2.242   1.169  0.00  0.00    -0.168 NA
ATOM      4  N   UNL     1      -4.224  -1.630   0.741  0.00  0.00    -0.097 NA
ATOM      5  C   UNL     1      -4.300  -1.593  -0.595  0.00  0.00    +0.192 C 
ATOM      6  S   UNL     1      -5.544  -0.820  -1.481  0.00  0.00    -0.014 S 
ATOM      7  N   UNL     1      -3.255  -2.255  -1.148  0.00  0.00    -0.219 N 
BRANCH   7   8
ATOM      8  N   UNL     1      -2.982  -2.438  -2.474  0.00  0.00    -0.250 NA
ATOM      9  H   UNL     1      -3.686  -2.003  -3.051  0.00  0.00    +0.141 HD
ATOM     10  H   UNL     1      -2.062  -2.094  -2.704  0.00  0.00    +0.141 HD
ENDBRANCH   7   8
ENDBRANCH   1   2
BRANCH   1  11
ATOM     11  O   UNL     1      -1.165  -0.700   0.009  0.00  0.00    -0.488 OA
BRANCH  11  17
ATOM     12  C   UNL     1      -0.017   1.383   0.010  0.00  0.00    +0.047 A 
ATOM     13  C   UNL     1       1.171   2.090   0.002  0.00  0.00    +0.025 A 
ATOM     14  C   UNL     1       2.378   1.415  -0.013  0.00  0.00    +0.059 A 
ATOM     15  C   UNL     1       2.400   0.030  -0.022  0.00  0.00    +0.063 A 
ATOM     16  C   UNL     1       1.214  -0.680  -0.014  0.00  0.00    +0.067 A 
ATOM     17  C   UNL     1       0.002  -0.004   0.002  0.00  0.00    +0.122 A 
ATOM     18 CL   UNL     1       3.916  -0.814  -0.042  0.00  0.00    -0.082 Cl
ATOM     19 CL   UNL     1       3.868   2.305  -0.024  0.00  0.00    -0.082 Cl
ENDBRANCH  11  17
ENDBRANCH   1  11
TORSDOF 4
