REMARK  Name = ZINC13177099
REMARK  6 active torsions:
REMARK  status: ('A' for Active; 'I' for Inactive)
REMARK    1  A    between atoms: C_9  and  S_17
REMARK    2  A    between atoms: N_10  and  C_13
REMARK    3  A    between atoms: C_13  and  C_14
REMARK    4  A    between atoms: C_14  and  C_15
REMARK    5  A    between atoms: S_17  and  C_18
REMARK    6  A    between atoms: C_18  and  C_19
REMARK                            x       y       z     vdW  Elec       q    Type
REMARK                         _______ _______ _______ _____ _____    ______ ____
ROOT
ATOM      1  C   UNL     1       1.549  -6.252   2.127  0.00  0.00    +0.021 A 
ATOM      2  C   UNL     1       1.532  -4.889   2.237  0.00  0.00    +0.017 A 
ATOM      3  C   UNL     1       1.511  -4.104   1.086  0.00  0.00    +0.065 A 
ATOM      4  C   UNL     1       1.507  -4.717  -0.189  0.00  0.00    +0.080 A 
ATOM      5  C   UNL     1       1.525  -6.111  -0.276  0.00  0.00    +0.048 A 
ATOM      6  C   UNL     1       1.546  -6.864   0.879  0.00  0.00    +0.043 A 
ATOM      7 CL   UNL     1       1.568  -8.596   0.773  0.00  0.00    -0.083 Cl
ATOM      8  N   UNL     1       1.486  -3.938  -1.295  0.00  0.00    -0.223 NA
ATOM      9  C   UNL     1       1.469  -2.630  -1.212  0.00  0.00    +0.172 A 
ATOM     10  N   UNL     1       1.471  -1.959  -0.022  0.00  0.00    -0.287 N 
ATOM     11  C   UNL     1       1.497  -2.636   1.149  0.00  0.00    +0.262 A 
ATOM     12  O   UNL     1       1.505  -2.051   2.216  0.00  0.00    -0.267 OA
ENDROOT
BRANCH  10  13
ATOM     13  C   UNL     1       1.451  -0.494  -0.015  0.00  0.00    +0.138 C 
BRANCH  13  14
ATOM     14  C   UNL     1       0.002  -0.004   0.002  0.00  0.00    +0.147 C 
BRANCH  14  15
ATOM     15  C   UNL     1      -0.018   1.503   0.010  0.00  0.00    +0.358 C 
ATOM     16  O   UNL     1       1.020   2.121   0.004  0.00  0.00    -0.246 OA
ATOM     17  O   UNL     1      -1.190   2.158   0.019  0.00  0.00    -0.246 OA
ENDBRANCH  14  15
ENDBRANCH  13  14
ENDBRANCH  10  13
BRANCH   9  18
ATOM     18  S   UNL     1       1.443  -1.693  -2.704  0.00  0.00    -0.083 S 
BRANCH  18  19
ATOM     19  C   UNL     1       1.449  -3.036  -3.918  0.00  0.00    +0.113 C 
BRANCH  19  20
ATOM     20  C   UNL     1       1.429  -2.456  -5.309  0.00  0.00    -0.019 A 
ATOM     21  C   UNL     1       0.221  -2.212  -5.937  0.00  0.00    +0.055 A 
ATOM     22  C   UNL     1       0.200  -1.674  -7.213  0.00  0.00    +0.167 A 
ATOM     23  C   UNL     1       1.397  -1.391  -7.866  0.00  0.00    +0.167 A 
ATOM     24  C   UNL     1       2.603  -1.643  -7.234  0.00  0.00    +0.065 A 
ATOM     25  C   UNL     1       2.618  -2.175  -5.957  0.00  0.00    +0.026 A 
ATOM     26 BR   UNL     1       4.266  -2.518  -5.096  0.00  0.00    -0.050 Br
ATOM     27  O   UNL     1       1.111  -0.881  -9.100  0.00  0.00    -0.453 OA
ATOM     28  C   UNL     1      -0.269  -0.474  -9.037  0.00  0.00    +0.466 C 
ATOM     29  O   UNL     1      -0.836  -1.341  -8.038  0.00  0.00    -0.453 OA
ENDBRANCH  19  20
ENDBRANCH  18  19
ENDBRANCH   9  18
TORSDOF 6
