REMARK  Name = ZINC39637028
REMARK  12 active torsions:
REMARK  status: ('A' for Active; 'I' for Inactive)
REMARK    1  A    between atoms: C_1  and  C_2
REMARK    2  A    between atoms: C_5  and  C_9
REMARK    3  A    between atoms: C_7  and  C_8
REMARK    4  A    between atoms: C_13  and  C_22
REMARK    5  A    between atoms: N_24  and  C_25
REMARK    6  A    between atoms: C_25  and  C_26
REMARK    7  A    between atoms: C_28  and  O_36
REMARK    8  A    between atoms: C_29  and  O_34
REMARK    9  A    between atoms: C_30  and  O_32
REMARK   10  A    between atoms: O_32  and  C_33
REMARK   11  A    between atoms: O_34  and  C_35
REMARK   12  A    between atoms: O_36  and  C_37
REMARK                            x       y       z     vdW  Elec       q    Type
REMARK                         _______ _______ _______ _____ _____    ______ ____
ROOT
ATOM      1  C   UNL     1       0.066  -4.266  -0.015  0.00  0.00    +0.247 C 
ATOM      2  O   UNL     1      -0.016  -3.053  -0.003  0.00  0.00    -0.270 OA
ATOM      3  N   UNL     1       0.169  -4.923  -1.187  0.00  0.00    -0.296 N 
ATOM      4  C   UNL     1       0.278  -4.343  -2.547  0.00  0.00    +0.121 C 
ATOM      5  C   UNL     1       1.296  -5.248  -3.276  0.00  0.00    +0.100 C 
ATOM      6  C   UNL     1       1.239  -6.589  -2.525  0.00  0.00    -0.004 C 
ATOM      7  C   UNL     1       0.206  -6.389  -1.407  0.00  0.00    +0.115 C 
ATOM      8  C   UNL     1       2.602  -6.916  -1.924  0.00  0.00    -0.010 C 
ATOM      9  C   UNL     1       2.534  -8.280  -1.231  0.00  0.00    -0.082 C 
ATOM     10  N   UNL     1       2.148  -9.307  -2.206  0.00  0.00    +0.379 N 
ATOM     11  C   UNL     1       0.797  -9.035  -2.711  0.00  0.00    -0.082 C 
ATOM     12  C   UNL     1       0.791  -7.703  -3.466  0.00  0.00    -0.010 C 
ATOM     13  H   UNL     1       2.801  -9.302  -2.975  0.00  0.00    -0.086 HD
ATOM     14  H   UNL     1       2.163 -10.213  -1.762  0.00  0.00    -0.086 HD
ENDROOT
BRANCH   1  19
ATOM     15  C   UNL     1       0.019  -7.201   4.934  0.00  0.00    +0.044 C 
ATOM     16  C   UNL     1       0.032  -6.433   3.638  0.00  0.00    -0.047 A 
ATOM     17  C   UNL     1      -0.551  -6.978   2.508  0.00  0.00    +0.004 A 
ATOM     18  C   UNL     1      -0.543  -6.280   1.319  0.00  0.00    +0.013 A 
ATOM     19  C   UNL     1       0.054  -5.020   1.257  0.00  0.00    +0.037 A 
ATOM     20  C   UNL     1       0.640  -4.475   2.400  0.00  0.00    +0.016 A 
ATOM     21  C   UNL     1       0.621  -5.182   3.585  0.00  0.00    -0.047 A 
ATOM     22  C   UNL     1       1.249  -4.593   4.822  0.00  0.00    +0.044 C 
ENDBRANCH   1  19
BRANCH   5  23
ATOM     23  C   UNL     1       2.679  -4.655  -3.192  0.00  0.00    +0.218 C 
ATOM     24  O   UNL     1       3.021  -4.052  -2.196  0.00  0.00    -0.275 OA
ATOM     25  N   UNL     1       3.537  -4.796  -4.222  0.00  0.00    -0.311 N 
ATOM     26  H   UNL     1       3.264  -5.278  -5.018  0.00  0.00    +0.149 HD
BRANCH  25  27
ATOM     27  C   UNL     1       4.881  -4.220  -4.140  0.00  0.00    +0.139 C 
BRANCH  27  28
ATOM     28  C   UNL     1       5.633  -4.516  -5.412  0.00  0.00    -0.023 A 
ATOM     29  C   UNL     1       6.380  -5.674  -5.517  0.00  0.00    +0.054 A 
ATOM     30  C   UNL     1       7.074  -5.950  -6.686  0.00  0.00    +0.165 A 
ATOM     31  C   UNL     1       7.017  -5.060  -7.752  0.00  0.00    +0.204 A 
ATOM     32  C   UNL     1       6.264  -3.897  -7.642  0.00  0.00    +0.165 A 
ATOM     33  C   UNL     1       5.569  -3.631  -6.472  0.00  0.00    +0.054 A 
BRANCH  32  34
ATOM     34  O   UNL     1       6.205  -3.023  -8.683  0.00  0.00    -0.491 OA
ATOM     35  C   UNL     1       5.413  -1.849  -8.499  0.00  0.00    +0.277 C 
ENDBRANCH  32  34
BRANCH  31  36
ATOM     36  O   UNL     1       7.697  -5.327  -8.900  0.00  0.00    -0.488 OA
ATOM     37  C   UNL     1       7.005  -6.069  -9.906  0.00  0.00    +0.277 C 
ENDBRANCH  31  36
BRANCH  30  38
ATOM     38  O   UNL     1       7.810  -7.089  -6.788  0.00  0.00    -0.491 OA
ATOM     39  C   UNL     1       7.823  -7.957  -5.653  0.00  0.00    +0.277 C 
ENDBRANCH  30  38
ENDBRANCH  27  28
ENDBRANCH  25  27
ENDBRANCH   5  23
TORSDOF 7
