REMARK  Name = ZINC04916645
REMARK  5 active torsions:
REMARK  status: ('A' for Active; 'I' for Inactive)
REMARK    1  A    between atoms: C_1  and  C_2
REMARK    2  A    between atoms: C_9  and  N_19
REMARK    3  A    between atoms: N_19  and  C_20
REMARK    4  A    between atoms: C_24  and  C_27
REMARK    5  A    between atoms: C_25  and  C_26
REMARK                            x       y       z     vdW  Elec       q    Type
REMARK                         _______ _______ _______ _____ _____    ______ ____
ROOT
ATOM      1  C   UNL     1      -4.731   4.282  -0.283  0.00  0.00    +0.045 C 
ATOM      2  C   UNL     1      -3.483   3.440  -0.219  0.00  0.00    -0.032 A 
ATOM      3  C   UNL     1      -3.573   2.059  -0.108  0.00  0.00    +0.008 A 
ATOM      4  C   UNL     1      -2.402   1.324  -0.052  0.00  0.00    +0.044 A 
ATOM      5  C   UNL     1      -1.182   1.989  -0.108  0.00  0.00    +0.129 A 
ATOM      6  N   UNL     1      -1.138   3.308  -0.209  0.00  0.00    -0.240 NA
ATOM      7  C   UNL     1      -2.237   4.035  -0.270  0.00  0.00    +0.116 A 
ATOM      8  N   UNL     1       0.004   1.261  -0.053  0.00  0.00    -0.229 N 
ATOM      9  C   UNL     1       1.355   1.831  -0.003  0.00  0.00    +0.200 C 
ATOM     10  C   UNL     1       2.306   0.660   0.040  0.00  0.00    +0.003 A 
ATOM     11  C   UNL     1       3.677   0.561   0.095  0.00  0.00    +0.008 A 
ATOM     12  C   UNL     1       4.279  -0.686   0.126  0.00  0.00    +0.000 A 
ATOM     13  C   UNL     1       3.506  -1.833   0.102  0.00  0.00    +0.001 A 
ATOM     14  C   UNL     1       2.130  -1.745   0.048  0.00  0.00    +0.013 A 
ATOM     15  C   UNL     1       1.515  -0.491   0.016  0.00  0.00    +0.044 A 
ATOM     16  C   UNL     1       0.100  -0.080  -0.041  0.00  0.00    +0.254 C 
ATOM     17  O   UNL     1      -0.845  -0.844  -0.073  0.00  0.00    -0.270 OA
ENDROOT
BRANCH   9  18
ATOM     18  N   UNL     1       1.605   2.638  -1.200  0.00  0.00    -0.322 N 
ATOM     19  H   UNL     1       1.771   2.204  -2.052  0.00  0.00    +0.148 HD
BRANCH  18  20
ATOM     20  C   UNL     1       1.605   4.032  -1.115  0.00  0.00    +0.032 A 
ATOM     21  C   UNL     1       1.483   4.654   0.121  0.00  0.00    +0.023 A 
ATOM     22  C   UNL     1       1.489   6.032   0.203  0.00  0.00    +0.002 A 
ATOM     23  C   UNL     1       1.605   6.794  -0.946  0.00  0.00    +0.004 A 
ATOM     24  C   UNL     1       1.721   6.178  -2.179  0.00  0.00    -0.046 A 
ATOM     25  C   UNL     1       1.722   4.800  -2.266  0.00  0.00    -0.027 A 
ATOM     26  C   UNL     1       1.850   4.130  -3.610  0.00  0.00    +0.046 C 
ATOM     27  C   UNL     1       1.848   7.012  -3.427  0.00  0.00    +0.044 C 
ENDBRANCH  18  20
ENDBRANCH   9  18
TORSDOF 2
