REMARK  Name = ZINC39659932
REMARK  7 active torsions:
REMARK  status: ('A' for Active; 'I' for Inactive)
REMARK    1  A    between atoms: C_1  and  O_2
REMARK    2  A    between atoms: O_2  and  C_3
REMARK    3  A    between atoms: C_6  and  C_9
REMARK    4  A    between atoms: C_9  and  C_10
REMARK    5  A    between atoms: C_10  and  C_11
REMARK    6  A    between atoms: C_15  and  C_24
REMARK    7  A    between atoms: N_26  and  C_27
REMARK                            x       y       z     vdW  Elec       q    Type
REMARK                         _______ _______ _______ _____ _____    ______ ____
ROOT
ATOM      1  C   UNL     1       4.675  -3.171  -5.012  0.00  0.00    +0.216 C 
ATOM      2  O   UNL     1       3.960  -3.375  -5.970  0.00  0.00    -0.276 OA
ATOM      3  N   UNL     1       5.970  -3.542  -5.046  0.00  0.00    -0.300 N 
ATOM      4  C   UNL     1       6.989  -3.385  -3.982  0.00  0.00    +0.121 C 
ATOM      5  C   UNL     1       7.813  -4.691  -4.034  0.00  0.00    +0.100 C 
ATOM      6  C   UNL     1       7.620  -5.220  -5.465  0.00  0.00    -0.004 C 
ATOM      7  C   UNL     1       6.696  -4.206  -6.156  0.00  0.00    +0.115 C 
ATOM      8  C   UNL     1       8.961  -5.292  -6.188  0.00  0.00    -0.010 C 
ATOM      9  C   UNL     1       8.751  -5.875  -7.589  0.00  0.00    -0.082 C 
ATOM     10  N   UNL     1       8.159  -7.213  -7.479  0.00  0.00    +0.379 N 
ATOM     11  C   UNL     1       6.828  -7.124  -6.866  0.00  0.00    -0.082 C 
ATOM     12  C   UNL     1       6.957  -6.594  -5.436  0.00  0.00    -0.010 C 
ATOM     13  H   UNL     1       8.077  -7.620  -8.399  0.00  0.00    -0.086 HD
ATOM     14  H   UNL     1       8.752  -7.796  -6.908  0.00  0.00    -0.086 HD
ENDROOT
BRANCH   5  15
ATOM     15  C   UNL     1       7.288  -5.684  -3.030  0.00  0.00    +0.218 C 
ATOM     16  O   UNL     1       6.113  -5.679  -2.730  0.00  0.00    -0.275 OA
ATOM     17  N   UNL     1       8.125  -6.576  -2.464  0.00  0.00    -0.312 N 
ATOM     18  H   UNL     1       9.065  -6.580  -2.704  0.00  0.00    +0.149 HD
BRANCH  17  19
ATOM     19  C   UNL     1       7.614  -7.542  -1.488  0.00  0.00    +0.073 C 
ATOM     20  C   UNL     1       7.595  -6.900  -0.099  0.00  0.00    +0.022 C 
ATOM     21  C   UNL     1       6.713  -7.732   0.835  0.00  0.00    +0.002 C 
ATOM     22  C   UNL     1       5.425  -8.122   0.107  0.00  0.00    +0.000 C 
ATOM     23  C   UNL     1       5.403  -9.636  -0.115  0.00  0.00    +0.000 C 
ATOM     24  C   UNL     1       6.350  -9.996  -1.261  0.00  0.00    +0.000 C 
ATOM     25  C   UNL     1       7.797  -9.927  -0.769  0.00  0.00    +0.002 C 
ATOM     26  C   UNL     1       8.520  -8.774  -1.468  0.00  0.00    +0.022 C 
ENDBRANCH  17  19
ENDBRANCH   5  15
BRANCH   1  27
ATOM     27  C   UNL     1       4.115  -2.504  -3.782  0.00  0.00    +0.100 C 
BRANCH  27  28
ATOM     28  C   UNL     1       2.634  -2.188  -4.002  0.00  0.00    +0.044 C 
BRANCH  28  32
ATOM     29  C   UNL     1       1.046  -0.294  -0.516  0.00  0.00    +0.120 A 
ATOM     30  C   UNL     1       1.600   0.472  -1.532  0.00  0.00    +0.046 A 
ATOM     31  C   UNL     1       2.113  -0.143  -2.658  0.00  0.00    +0.007 A 
ATOM     32  C   UNL     1       2.074  -1.520  -2.773  0.00  0.00    -0.047 A 
ATOM     33  C   UNL     1       1.523  -2.286  -1.762  0.00  0.00    +0.007 A 
ATOM     34  C   UNL     1       1.014  -1.676  -0.631  0.00  0.00    +0.046 A 
BRANCH  29  36
ATOM     35  C   UNL     1       0.609   1.735   0.643  0.00  0.00    +0.277 C 
ATOM     36  O   UNL     1       0.542   0.308   0.593  0.00  0.00    -0.495 OA
ENDBRANCH  29  36
ENDBRANCH  28  32
ENDBRANCH  27  28
ENDBRANCH   1  27
TORSDOF 6
