REMARK  Name = ZINC44441629
REMARK  7 active torsions:
REMARK  status: ('A' for Active; 'I' for Inactive)
REMARK    1  A    between atoms: C_1  and  C_2
REMARK    2  A    between atoms: C_2  and  C_3
REMARK    3  A    between atoms: C_2  and  C_4
REMARK    4  A    between atoms: C_2  and  C_5
REMARK    5  A    between atoms: C_7  and  N_10
REMARK    6  A    between atoms: C_11  and  C_13
REMARK    7  A    between atoms: C_24  and  C_26
REMARK                            x       y       z     vdW  Elec       q    Type
REMARK                         _______ _______ _______ _____ _____    ______ ____
ROOT
ATOM      1  C   UNL     1       5.021  -1.857  -5.159  0.00  0.00    +0.125 C 
ATOM      2  C   UNL     1       4.852  -2.488  -6.543  0.00  0.00    +0.019 C 
ATOM      3  C   UNL     1       6.221  -2.845  -7.129  0.00  0.00    +0.006 C 
ATOM      4  C   UNL     1       6.808  -4.025  -6.337  0.00  0.00    +0.044 C 
ATOM      5  C   UNL     1       6.659  -3.728  -4.883  0.00  0.00    +0.015 A 
ATOM      6  C   UNL     1       5.883  -2.774  -4.303  0.00  0.00    +0.066 A 
ATOM      7  N   UNL     1       5.946  -2.727  -2.975  0.00  0.00    -0.229 NA
ATOM      8  C   UNL     1       6.709  -3.547  -2.287  0.00  0.00    +0.165 A 
ATOM      9  S   UNL     1       7.429  -4.499  -3.486  0.00  0.00    -0.057 S 
ATOM     10  N   UNL     1       6.878  -3.618  -0.910  0.00  0.00    -0.261 N 
ATOM     11  C   UNL     1       7.711  -4.534  -0.379  0.00  0.00    +0.250 C 
ATOM     12  O   UNL     1       8.316  -5.299  -1.105  0.00  0.00    -0.270 OA
ATOM     13  H   UNL     1       6.396  -3.008  -0.330  0.00  0.00    +0.157 HD
ENDROOT
BRANCH  11  14
ATOM     14  C   UNL     1       7.891  -4.610   1.085  0.00  0.00    +0.037 A 
ATOM     15  C   UNL     1       7.194  -3.736   1.923  0.00  0.00    +0.014 A 
ATOM     16  C   UNL     1       7.366  -3.811   3.289  0.00  0.00    +0.021 A 
ATOM     17  C   UNL     1       8.228  -4.750   3.831  0.00  0.00    +0.041 A 
ATOM     18  C   UNL     1       8.922  -5.619   3.005  0.00  0.00    +0.021 A 
ATOM     19  C   UNL     1       8.754  -5.558   1.638  0.00  0.00    +0.014 A 
ATOM     20 CL   UNL     1       8.440  -4.838   5.552  0.00  0.00    -0.084 Cl
ENDBRANCH  11  14
BRANCH   1  22
ATOM     21  N   UNL     1       3.575  -1.151  -3.281  0.00  0.00    -0.254 N 
ATOM     22  C   UNL     1       3.669  -1.686  -4.514  0.00  0.00    +0.228 C 
ATOM     23  O   UNL     1       2.667  -2.029  -5.105  0.00  0.00    -0.275 OA
ATOM     24  H   UNL     1       4.376  -0.877  -2.808  0.00  0.00    +0.158 HD
BRANCH  21  27
ATOM     25  C   UNL     1       0.707  -0.490  -1.238  0.00  0.00    +0.091 A 
ATOM     26  C   UNL     1       2.092  -0.472  -1.456  0.00  0.00    +0.092 A 
ATOM     27  C   UNL     1       2.331  -0.993  -2.687  0.00  0.00    +0.224 A 
ATOM     28  O   UNL     1       1.147  -1.328  -3.228  0.00  0.00    -0.339 OA
ATOM     29  N   UNL     1       0.135  -1.005  -2.291  0.00  0.00    -0.081 NA
BRANCH  25  31
ATOM     30  C   UNL     1      -0.019   1.526   0.010  0.00  0.00    +0.017 C 
ATOM     31  C   UNL     1       0.002  -0.004   0.002  0.00  0.00    +0.008 C 
ATOM     32  C   UNL     1       0.742  -0.511   1.242  0.00  0.00    +0.017 C 
ATOM     33  C   UNL     1      -1.433  -0.534   0.013  0.00  0.00    +0.017 C 
ENDBRANCH  25  31
ENDBRANCH  21  27
ENDBRANCH   1  22
TORSDOF 4
