REMARK  Name = ZINC50588746
REMARK  7 active torsions:
REMARK  status: ('A' for Active; 'I' for Inactive)
REMARK    1  A    between atoms: C_1  and  C_2
REMARK    2  A    between atoms: C_4  and  C_20
REMARK    3  A    between atoms: N_5  and  C_7
REMARK    4  A    between atoms: C_7  and  C_9
REMARK    5  A    between atoms: C_7  and  C_16
REMARK    6  A    between atoms: C_16  and  C_18
REMARK    7  A    between atoms: C_16  and  N_19
REMARK                            x       y       z     vdW  Elec       q    Type
REMARK                         _______ _______ _______ _____ _____    ______ ____
ROOT
ATOM      1  C   UNL     1       0.053  -3.295   1.486  0.00  0.00    +0.123 C 
ENDROOT
BRANCH   1   6
ATOM      2  C   UNL     1      -0.018   1.503   0.010  0.00  0.00    +0.068 C 
ATOM      3  C   UNL     1       0.002  -0.004   0.002  0.00  0.00    +0.074 A 
ATOM      4  C   UNL     1       0.008  -0.818  -1.136  0.00  0.00    +0.061 A 
ATOM      5  C   UNL     1       0.027  -2.108  -0.725  0.00  0.00    +0.051 A 
ATOM      6  N   UNL     1       0.034  -2.109   0.625  0.00  0.00    -0.261 N 
ATOM      7  N   UNL     1       0.023  -0.777   1.058  0.00  0.00    -0.175 NA
ATOM      8  C   UNL     1       0.039  -3.324  -1.615  0.00  0.00    +0.066 C 
ATOM      9 BR   UNL     1      -0.009  -0.222  -2.930  0.00  0.00    -0.047 Br
ENDBRANCH   1   6
BRANCH   1  10
ATOM     10  C   UNL     1       1.288  -3.267   2.350  0.00  0.00    -0.025 A 
ATOM     11  C   UNL     1       1.493  -2.219   3.228  0.00  0.00    +0.007 A 
ATOM     12  C   UNL     1       2.625  -2.193   4.021  0.00  0.00    +0.020 A 
ATOM     13  C   UNL     1       3.552  -3.216   3.936  0.00  0.00    +0.041 A 
ATOM     14  C   UNL     1       3.346  -4.265   3.057  0.00  0.00    +0.020 A 
ATOM     15  C   UNL     1       2.211  -4.293   2.269  0.00  0.00    +0.007 A 
ATOM     16 CL   UNL     1       4.974  -3.184   4.931  0.00  0.00    -0.084 Cl
ENDBRANCH   1  10
BRANCH   1  17
ATOM     17  C   UNL     1      -1.192  -3.301   2.375  0.00  0.00    -0.049 C 
ATOM     18  C   UNL     1      -2.445  -3.329   1.497  0.00  0.00    -0.012 C 
BRANCH  17  19
ATOM     19  N   UNL     1      -1.172  -4.489   3.237  0.00  0.00    +0.381 N 
ATOM     20  H   UNL     1      -0.345  -4.471   3.816  0.00  0.00    -0.090 HD
ATOM     21  H   UNL     1      -1.993  -4.493   3.824  0.00  0.00    -0.090 HD
ATOM     22  H   UNL     1      -1.163  -5.320   2.665  0.00  0.00    -0.090 HD
ENDBRANCH  17  19
ENDBRANCH   1  17
TORSDOF 4
