REMARK  Name = ZINC37351088
REMARK  6 active torsions:
REMARK  status: ('A' for Active; 'I' for Inactive)
REMARK    1  A    between atoms: C_1  and  C_2
REMARK    2  A    between atoms: C_2  and  C_3
REMARK    3  A    between atoms: C_2  and  C_4
REMARK    4  A    between atoms: C_7  and  C_10
REMARK    5  A    between atoms: C_11  and  C_16
REMARK    6  A    between atoms: C_14  and  N_15
REMARK                            x       y       z     vdW  Elec       q    Type
REMARK                         _______ _______ _______ _____ _____    ______ ____
ROOT
ATOM      1  C   UNL     1       2.787  -1.912   4.666  0.00  0.00    +0.074 A 
ATOM      2  C   UNL     1       3.125  -3.305   4.975  0.00  0.00    +0.158 A 
ATOM      3  N   UNL     1       3.756  -3.302   6.128  0.00  0.00    -0.072 NA
ATOM      4  O   UNL     1       3.850  -1.971   6.593  0.00  0.00    -0.339 OA
ATOM      5  C   UNL     1       3.271  -1.146   5.707  0.00  0.00    +0.224 A 
ENDROOT
BRANCH   1   9
ATOM      6  C   UNL     1       0.731  -0.503   1.223  0.00  0.00    -0.045 A 
ATOM      7  C   UNL     1       2.051  -0.146   1.431  0.00  0.00    +0.004 A 
ATOM      8  C   UNL     1       2.724  -0.600   2.547  0.00  0.00    +0.009 A 
ATOM      9  C   UNL     1       2.070  -1.421   3.466  0.00  0.00    -0.011 A 
ATOM     10  C   UNL     1       0.739  -1.777   3.251  0.00  0.00    +0.009 A 
ATOM     11  C   UNL     1       0.075  -1.312   2.134  0.00  0.00    +0.004 A 
BRANCH   6  13
ATOM     12  C   UNL     1      -0.019   1.526   0.010  0.00  0.00    +0.012 C 
ATOM     13  C   UNL     1       0.002  -0.004   0.002  0.00  0.00    +0.013 C 
ATOM     14  C   UNL     1       0.718  -0.497  -1.257  0.00  0.00    +0.012 C 
ENDBRANCH   6  13
ENDBRANCH   1   9
BRANCH   2  15
ATOM     15  C   UNL     1       2.814  -4.487   4.147  0.00  0.00    +0.157 A 
ATOM     16  C   UNL     1       3.593  -5.594   4.012  0.00  0.00    +0.051 A 
ATOM     17  C   UNL     1       2.914  -6.463   3.136  0.00  0.00    +0.042 A 
ATOM     18  C   UNL     1       1.766  -5.851   2.783  0.00  0.00    +0.196 A 
ATOM     19  O   UNL     1       1.707  -4.660   3.399  0.00  0.00    -0.461 OA
ENDBRANCH   2  15
BRANCH   5  20
ATOM     20  N   UNL     1       3.174   0.225   5.819  0.00  0.00    -0.327 N 
ATOM     21  H   UNL     1       2.733   0.738   5.124  0.00  0.00    +0.145 HD
ATOM     22  H   UNL     1       3.548   0.676   6.592  0.00  0.00    +0.145 HD
ENDBRANCH   5  20
TORSDOF 4
