REMARK  Name = ZINC12497845
REMARK  12 active torsions:
REMARK  status: ('A' for Active; 'I' for Inactive)
REMARK    1  A    between atoms: C_1  and  C_2
REMARK    2  A    between atoms: C_2  and  O_3
REMARK    3  A    between atoms: O_3  and  C_4
REMARK    4  A    between atoms: C_7  and  N_10
REMARK    5  A    between atoms: C_15  and  C_30
REMARK    6  A    between atoms: C_17  and  C_22
REMARK    7  A    between atoms: C_17  and  C_26
REMARK    8  A    between atoms: C_22  and  C_23
REMARK    9  A    between atoms: C_23  and  S_24
REMARK   10  A    between atoms: S_24  and  C_25
REMARK   11  A    between atoms: C_26  and  O_28
REMARK   12  A    between atoms: O_28  and  C_29
REMARK                            x       y       z     vdW  Elec       q    Type
REMARK                         _______ _______ _______ _____ _____    ______ ____
ROOT
ATOM      1  N   UNL     1       4.860   4.753   0.164  0.00  0.00    -0.210 N 
ATOM      2  C   UNL     1       4.400   4.901   1.442  0.00  0.00    +0.229 C 
ATOM      3  O   UNL     1       4.911   5.541   2.336  0.00  0.00    -0.275 OA
ATOM      4  C   UNL     1       3.125   4.105   1.506  0.00  0.00    +0.077 C 
ATOM      5  C   UNL     1       1.901   4.658   2.233  0.00  0.00    -0.024 C 
ATOM      6  C   UNL     1       1.288   3.876   0.034  0.00  0.00    +0.044 C 
ATOM      7  C   UNL     1       2.656   4.430   0.030  0.00  0.00    +0.086 C 
ATOM      8  C   UNL     1       3.897   4.281  -0.694  0.00  0.00    +0.229 C 
ATOM      9  O   UNL     1       4.054   3.838  -1.812  0.00  0.00    -0.275 OA
ATOM     10  N   UNL     1       0.758   4.386   1.337  0.00  0.00    +0.395 N 
ATOM     11  H   UNL     1       0.228   5.251   1.180  0.00  0.00    -0.083 HD
ATOM     12  H   UNL     1       0.145   3.681   1.761  0.00  0.00    -0.083 HD
ENDROOT
BRANCH   5  13
ATOM     13  C   UNL     1       2.041   6.145   2.434  0.00  0.00    -0.025 A 
ATOM     14  C   UNL     1       1.529   7.021   1.496  0.00  0.00    +0.005 A 
ATOM     15  C   UNL     1       1.652   8.385   1.684  0.00  0.00    +0.000 A 
ATOM     16  C   UNL     1       2.297   8.874   2.804  0.00  0.00    +0.003 A 
ATOM     17  C   UNL     1       2.815   8.000   3.741  0.00  0.00    +0.038 A 
ATOM     18  C   UNL     1       2.688   6.633   3.557  0.00  0.00    +0.125 A 
ATOM     19  F   UNL     1       3.194   5.778   4.471  0.00  0.00    -0.205 F 
ENDBRANCH   5  13
BRANCH   1  23
ATOM     20  C   UNL     1       8.767   5.634  -1.004  0.00  0.00    +0.121 A 
ATOM     21  C   UNL     1       8.380   5.814   0.316  0.00  0.00    +0.047 A 
ATOM     22  C   UNL     1       7.087   5.523   0.703  0.00  0.00    +0.027 A 
ATOM     23  C   UNL     1       6.174   5.049  -0.229  0.00  0.00    +0.044 A 
ATOM     24  C   UNL     1       6.563   4.864  -1.548  0.00  0.00    +0.027 A 
ATOM     25  C   UNL     1       7.855   5.161  -1.936  0.00  0.00    +0.047 A 
BRANCH  20  26
ATOM     26  O   UNL     1      10.040   5.921  -1.384  0.00  0.00    -0.492 OA
BRANCH  26  28
ATOM     27  C   UNL     1      11.834   6.086  -2.995  0.00  0.00    +0.048 C 
ATOM     28  C   UNL     1      10.370   5.711  -2.759  0.00  0.00    +0.225 C 
ENDBRANCH  26  28
ENDBRANCH  20  26
ENDBRANCH   1  23
BRANCH   6  29
ATOM     29  C   UNL     1       0.489   4.408  -1.127  0.00  0.00    +0.297 C 
ATOM     30  O   UNL     1       1.049   4.743  -2.144  0.00  0.00    -0.252 OA
BRANCH  29  31
ATOM     31  O   UNL     1      -0.846   4.511  -1.032  0.00  0.00    -0.469 OA
ATOM     32  C   UNL     1      -1.552   5.033  -2.189  0.00  0.00    +0.280 C 
ENDBRANCH  29  31
ENDBRANCH   6  29
BRANCH   6  33
ATOM     33  C   UNL     1       1.319   2.346   0.017  0.00  0.00    +0.010 C 
BRANCH  33  34
ATOM     34  C   UNL     1      -0.111   1.807   0.096  0.00  0.00    +0.068 C 
BRANCH  34  35
ATOM     35  S   UNL     1      -0.075  -0.007   0.076  0.00  0.00    -0.164 S 
ATOM     36  C   UNL     1      -1.823  -0.482   0.174  0.00  0.00    +0.084 C 
ENDBRANCH  34  35
ENDBRANCH  33  34
ENDBRANCH   6  33
TORSDOF 9
