REMARK  Name = ZINC32123785
REMARK  13 active torsions:
REMARK  status: ('A' for Active; 'I' for Inactive)
REMARK    1  A    between atoms: C_1  and  O_2
REMARK    2  A    between atoms: O_2  and  C_3
REMARK    3  A    between atoms: C_6  and  O_33
REMARK    4  A    between atoms: C_7  and  C_9
REMARK    5  A    between atoms: N_22  and  C_23
REMARK    6  A    between atoms: C_23  and  C_25
REMARK    7  A    between atoms: C_23  and  C_29
REMARK    8  A    between atoms: C_25  and  C_26
REMARK    9  A    between atoms: C_26  and  S_27
REMARK   10  A    between atoms: S_27  and  C_28
REMARK   11  A    between atoms: C_29  and  O_31
REMARK   12  A    between atoms: O_31  and  C_32
REMARK   13  A    between atoms: O_33  and  C_34
REMARK                            x       y       z     vdW  Elec       q    Type
REMARK                         _______ _______ _______ _____ _____    ______ ____
ROOT
ATOM      1  C   UNL     1       1.323  -4.108  -2.285  0.00  0.00    +0.160 C 
ATOM      2  C   UNL     1       0.155  -4.618  -3.092  0.00  0.00    +0.064 A 
ATOM      3  C   UNL     1      -0.904  -5.270  -2.565  0.00  0.00    +0.066 A 
ATOM      4  N   UNL     1      -1.740  -5.567  -3.565  0.00  0.00    -0.240 NA
ATOM      5  C   UNL     1      -1.238  -5.128  -4.690  0.00  0.00    +0.197 A 
ATOM      6  N   UNL     1      -0.052  -4.529  -4.433  0.00  0.00    -0.346 N 
ATOM      7  H   UNL     1       0.538  -4.115  -5.082  0.00  0.00    +0.167 HD
ATOM      8  C   UNL     1      -1.065  -5.588  -1.100  0.00  0.00    +0.076 C 
ATOM      9  C   UNL     1      -0.118  -4.693  -0.291  0.00  0.00    +0.116 C 
ATOM     10  N   UNL     1       1.207  -4.685  -0.933  0.00  0.00    -0.273 N 
ATOM     11  C   UNL     1       2.285  -5.193  -0.303  0.00  0.00    +0.304 C 
ATOM     12  O   UNL     1       3.387  -5.096  -0.810  0.00  0.00    -0.253 OA
ATOM     13  N   UNL     1       2.143  -5.808   0.887  0.00  0.00    -0.286 N 
ATOM     14  H   UNL     1       1.257  -5.952   1.256  0.00  0.00    +0.151 HD
ENDROOT
BRANCH   1  19
ATOM     15  C   UNL     1       0.072  -0.547  -2.481  0.00  0.00    +0.121 A 
ATOM     16  C   UNL     1       1.188   0.162  -2.061  0.00  0.00    +0.049 A 
ATOM     17  C   UNL     1       2.343  -0.510  -1.714  0.00  0.00    +0.049 A 
ATOM     18  C   UNL     1       2.389  -1.894  -1.786  0.00  0.00    +0.126 A 
ATOM     19  C   UNL     1       1.274  -2.604  -2.206  0.00  0.00    +0.024 A 
ATOM     20  C   UNL     1       0.116  -1.932  -2.548  0.00  0.00    +0.055 A 
BRANCH  15  22
ATOM     21  C   UNL     1      -1.040   1.540  -2.730  0.00  0.00    +0.277 C 
ATOM     22  O   UNL     1      -1.066   0.115  -2.822  0.00  0.00    -0.495 OA
ENDBRANCH  15  22
BRANCH  18  23
ATOM     23  O   UNL     1       3.527  -2.556  -1.446  0.00  0.00    -0.495 OA
ATOM     24  C   UNL     1       4.637  -1.762  -1.023  0.00  0.00    +0.277 C 
ENDBRANCH  18  23
ENDBRANCH   1  19
BRANCH  13  25
ATOM     25  C   UNL     1       3.325  -6.260   1.624  0.00  0.00    +0.184 C 
BRANCH  25  26
ATOM     26  C   UNL     1       3.734  -7.624   1.131  0.00  0.00    +0.327 C 
ATOM     27  O   UNL     1       3.102  -8.163   0.254  0.00  0.00    -0.249 OA
BRANCH  26  28
ATOM     28  O   UNL     1       4.800  -8.240   1.666  0.00  0.00    -0.467 OA
ATOM     29  C   UNL     1       5.130  -9.531   1.151  0.00  0.00    +0.280 C 
ENDBRANCH  26  28
ENDBRANCH  25  26
BRANCH  25  30
ATOM     30  C   UNL     1       2.998  -6.334   3.117  0.00  0.00    +0.044 C 
BRANCH  30  31
ATOM     31  C   UNL     1       2.705  -4.929   3.646  0.00  0.00    +0.071 C 
BRANCH  31  32
ATOM     32  S   UNL     1       2.317  -5.017   5.415  0.00  0.00    -0.164 S 
ATOM     33  C   UNL     1       1.997  -3.293   5.881  0.00  0.00    +0.084 C 
ENDBRANCH  31  32
ENDBRANCH  30  31
ENDBRANCH  25  30
ENDBRANCH  13  25
TORSDOF 9
