REMARK  Name = ZINC57314064
REMARK  8 active torsions:
REMARK  status: ('A' for Active; 'I' for Inactive)
REMARK    1  A    between atoms: C_1  and  C_2
REMARK    2  A    between atoms: C_9  and  N_14
REMARK    3  A    between atoms: C_10  and  C_11
REMARK    4  A    between atoms: N_14  and  C_15
REMARK    5  A    between atoms: C_15  and  N_17
REMARK    6  A    between atoms: C_18  and  C_20
REMARK    7  A    between atoms: C_21  and  C_22
REMARK    8  A    between atoms: C_25  and  C_27
REMARK                            x       y       z     vdW  Elec       q    Type
REMARK                         _______ _______ _______ _____ _____    ______ ____
ROOT
ATOM      1  C   UNL     1       2.251  -6.085   2.986  0.00  0.00    +0.141 C 
ATOM      2  S   UNL     1       2.222  -4.825   4.144  0.00  0.00    -0.018 S 
ENDROOT
BRANCH   1   3
ATOM      3  N   UNL     1       2.583  -7.336   3.360  0.00  0.00    -0.264 N 
ATOM      4  C   UNL     1       2.893  -7.596   4.645  0.00  0.00    +0.242 C 
ATOM      5  O   UNL     1       2.872  -6.699   5.469  0.00  0.00    -0.270 OA
ATOM      6  H   UNL     1       2.600  -8.050   2.703  0.00  0.00    +0.157 HD
BRANCH   4   7
ATOM      7  C   UNL     1       3.241  -8.908   5.037  0.00  0.00    +0.071 C 
ATOM      8  C   UNL     1       3.553  -9.169   6.334  0.00  0.00    +0.051 C 
BRANCH   8   9
ATOM      9  C   UNL     1       3.901 -10.482   6.726  0.00  0.00    +0.129 A 
ATOM     10  C   UNL     1       4.233 -10.884   8.006  0.00  0.00    +0.050 A 
ATOM     11  C   UNL     1       4.504 -12.253   7.942  0.00  0.00    +0.050 A 
ATOM     12  C   UNL     1       4.329 -12.636   6.632  0.00  0.00    +0.136 A 
ATOM     13  O   UNL     1       3.962 -11.559   5.916  0.00  0.00    -0.455 OA
BRANCH  12  14
ATOM     14  C   UNL     1       4.510 -14.002   6.103  0.00  0.00    +0.017 A 
ATOM     15  C   UNL     1       4.886 -15.042   6.957  0.00  0.00    +0.011 A 
ATOM     16  C   UNL     1       5.053 -16.316   6.455  0.00  0.00    +0.001 A 
ATOM     17  C   UNL     1       4.850 -16.565   5.109  0.00  0.00    +0.000 A 
ATOM     18  C   UNL     1       4.477 -15.540   4.257  0.00  0.00    +0.001 A 
ATOM     19  C   UNL     1       4.301 -14.263   4.746  0.00  0.00    +0.011 A 
ENDBRANCH  12  14
ENDBRANCH   8   9
ENDBRANCH   4   7
ENDBRANCH   1   3
BRANCH   1  20
ATOM     20  N   UNL     1       1.942  -5.825   1.700  0.00  0.00    -0.291 N 
ATOM     21  H   UNL     1       1.958  -6.539   1.043  0.00  0.00    +0.154 HD
BRANCH  20  29
ATOM     22  C   UNL     1      -0.019   1.526   0.010  0.00  0.00    +0.008 C 
ATOM     23  C   UNL     1       0.002  -0.004   0.002  0.00  0.00    -0.009 C 
ATOM     24  C   UNL     1       0.724  -0.500  -1.254  0.00  0.00    +0.008 C 
ATOM     25  C   UNL     1       0.537  -2.012  -1.399  0.00  0.00    +0.037 C 
ATOM     26  C   UNL     1       0.935  -2.680  -0.091  0.00  0.00    -0.023 A 
ATOM     27  C   UNL     1       1.020  -1.977   1.059  0.00  0.00    -0.004 A 
ATOM     28  S   UNL     1       1.508  -3.164   2.276  0.00  0.00    -0.077 S 
ATOM     29  C   UNL     1       1.600  -4.539   1.315  0.00  0.00    +0.084 A 
ATOM     30  C   UNL     1       1.254  -4.090   0.050  0.00  0.00    +0.068 A 
ATOM     31  C   UNL     1       0.750  -0.515   1.242  0.00  0.00    +0.046 C 
BRANCH  30  32
ATOM     32  C   UNL     1       1.214  -5.001  -1.098  0.00  0.00    +0.244 C 
ATOM     33  O   UNL     1       2.210  -5.170  -1.777  0.00  0.00    -0.270 OA
ATOM     34  N   UNL     1       0.073  -5.651  -1.402  0.00  0.00    -0.325 N 
ATOM     35  H   UNL     1      -0.721  -5.516  -0.861  0.00  0.00    +0.145 HD
ATOM     36  H   UNL     1       0.046  -6.254  -2.162  0.00  0.00    +0.145 HD
ENDBRANCH  30  32
ENDBRANCH  20  29
ENDBRANCH   1  20
TORSDOF 7
