REMARK  Name = ZINC09631010
REMARK  9 active torsions:
REMARK  status: ('A' for Active; 'I' for Inactive)
REMARK    1  A    between atoms: C_1  and  C_2
REMARK    2  A    between atoms: C_7  and  N_12
REMARK    3  A    between atoms: C_9  and  C_11
REMARK    4  A    between atoms: C_13  and  C_15
REMARK    5  A    between atoms: C_15  and  O_16
REMARK    6  A    between atoms: O_16  and  C_17
REMARK    7  A    between atoms: C_17  and  C_19
REMARK    8  A    between atoms: C_23  and  N_25
REMARK    9  A    between atoms: C_26  and  C_28
REMARK                            x       y       z     vdW  Elec       q    Type
REMARK                         _______ _______ _______ _____ _____    ______ ____
ROOT
ATOM      1  C   UNL     1      -0.034   1.353   0.035  0.00  0.00    +0.340 C 
ATOM      2  O   UNL     1      -1.092   1.951   0.039  0.00  0.00    -0.245 OA
ENDROOT
BRANCH   1   3
ATOM      3  C   UNL     1       1.238   2.104   0.022  0.00  0.00    +0.061 A 
ATOM      4  C   UNL     1       2.455   1.419   0.012  0.00  0.00    +0.016 A 
ATOM      5  C   UNL     1       3.642   2.122   0.000  0.00  0.00    +0.022 A 
ATOM      6  C   UNL     1       3.632   3.505  -0.001  0.00  0.00    +0.062 A 
ATOM      7  C   UNL     1       2.425   4.197   0.009  0.00  0.00    +0.053 A 
ATOM      8  C   UNL     1       1.227   3.499   0.016  0.00  0.00    +0.039 A 
ATOM      9 CL   UNL     1       5.130   4.382  -0.015  0.00  0.00    -0.082 Cl
BRANCH   7  10
ATOM     10  N   UNL     1       2.419   5.596   0.008  0.00  0.00    -0.280 N 
ATOM     11  C   UNL     1       1.454   6.266  -0.653  0.00  0.00    +0.255 C 
ATOM     12  O   UNL     1       0.542   5.656  -1.179  0.00  0.00    -0.269 OA
ATOM     13  H   UNL     1       3.110   6.084   0.483  0.00  0.00    +0.155 HD
BRANCH  11  14
ATOM     14  C   UNL     1       1.504   7.728  -0.737  0.00  0.00    +0.074 A 
ATOM     15  C   UNL     1       0.622   8.598  -1.361  0.00  0.00    +0.021 A 
ATOM     16  C   UNL     1       0.909   9.938  -1.286  0.00  0.00    +0.008 A 
ATOM     17  C   UNL     1       2.021  10.342  -0.618  0.00  0.00    +0.046 A 
ATOM     18  S   UNL     1       2.709   8.854  -0.057  0.00  0.00    -0.092 S 
ENDBRANCH  11  14
ENDBRANCH   7  10
ENDBRANCH   1   3
BRANCH   1  19
ATOM     19  O   UNL     1      -0.022   0.006   0.036  0.00  0.00    -0.452 OA
BRANCH  19  20
ATOM     20  C   UNL     1      -1.309  -0.665   0.048  0.00  0.00    +0.328 C 
BRANCH  20  22
ATOM     21  N   UNL     1      -2.159  -2.988   0.058  0.00  0.00    -0.309 N 
ATOM     22  C   UNL     1      -1.098  -2.157   0.047  0.00  0.00    +0.251 C 
ATOM     23  O   UNL     1       0.027  -2.610   0.037  0.00  0.00    -0.272 OA
ATOM     24  H   UNL     1      -3.059  -2.626   0.066  0.00  0.00    +0.149 HD
BRANCH  21  30
ATOM     25  C   UNL     1      -4.196  -7.331  -1.140  0.00  0.00    +0.008 C 
ATOM     26  C   UNL     1      -2.967  -6.642  -0.542  0.00  0.00    -0.009 C 
ATOM     27  C   UNL     1      -2.758  -7.128   0.894  0.00  0.00    +0.003 C 
ATOM     28  C   UNL     1      -1.530  -6.440   1.492  0.00  0.00    +0.002 C 
ATOM     29  C   UNL     1      -1.744  -4.925   1.492  0.00  0.00    +0.022 C 
ATOM     30  C   UNL     1      -1.953  -4.439   0.057  0.00  0.00    +0.076 C 
ATOM     31  C   UNL     1      -3.182  -5.127  -0.541  0.00  0.00    +0.009 C 
ATOM     32  C   UNL     1      -4.416  -4.787   0.298  0.00  0.00    +0.009 C 
ENDBRANCH  21  30
ENDBRANCH  20  22
ENDBRANCH  19  20
ENDBRANCH   1  19
TORSDOF 7
