REMARK  Name = ZINC09423405
REMARK  9 active torsions:
REMARK  status: ('A' for Active; 'I' for Inactive)
REMARK    1  A    between atoms: C_1  and  C_2
REMARK    2  A    between atoms: C_2  and  N_3
REMARK    3  A    between atoms: C_5  and  C_12
REMARK    4  A    between atoms: C_19  and  O_32
REMARK    5  A    between atoms: C_20  and  C_23
REMARK    6  A    between atoms: C_23  and  N_59
REMARK    7  A    between atoms: C_24  and  N_59
REMARK    8  A    between atoms: C_25  and  C_26
REMARK    9  A    between atoms: C_25  and  N_59
REMARK                            x       y       z     vdW  Elec       q    Type
REMARK                         _______ _______ _______ _____ _____    ______ ____
ROOT
ATOM      1  C   UNL     1      -3.965  -1.904   2.279  0.00  0.00    +0.060 C 
ATOM      2  C   UNL     1      -3.459  -0.642   2.180  0.00  0.00    +0.176 C 
ATOM      3  C   UNL     1      -3.879   0.482   2.939  0.00  0.00    +0.231 C 
ATOM      4  O   UNL     1      -4.748   0.516   3.794  0.00  0.00    -0.283 OA
ATOM      5  C   UNL     1      -3.040   1.599   2.470  0.00  0.00    +0.068 A 
ATOM      6  C   UNL     1      -2.959   2.949   2.812  0.00  0.00    +0.019 A 
ATOM      7  C   UNL     1      -2.054   3.756   2.183  0.00  0.00    +0.046 A 
ATOM      8  C   UNL     1      -1.209   3.235   1.207  0.00  0.00    +0.122 A 
ATOM      9  C   UNL     1      -1.282   1.898   0.853  0.00  0.00    +0.020 A 
ATOM     10  C   UNL     1      -2.196   1.064   1.483  0.00  0.00    +0.144 A 
ATOM     11  O   UNL     1      -2.471  -0.250   1.341  0.00  0.00    -0.451 OA
ENDROOT
BRANCH   1  14
ATOM     12  N   UNL     1      -5.925  -2.309   5.331  0.00  0.00    -0.346 N 
ATOM     13  C   UNL     1      -4.872  -1.795   4.650  0.00  0.00    +0.094 A 
ATOM     14  C   UNL     1      -4.914  -2.228   3.342  0.00  0.00    +0.004 A 
ATOM     15  C   UNL     1      -6.114  -3.081   3.228  0.00  0.00    +0.007 A 
ATOM     16  C   UNL     1      -6.699  -3.098   4.504  0.00  0.00    +0.050 A 
ATOM     17  C   UNL     1      -7.862  -3.833   4.710  0.00  0.00    +0.026 A 
ATOM     18  C   UNL     1      -8.422  -4.541   3.669  0.00  0.00    +0.002 A 
ATOM     19  C   UNL     1      -7.838  -4.528   2.411  0.00  0.00    +0.001 A 
ATOM     20  C   UNL     1      -6.687  -3.806   2.187  0.00  0.00    +0.010 A 
BRANCH  12  22
ATOM     21  C   UNL     1      -5.612  -3.197   7.588  0.00  0.00    +0.027 C 
ATOM     22  C   UNL     1      -6.203  -2.063   6.748  0.00  0.00    +0.118 C 
ENDBRANCH  12  22
ENDBRANCH   1  14
BRANCH   8  23
ATOM     23  O   UNL     1      -0.309   4.046   0.593  0.00  0.00    -0.506 OA
ATOM     24  H   UNL     1      -0.648   4.477  -0.203  0.00  0.00    +0.292 HD
ENDBRANCH   8  23
BRANCH   9  25
ATOM     25  C   UNL     1      -0.366   1.347  -0.210  0.00  0.00    -0.035 C 
BRANCH  25  27
ATOM     26  C   UNL     1      -1.175   2.881  -1.900  0.00  0.00    -0.095 C 
ATOM     27  N   UNL     1      -1.038   1.459  -1.522  0.00  0.00    +0.383 N 
ATOM     28  H   UNL     1      -1.972   1.040  -1.455  0.00  0.00    -0.081 HD
BRANCH  27  29
ATOM     29  C   UNL     1      -0.260   0.736  -2.550  0.00  0.00    -0.043 C 
BRANCH  29  30
ATOM     30  C   UNL     1      -1.069   0.677  -3.820  0.00  0.00    -0.064 A 
ATOM     31  C   UNL     1      -1.937  -0.377  -4.038  0.00  0.00    +0.002 A 
ATOM     32  C   UNL     1      -2.683  -0.429  -5.201  0.00  0.00    +0.000 A 
ATOM     33  C   UNL     1      -2.554   0.569  -6.149  0.00  0.00    +0.000 A 
ATOM     34  C   UNL     1      -1.683   1.620  -5.933  0.00  0.00    +0.000 A 
ATOM     35  C   UNL     1      -0.941   1.674  -4.769  0.00  0.00    +0.002 A 
ENDBRANCH  29  30
ENDBRANCH  27  29
ENDBRANCH  25  27
ENDBRANCH   9  25
TORSDOF 7
