REMARK  Name = ZINC12551854
REMARK  6 active torsions:
REMARK  status: ('A' for Active; 'I' for Inactive)
REMARK    1  A    between atoms: C_1  and  C_2
REMARK    2  A    between atoms: C_5  and  N_8
REMARK    3  A    between atoms: N_8  and  S_9
REMARK    4  A    between atoms: S_9  and  C_12
REMARK    5  A    between atoms: C_16  and  C_18
REMARK    6  A    between atoms: C_23  and  C_26
REMARK                            x       y       z     vdW  Elec       q    Type
REMARK                         _______ _______ _______ _____ _____    ______ ____
ROOT
ATOM      1  C   UNL     1      -0.558   2.096  -0.815  0.00  0.00    +0.109 A 
ATOM      2  C   UNL     1      -1.714   2.204  -0.061  0.00  0.00    +0.029 A 
ATOM      3  C   UNL     1      -1.963   3.349   0.674  0.00  0.00    +0.003 A 
ATOM      4  C   UNL     1      -1.065   4.396   0.651  0.00  0.00    +0.013 A 
ATOM      5  C   UNL     1       0.099   4.297  -0.111  0.00  0.00    +0.039 A 
ATOM      6  C   UNL     1       0.347   3.136  -0.847  0.00  0.00    +0.041 A 
ENDROOT
BRANCH   5   7
ATOM      7  C   UNL     1       1.066   5.415  -0.140  0.00  0.00    +0.247 C 
ATOM      8  O   UNL     1       2.258   5.190  -0.062  0.00  0.00    -0.270 OA
ATOM      9  N   UNL     1       0.625   6.684  -0.252  0.00  0.00    -0.293 N 
ATOM     10  C   UNL     1       1.564   7.814  -0.356  0.00  0.00    +0.113 C 
ATOM     11  C   UNL     1       1.340   8.491  -1.710  0.00  0.00    +0.054 C 
ATOM     12  C   UNL     1      -0.126   8.678  -1.965  0.00  0.00    -0.039 C 
ATOM     13  C   UNL     1      -1.077   8.018  -1.345  0.00  0.00    -0.004 C 
ATOM     14  C   UNL     1      -0.811   6.994  -0.281  0.00  0.00    +0.135 C 
BRANCH  12  15
ATOM     15  C   UNL     1      -0.528   9.670  -2.982  0.00  0.00    +0.003 A 
ATOM     16  C   UNL     1      -0.516  11.021  -2.847  0.00  0.00    +0.091 A 
ATOM     17  N   UNL     1      -0.953  11.603  -4.001  0.00  0.00    -0.360 N 
ATOM     18  H   UNL     1      -1.030  12.559  -4.145  0.00  0.00    +0.165 HD
ATOM     19  C   UNL     1      -1.274  10.637  -4.930  0.00  0.00    +0.047 A 
ATOM     20  C   UNL     1      -1.024   9.387  -4.340  0.00  0.00    +0.007 A 
ATOM     21  C   UNL     1      -1.262   8.216  -5.058  0.00  0.00    +0.010 A 
ATOM     22  C   UNL     1      -1.741   8.293  -6.347  0.00  0.00    +0.001 A 
ATOM     23  C   UNL     1      -1.989   9.527  -6.930  0.00  0.00    +0.002 A 
ATOM     24  C   UNL     1      -1.759  10.692  -6.233  0.00  0.00    +0.026 A 
ENDBRANCH  12  15
ENDBRANCH   5   7
BRANCH   1  25
ATOM     25  S   UNL     1      -0.247   0.631  -1.743  0.00  0.00    +0.072 S 
ATOM     26  O   UNL     1      -1.494  -0.038  -1.875  0.00  0.00    -0.150 OA
ATOM     27  O   UNL     1       0.531   1.020  -2.867  0.00  0.00    -0.150 OA
BRANCH  25  28
ATOM     28  N   UNL     1       0.717  -0.342  -0.813  0.00  0.00    -0.216 N 
ATOM     29  H   UNL     1       1.608  -0.576  -1.117  0.00  0.00    +0.174 HD
BRANCH  28  34
ATOM     30  C   UNL     1      -1.188  -2.309   4.153  0.00  0.00    +0.044 C 
ATOM     31  C   UNL     1      -0.682  -1.786   2.833  0.00  0.00    -0.050 A 
ATOM     32  C   UNL     1      -1.144  -2.334   1.651  0.00  0.00    +0.005 A 
ATOM     33  C   UNL     1      -0.682  -1.858   0.440  0.00  0.00    +0.025 A 
ATOM     34  C   UNL     1       0.247  -0.826   0.410  0.00  0.00    +0.048 A 
ATOM     35  C   UNL     1       0.714  -0.281   1.600  0.00  0.00    +0.025 A 
ATOM     36  C   UNL     1       0.244  -0.759   2.807  0.00  0.00    +0.005 A 
ENDBRANCH  28  34
ENDBRANCH  25  28
ENDBRANCH   1  25
TORSDOF 5
