REMARK  Name = ZINC09968657
REMARK  10 active torsions:
REMARK  status: ('A' for Active; 'I' for Inactive)
REMARK    1  A    between atoms: C_1  and  C_2
REMARK    2  A    between atoms: C_2  and  O_3
REMARK    3  A    between atoms: O_3  and  C_4
REMARK    4  A    between atoms: C_5  and  O_35
REMARK    5  A    between atoms: C_7  and  C_11
REMARK    6  A    between atoms: C_16  and  C_26
REMARK    7  A    between atoms: C_18  and  C_22
REMARK    8  A    between atoms: C_22  and  O_24
REMARK    9  A    between atoms: O_24  and  C_25
REMARK   10  A    between atoms: O_35  and  C_36
REMARK                            x       y       z     vdW  Elec       q    Type
REMARK                         _______ _______ _______ _____ _____    ______ ____
ROOT
ATOM      1  C   UNL     1       0.210   6.050  -0.473  0.00  0.00    +0.136 C 
ATOM      2  C   UNL     1      -0.888   6.431  -1.437  0.00  0.00    +0.037 C 
ATOM      3  C   UNL     1      -1.463   7.642  -1.539  0.00  0.00    +0.017 C 
ATOM      4  C   UNL     1      -2.557   7.893  -2.562  0.00  0.00    +0.055 C 
ATOM      5  C   UNL     1      -3.366   6.617  -2.787  0.00  0.00    +0.013 C 
ATOM      6  C   UNL     1      -2.400   5.535  -3.288  0.00  0.00    +0.171 C 
ATOM      7  C   UNL     1      -1.304   5.372  -2.278  0.00  0.00    +0.177 C 
ATOM      8  O   UNL     1      -0.754   4.293  -2.179  0.00  0.00    -0.291 OA
ATOM      9  C   UNL     1      -4.007   6.170  -1.472  0.00  0.00    +0.009 C 
ATOM     10  N   UNL     1      -1.131   8.721  -0.784  0.00  0.00    -0.316 N 
ATOM     11  C   UNL     1      -0.960   8.705   0.595  0.00  0.00    +0.052 A 
ATOM     12  C   UNL     1      -1.792   9.403   1.453  0.00  0.00    +0.025 A 
ATOM     13  C   UNL     1      -1.535   9.382   2.813  0.00  0.00    +0.002 A 
ATOM     14  C   UNL     1      -0.457   8.672   3.309  0.00  0.00    +0.002 A 
ATOM     15  C   UNL     1       0.365   7.958   2.454  0.00  0.00    +0.025 A 
ATOM     16  C   UNL     1       0.098   7.960   1.095  0.00  0.00    +0.049 A 
ATOM     17  N   UNL     1       0.827   7.168   0.208  0.00  0.00    -0.331 N 
ATOM     18  H   UNL     1      -1.004   9.566  -1.242  0.00  0.00    +0.152 HD
ATOM     19  H   UNL     1       1.762   7.369   0.046  0.00  0.00    +0.147 HD
ENDROOT
BRANCH   1  23
ATOM     20  C   UNL     1      -1.428   3.411   2.467  0.00  0.00    +0.176 A 
ATOM     21  C   UNL     1      -0.429   2.963   1.609  0.00  0.00    +0.163 A 
ATOM     22  C   UNL     1       0.103   3.822   0.661  0.00  0.00    +0.055 A 
ATOM     23  C   UNL     1      -0.366   5.119   0.562  0.00  0.00    -0.018 A 
ATOM     24  C   UNL     1      -1.359   5.565   1.414  0.00  0.00    +0.025 A 
ATOM     25  C   UNL     1      -1.891   4.714   2.367  0.00  0.00    +0.063 A 
ATOM     26 BR   UNL     1      -3.248   5.328   3.531  0.00  0.00    -0.046 Br
BRANCH  21  27
ATOM     27  O   UNL     1       0.028   1.685   1.704  0.00  0.00    -0.491 OA
ATOM     28  C   UNL     1       1.055   1.294   0.790  0.00  0.00    +0.277 C 
ENDBRANCH  21  27
BRANCH  20  29
ATOM     29  O   UNL     1      -1.950   2.573   3.403  0.00  0.00    -0.487 OA
BRANCH  29  31
ATOM     30  C   UNL     1      -2.035   1.557   5.594  0.00  0.00    +0.048 C 
ATOM     31  C   UNL     1      -1.313   2.551   4.682  0.00  0.00    +0.226 C 
ENDBRANCH  29  31
ENDBRANCH  20  29
ENDBRANCH   1  23
BRANCH   6  32
ATOM     32  C   UNL     1      -3.139   4.232  -3.448  0.00  0.00    +0.318 C 
ATOM     33  O   UNL     1      -4.322   4.174  -3.207  0.00  0.00    -0.250 OA
BRANCH  32  34
ATOM     34  O   UNL     1      -2.484   3.135  -3.859  0.00  0.00    -0.467 OA
ATOM     35  C   UNL     1      -3.259   1.914  -3.991  0.00  0.00    +0.280 C 
ENDBRANCH  32  34
ENDBRANCH   6  32
TORSDOF 6
