REMARK  Name = ZINC07374271
REMARK  8 active torsions:
REMARK  status: ('A' for Active; 'I' for Inactive)
REMARK    1  A    between atoms: C_1  and  C_2
REMARK    2  A    between atoms: C_2  and  C_3
REMARK    3  A    between atoms: C_2  and  C_4
REMARK    4  A    between atoms: C_4  and  C_5
REMARK    5  A    between atoms: C_5  and  N_6
REMARK    6  A    between atoms: N_6  and  S_7
REMARK    7  A    between atoms: S_7  and  C_10
REMARK    8  A    between atoms: C_14  and  N_16
REMARK                            x       y       z     vdW  Elec       q    Type
REMARK                         _______ _______ _______ _____ _____    ______ ____
ROOT
ATOM      1  S   UNL     1      -1.456   1.774   0.019  0.00  0.00    +0.058 S 
ATOM      2  O   UNL     1      -2.475   0.784  -0.009  0.00  0.00    -0.153 OA
ATOM      3  O   UNL     1      -1.369   2.749   1.049  0.00  0.00    -0.153 OA
ENDROOT
BRANCH   1   4
ATOM      4  C   UNL     1      -1.571   2.658  -1.502  0.00  0.00    +0.107 A 
ATOM      5  C   UNL     1      -1.089   3.951  -1.587  0.00  0.00    +0.030 A 
ATOM      6  C   UNL     1      -1.174   4.642  -2.781  0.00  0.00    +0.024 A 
ATOM      7  C   UNL     1      -1.752   4.044  -3.887  0.00  0.00    +0.071 A 
ATOM      8  C   UNL     1      -2.239   2.753  -3.799  0.00  0.00    +0.146 A 
ATOM      9  C   UNL     1      -2.148   2.060  -2.606  0.00  0.00    +0.062 A 
ATOM     10 CL   UNL     1      -1.865   4.915  -5.385  0.00  0.00    -0.081 Cl
BRANCH   8  11
ATOM     11  N   UNL     1      -2.856   2.112  -4.982  0.00  0.00    +0.058 N 
ATOM     12  O   UNL     1      -3.284   0.975  -4.904  0.00  0.00    -0.126 OA
ATOM     13  O   UNL     1      -2.936   2.723  -6.033  0.00  0.00    -0.126 OA
ENDBRANCH   8  11
ENDBRANCH   1   4
BRANCH   1  14
ATOM     14  N   UNL     1      -0.011   0.966   0.007  0.00  0.00    -0.190 NA
ATOM     15  H   UNL     1       0.002  -0.004   0.002  0.00  0.00    +0.148 HD
BRANCH  14  16
ATOM     16  C   UNL     1       1.248   1.716  -0.001  0.00  0.00    +0.106 C 
BRANCH  16  17
ATOM     17  C   UNL     1       2.402   0.777   0.357  0.00  0.00    +0.020 C 
BRANCH  17  19
ATOM     18  C   UNL     1       4.853   0.654   0.826  0.00  0.00    +0.007 C 
ATOM     19  C   UNL     1       3.717   1.560   0.348  0.00  0.00    -0.016 C 
ATOM     20  C   UNL     1       4.013   2.044  -1.073  0.00  0.00    +0.007 C 
ENDBRANCH  17  19
ENDBRANCH  16  17
ENDBRANCH  14  16
ENDBRANCH   1  14
TORSDOF 6
