REMARK  Name = ZINC21079566
REMARK  8 active torsions:
REMARK  status: ('A' for Active; 'I' for Inactive)
REMARK    1  A    between atoms: C_1  and  C_2
REMARK    2  A    between atoms: C_2  and  C_24
REMARK    3  A    between atoms: N_3  and  N_4
REMARK    4  A    between atoms: C_7  and  S_10
REMARK    5  A    between atoms: S_10  and  C_11
REMARK    6  A    between atoms: C_11  and  C_12
REMARK    7  A    between atoms: C_12  and  C_13
REMARK    8  A    between atoms: N_15  and  C_16
REMARK                            x       y       z     vdW  Elec       q    Type
REMARK                         _______ _______ _______ _____ _____    ______ ____
ROOT
ATOM      1  N   UNL     1       1.758  -1.720  -0.087  0.00  0.00    -0.205 N 
ATOM      2  C   UNL     1       1.311  -0.407  -0.066  0.00  0.00    +0.232 A 
ATOM      3  N   UNL     1       0.005  -0.003  -0.051  0.00  0.00    -0.186 NA
ATOM      4  C   UNL     1      -0.014   1.363  -0.033  0.00  0.00    +0.210 A 
ATOM      5  N   UNL     1       1.227   1.786  -0.037  0.00  0.00    -0.144 NA
ATOM      6  N   UNL     1       2.067   0.664  -0.058  0.00  0.00    -0.245 N 
ATOM      7  H   UNL     1       1.033  -2.548  -0.093  0.00  0.00    +0.177 HD
ATOM      8  H   UNL     1       3.162   0.565  -0.068  0.00  0.00    +0.192 HD
ENDROOT
BRANCH   1  11
ATOM      9  C   UNL     1       2.558  -4.355  -0.129  0.00  0.00    +0.068 C 
ATOM     10  C   UNL     1       3.550  -3.222  -0.121  0.00  0.00    +0.063 C 
ATOM     11  N   UNL     1       3.132  -1.992  -0.101  0.00  0.00    -0.184 NA
BRANCH  10  12
ATOM     12  C   UNL     1       4.996  -3.508  -0.136  0.00  0.00    +0.001 A 
ATOM     13  C   UNL     1       5.449  -4.830  -0.157  0.00  0.00    +0.013 A 
ATOM     14  C   UNL     1       6.802  -5.095  -0.171  0.00  0.00    +0.050 A 
ATOM     15  C   UNL     1       7.718  -4.053  -0.164  0.00  0.00    +0.166 A 
ATOM     16  C   UNL     1       7.274  -2.731  -0.143  0.00  0.00    +0.167 A 
ATOM     17  C   UNL     1       5.918  -2.458  -0.134  0.00  0.00    +0.059 A 
ATOM     18  O   UNL     1       8.361  -1.906  -0.140  0.00  0.00    -0.453 OA
ATOM     19  C   UNL     1       9.465  -2.723  -0.573  0.00  0.00    +0.466 C 
ATOM     20  O   UNL     1       9.083  -4.053  -0.174  0.00  0.00    -0.453 OA
ENDBRANCH  10  12
ENDBRANCH   1  11
BRANCH   4  21
ATOM     21  S   UNL     1      -1.454   2.379  -0.015  0.00  0.00    -0.084 S 
BRANCH  21  22
ATOM     22  C   UNL     1      -0.798   4.070   0.005  0.00  0.00    +0.086 C 
BRANCH  22  23
ATOM     23  C   UNL     1      -1.958   5.067   0.021  0.00  0.00    +0.107 C 
BRANCH  23  24
ATOM     24  C   UNL     1      -1.413   6.472   0.038  0.00  0.00    +0.218 C 
ATOM     25  O   UNL     1      -0.215   6.657   0.037  0.00  0.00    -0.275 OA
ATOM     26  N   UNL     1      -2.258   7.522   0.054  0.00  0.00    -0.284 N 
ATOM     27  H   UNL     1      -3.343   7.356  -0.019  0.00  0.00    +0.155 HD
BRANCH  26  28
ATOM     28  C   UNL     1      -1.754   8.823   0.164  0.00  0.00    +0.053 A 
ATOM     29  C   UNL     1      -0.544   9.154  -0.431  0.00  0.00    +0.044 A 
ATOM     30  C   UNL     1      -0.052  10.441  -0.325  0.00  0.00    +0.043 A 
ATOM     31  C   UNL     1      -0.759  11.397   0.383  0.00  0.00    +0.021 A 
ATOM     32  C   UNL     1      -1.962  11.070   0.982  0.00  0.00    +0.023 A 
ATOM     33  C   UNL     1      -2.462   9.786   0.875  0.00  0.00    +0.062 A 
ATOM     34 CL   UNL     1      -3.972   9.376   1.627  0.00  0.00    -0.082 Cl
ATOM     35 CL   UNL     1       1.457  10.857  -1.075  0.00  0.00    -0.083 Cl
ENDBRANCH  26  28
ENDBRANCH  23  24
ENDBRANCH  22  23
ENDBRANCH  21  22
ENDBRANCH   4  21
TORSDOF 7
