REMARK  Name = ZINC12705519
REMARK  13 active torsions:
REMARK  status: ('A' for Active; 'I' for Inactive)
REMARK    1  A    between atoms: C_1  and  C_2
REMARK    2  A    between atoms: C_5  and  C_8
REMARK    3  A    between atoms: N_11  and  C_13
REMARK    4  A    between atoms: C_13  and  C_14
REMARK    5  A    between atoms: N_16  and  C_17
REMARK    6  A    between atoms: N_16  and  C_35
REMARK    7  A    between atoms: C_17  and  C_19
REMARK    8  A    between atoms: C_17  and  C_26
REMARK    9  A    between atoms: C_22  and  O_25
REMARK   10  A    between atoms: N_28  and  C_29
REMARK   11  A    between atoms: C_35  and  C_36
REMARK   12  A    between atoms: C_35  and  C_37
REMARK   13  A    between atoms: C_35  and  C_38
REMARK                            x       y       z     vdW  Elec       q    Type
REMARK                         _______ _______ _______ _____ _____    ______ ____
ROOT
ATOM      1  C   UNL     1       2.694   1.071   2.372  0.00  0.00    +0.240 C 
ATOM      2  O   UNL     1       2.084   0.030   2.492  0.00  0.00    -0.273 OA
ATOM      3  N   UNL     1       2.815   1.646   1.158  0.00  0.00    -0.279 N 
ENDROOT
BRANCH   3   4
ATOM      4  C   UNL     1       3.654   2.835   0.991  0.00  0.00    +0.030 C 
ATOM      5  C   UNL     1       3.436   3.421  -0.405  0.00  0.00    +0.031 C 
ATOM      6  C   UNL     1       3.277   3.877   2.046  0.00  0.00    +0.031 C 
ATOM      7  C   UNL     1       5.125   2.449   1.159  0.00  0.00    +0.031 C 
ENDBRANCH   3   4
BRANCH   1   8
ATOM      8  C   UNL     1       3.318   1.723   3.579  0.00  0.00    +0.264 C 
BRANCH   8  12
ATOM      9  C   UNL     1       2.665  -0.256   6.427  0.00  0.00    +0.205 A 
ATOM     10  N   UNL     1       3.865  -0.718   6.048  0.00  0.00    -0.108 NA
ATOM     11  N   UNL     1       4.215  -0.058   4.996  0.00  0.00    -0.045 NA
ATOM     12  N   UNL     1       3.289   0.789   4.707  0.00  0.00    -0.154 N 
ATOM     13  N   UNL     1       2.336   0.689   5.569  0.00  0.00    -0.130 NA
BRANCH   9  18
ATOM     14  C   UNL     1      -0.439  -2.038  10.940  0.00  0.00    +0.044 C 
ATOM     15  C   UNL     1       0.373  -1.572   9.759  0.00  0.00    -0.050 A 
ATOM     16  C   UNL     1       1.602  -2.151   9.496  0.00  0.00    +0.004 A 
ATOM     17  C   UNL     1       2.350  -1.728   8.416  0.00  0.00    +0.012 A 
ATOM     18  C   UNL     1       1.865  -0.716   7.590  0.00  0.00    +0.023 A 
ATOM     19  C   UNL     1       0.630  -0.133   7.863  0.00  0.00    +0.012 A 
ATOM     20  C   UNL     1      -0.112  -0.567   8.943  0.00  0.00    +0.004 A 
ENDBRANCH   9  18
ENDBRANCH   8  12
ENDBRANCH   1   8
BRANCH   3  21
ATOM     21  C   UNL     1       2.107   1.081   0.007  0.00  0.00    +0.193 C 
BRANCH  21  22
ATOM     22  C   UNL     1       2.643  -0.297  -0.285  0.00  0.00    -0.018 A 
ATOM     23  C   UNL     1       2.317  -0.927  -1.472  0.00  0.00    +0.009 A 
ATOM     24  C   UNL     1       2.802  -2.193  -1.739  0.00  0.00    +0.046 A 
ATOM     25  C   UNL     1       3.625  -2.828  -0.820  0.00  0.00    +0.117 A 
ATOM     26  C   UNL     1       3.951  -2.193   0.370  0.00  0.00    +0.046 A 
ATOM     27  C   UNL     1       3.459  -0.930   0.635  0.00  0.00    +0.009 A 
BRANCH  25  28
ATOM     28  O   UNL     1       4.108  -4.071  -1.083  0.00  0.00    -0.507 OA
ATOM     29  H   UNL     1       3.537  -4.787  -0.774  0.00  0.00    +0.292 HD
ENDBRANCH  25  28
ENDBRANCH  21  22
BRANCH  21  30
ATOM     30  C   UNL     1       0.635   0.993   0.316  0.00  0.00    +0.238 C 
ATOM     31  O   UNL     1       0.215   1.384   1.384  0.00  0.00    -0.273 OA
ATOM     32  N   UNL     1      -0.215   0.479  -0.596  0.00  0.00    -0.311 N 
ATOM     33  H   UNL     1       0.121   0.166  -1.450  0.00  0.00    +0.149 HD
BRANCH  32  34
ATOM     34  C   UNL     1      -1.647   0.394  -0.295  0.00  0.00    +0.073 C 
ATOM     35  C   UNL     1      -1.929  -0.895   0.479  0.00  0.00    +0.022 C 
ATOM     36  C   UNL     1      -3.424  -0.985   0.792  0.00  0.00    +0.002 C 
ATOM     37  C   UNL     1      -4.220  -0.990  -0.514  0.00  0.00    +0.000 C 
ATOM     38  C   UNL     1      -3.937   0.299  -1.289  0.00  0.00    +0.002 C 
ATOM     39  C   UNL     1      -2.442   0.389  -1.602  0.00  0.00    +0.022 C 
ENDBRANCH  32  34
ENDBRANCH  21  30
ENDBRANCH   3  21
TORSDOF 9
