REMARK  Name = ZINC62160357
REMARK  7 active torsions:
REMARK  status: ('A' for Active; 'I' for Inactive)
REMARK    1  A    between atoms: C_1  and  C_2
REMARK    2  A    between atoms: C_3  and  C_11
REMARK    3  A    between atoms: C_4  and  C_7
REMARK    4  A    between atoms: C_7  and  C_8
REMARK    5  A    between atoms: C_7  and  C_9
REMARK    6  A    between atoms: C_7  and  C_10
REMARK    7  A    between atoms: N_13  and  C_14
REMARK                            x       y       z     vdW  Elec       q    Type
REMARK                         _______ _______ _______ _____ _____    ______ ____
ROOT
ATOM      1  C   UNL     1      -2.503  -0.396   0.012  0.00  0.00    +0.253 C 
ATOM      2  O   UNL     1      -3.092  -0.222  -1.038  0.00  0.00    -0.270 OA
ATOM      3  N   UNL     1      -3.144  -0.212   1.183  0.00  0.00    -0.279 N 
ATOM      4  H   UNL     1      -2.700  -0.427   2.018  0.00  0.00    +0.155 HD
ENDROOT
BRANCH   3   5
ATOM      5  C   UNL     1      -4.452   0.289   1.195  0.00  0.00    +0.072 A 
ATOM      6  C   UNL     1      -4.909   1.063   0.136  0.00  0.00    +0.029 A 
ATOM      7  C   UNL     1      -6.199   1.557   0.148  0.00  0.00    +0.043 A 
ATOM      8  C   UNL     1      -7.038   1.283   1.215  0.00  0.00    +0.161 A 
ATOM      9  C   UNL     1      -6.586   0.511   2.274  0.00  0.00    +0.195 A 
ATOM     10  C   UNL     1      -5.296   0.009   2.263  0.00  0.00    +0.182 A 
ATOM     11  F   UNL     1      -4.855  -0.748   3.292  0.00  0.00    -0.200 F 
ATOM     12  F   UNL     1      -7.406   0.245   3.314  0.00  0.00    -0.199 F 
ATOM     13  F   UNL     1      -8.299   1.769   1.224  0.00  0.00    -0.202 F 
ENDBRANCH   3   5
BRANCH   1  16
ATOM     14  C   UNL     1      -0.032   1.526   0.007  0.00  0.00    +0.090 C 
ATOM     15  C   UNL     1       0.000   0.019   0.001  0.00  0.00    +0.147 A 
ATOM     16  C   UNL     1      -1.087  -0.806   0.003  0.00  0.00    +0.102 A 
ATOM     17  C   UNL     1      -0.577  -2.178  -0.005  0.00  0.00    +0.101 A 
ATOM     18  N   UNL     1       0.721  -2.104  -0.011  0.00  0.00    -0.082 NA
ATOM     19  O   UNL     1       1.098  -0.742  -0.013  0.00  0.00    -0.359 OA
BRANCH  17  20
ATOM     20  C   UNL     1      -1.401  -3.440  -0.006  0.00  0.00    +0.008 C 
ATOM     21  C   UNL     1      -2.290  -3.467  -1.251  0.00  0.00    +0.017 C 
ATOM     22  C   UNL     1      -0.473  -4.656  -0.015  0.00  0.00    +0.017 C 
ATOM     23  C   UNL     1      -2.278  -3.477   1.248  0.00  0.00    +0.017 C 
ENDBRANCH  17  20
ENDBRANCH   1  16
TORSDOF 3
