REMARK  Name = ZINC13744567
REMARK  6 active torsions:
REMARK  status: ('A' for Active; 'I' for Inactive)
REMARK    1  A    between atoms: C_1  and  C_2
REMARK    2  A    between atoms: C_2  and  C_3
REMARK    3  A    between atoms: C_8  and  N_9
REMARK    4  A    between atoms: N_12  and  C_13
REMARK    5  A    between atoms: C_13  and  C_15
REMARK    6  A    between atoms: C_13  and  C_16
REMARK                            x       y       z     vdW  Elec       q    Type
REMARK                         _______ _______ _______ _____ _____    ______ ____
ROOT
ATOM      1  N   UNL     1       3.424   7.228  -2.257  0.00  0.00    -0.269 N 
ATOM      2  C   UNL     1       2.362   7.120  -1.433  0.00  0.00    +0.304 C 
ATOM      3  O   UNL     1       1.685   8.099  -1.184  0.00  0.00    -0.252 OA
ATOM      4  N   UNL     1       2.052   5.928  -0.887  0.00  0.00    -0.292 N 
ATOM      5  H   UNL     1       4.012   6.469  -2.392  0.00  0.00    +0.156 HD
ATOM      6  H   UNL     1       2.592   5.148  -1.086  0.00  0.00    +0.151 HD
ENDROOT
BRANCH   1  12
ATOM      7  C   UNL     1       4.966   8.743  -3.335  0.00  0.00    -0.026 A 
ATOM      8  C   UNL     1       5.213   9.935  -3.986  0.00  0.00    +0.005 A 
ATOM      9  C   UNL     1       4.180  10.823  -4.222  0.00  0.00    +0.000 A 
ATOM     10  C   UNL     1       2.896  10.521  -3.807  0.00  0.00    +0.002 A 
ATOM     11  C   UNL     1       2.641   9.328  -3.159  0.00  0.00    +0.023 A 
ATOM     12  C   UNL     1       3.678   8.436  -2.917  0.00  0.00    +0.038 A 
BRANCH   7  14
ATOM     13  C   UNL     1       6.135   6.734  -4.199  0.00  0.00    +0.009 C 
ATOM     14  C   UNL     1       6.093   7.775  -3.079  0.00  0.00    +0.033 C 
ENDBRANCH   7  14
ENDBRANCH   1  12
BRANCH   4  15
ATOM     15  C   UNL     1       0.898   5.811   0.008  0.00  0.00    +0.108 C 
ATOM     16  C   UNL     1       1.315   6.189   1.430  0.00  0.00    +0.033 C 
BRANCH  15  17
ATOM     17  C   UNL     1       0.393   4.391  -0.007  0.00  0.00    +0.011 A 
ATOM     18  C   UNL     1      -0.885   3.940  -0.004  0.00  0.00    +0.014 A 
ATOM     19  C   UNL     1      -1.115   2.577  -0.026  0.00  0.00    +0.028 A 
ATOM     20  C   UNL     1      -0.054   1.732  -0.040  0.00  0.00    +0.078 A 
ATOM     21  S   UNL     1       1.323   2.868  -0.035  0.00  0.00    -0.080 S 
ATOM     22 CL   UNL     1      -0.039  -0.004  -0.063  0.00  0.00    -0.076 Cl
ENDBRANCH  15  17
ENDBRANCH   4  15
TORSDOF 4
