REMARK  Name = ZINC09343601
REMARK  9 active torsions:
REMARK  status: ('A' for Active; 'I' for Inactive)
REMARK    1  A    between atoms: C_3  and  S_10
REMARK    2  A    between atoms: C_6  and  N_7
REMARK    3  A    between atoms: S_10  and  N_13
REMARK    4  A    between atoms: N_13  and  C_14
REMARK    5  A    between atoms: C_14  and  C_15
REMARK    6  A    between atoms: C_15  and  C_16
REMARK    7  A    between atoms: C_22  and  C_24
REMARK    8  A    between atoms: C_24  and  O_25
REMARK    9  A    between atoms: O_25  and  C_26
REMARK                            x       y       z     vdW  Elec       q    Type
REMARK                         _______ _______ _______ _____ _____    ______ ____
ROOT
ATOM      1  C   UNL     1       3.456  -3.136  -4.635  0.00  0.00    +0.220 C 
ATOM      2  O   UNL     1       4.269  -2.305  -4.291  0.00  0.00    -0.275 OA
ATOM      3  N   UNL     1       3.599  -3.771  -5.816  0.00  0.00    -0.263 N 
ATOM      4  C   UNL     1       4.678  -3.471  -6.640  0.00  0.00    +0.188 A 
ATOM      5  N   UNL     1       5.664  -2.610  -6.457  0.00  0.00    -0.126 NA
ATOM      6  N   UNL     1       6.580  -2.454  -7.311  0.00  0.00    -0.141 NA
ATOM      7  C   UNL     1       6.583  -3.153  -8.429  0.00  0.00    +0.141 A 
ATOM      8  S   UNL     1       5.105  -4.133  -8.191  0.00  0.00    -0.032 S 
ATOM      9  H   UNL     1       2.948  -4.436  -6.090  0.00  0.00    +0.157 HD
ENDROOT
BRANCH   1  10
ATOM     10  C   UNL     1       2.286  -3.461  -3.742  0.00  0.00    +0.113 C 
BRANCH  10  11
ATOM     11  C   UNL     1       2.360  -2.607  -2.474  0.00  0.00    +0.115 C 
BRANCH  11  12
ATOM     12  N   UNL     1       1.223  -2.923  -1.606  0.00  0.00    -0.189 NA
ATOM     13  H   UNL     1       0.465  -3.414  -1.959  0.00  0.00    +0.148 HD
BRANCH  12  14
ATOM     14  S   UNL     1       1.232  -2.441  -0.022  0.00  0.00    +0.058 S 
ATOM     15  O   UNL     1       2.489  -2.832   0.515  0.00  0.00    -0.153 OA
ATOM     16  O   UNL     1      -0.002  -2.866   0.539  0.00  0.00    -0.153 OA
BRANCH  14  19
ATOM     17  C   UNL     1      -0.017   1.378   0.010  0.00  0.00    +0.034 A 
ATOM     18  C   UNL     1       0.002  -0.004   0.002  0.00  0.00    +0.031 A 
ATOM     19  C   UNL     1       1.208  -0.679  -0.013  0.00  0.00    +0.105 A 
ATOM     20  C   UNL     1       2.396   0.029  -0.021  0.00  0.00    +0.031 A 
ATOM     21  C   UNL     1       2.377   1.411  -0.015  0.00  0.00    +0.034 A 
ATOM     22  C   UNL     1       1.171   2.086   0.002  0.00  0.00    +0.126 A 
BRANCH  22  23
ATOM     23  N   UNL     1       1.151   3.566   0.010  0.00  0.00    +0.056 N 
ATOM     24  O   UNL     1       0.088   4.160   0.023  0.00  0.00    -0.126 OA
ATOM     25  O   UNL     1       2.197   4.189   0.003  0.00  0.00    -0.126 OA
ENDBRANCH  22  23
ENDBRANCH  14  19
ENDBRANCH  12  14
ENDBRANCH  11  12
ENDBRANCH  10  11
ENDBRANCH   1  10
BRANCH   7  26
ATOM     26  C   UNL     1       7.558  -3.137  -9.578  0.00  0.00    +0.293 C 
BRANCH  26  27
ATOM     27  O   UNL     1       8.594  -4.092  -9.337  0.00  0.00    -0.485 OA
BRANCH  27  28
ATOM     28  C   UNL     1       9.562  -4.204 -10.285  0.00  0.00    +0.121 A 
ATOM     29  C   UNL     1       9.512  -3.415 -11.425  0.00  0.00    +0.047 A 
ATOM     30  C   UNL     1      10.500  -3.527 -12.384  0.00  0.00    +0.023 A 
ATOM     31  C   UNL     1      11.532  -4.433 -12.214  0.00  0.00    +0.041 A 
ATOM     32  C   UNL     1      11.580  -5.224 -11.080  0.00  0.00    +0.023 A 
ATOM     33  C   UNL     1      10.597  -5.111 -10.116  0.00  0.00    +0.047 A 
ATOM     34 CL   UNL     1      12.768  -4.576 -13.424  0.00  0.00    -0.084 Cl
ENDBRANCH  27  28
ENDBRANCH  26  27
ENDBRANCH   7  26
TORSDOF 9
