REMARK  Name = ZINC03670538
REMARK  8 active torsions:
REMARK  status: ('A' for Active; 'I' for Inactive)
REMARK    1  A    between atoms: C_1  and  C_2
REMARK    2  A    between atoms: C_2  and  C_3
REMARK    3  A    between atoms: C_6  and  N_9
REMARK    4  A    between atoms: C_19  and  C_20
REMARK    5  A    between atoms: C_19  and  O_31
REMARK    6  A    between atoms: N_22  and  C_23
REMARK    7  A    between atoms: C_23  and  C_24
REMARK    8  A    between atoms: C_24  and  C_25
REMARK                            x       y       z     vdW  Elec       q    Type
REMARK                         _______ _______ _______ _____ _____    ______ ____
ROOT
ATOM      1  N   UNL     1      -2.442   6.182   0.057  0.00  0.00    -0.214 N 
ATOM      2  C   UNL     1      -1.267   6.703  -0.339  0.00  0.00    +0.314 C 
ATOM      3  O   UNL     1      -1.236   7.869  -0.682  0.00  0.00    -0.252 OA
ATOM      4  N   UNL     1      -0.130   5.997  -0.375  0.00  0.00    -0.269 N 
ATOM      5  C   UNL     1      -0.058   4.654  -0.002  0.00  0.00    +0.043 A 
ATOM      6  C   UNL     1       1.147   3.966  -0.057  0.00  0.00    +0.025 A 
ATOM      7  C   UNL     1       1.198   2.637   0.316  0.00  0.00    +0.017 A 
ATOM      8  C   UNL     1       0.054   1.987   0.744  0.00  0.00    +0.018 A 
ATOM      9  C   UNL     1      -1.152   2.667   0.795  0.00  0.00    +0.025 A 
ATOM     10  C   UNL     1      -1.203   3.993   0.428  0.00  0.00    +0.034 A 
ATOM     11  C   UNL     1      -2.498   4.771   0.476  0.00  0.00    +0.247 C 
ATOM     12 BR   UNL     1       0.134   0.167   1.251  0.00  0.00    -0.050 Br
ATOM     13  H   UNL     1       0.681   6.439  -0.672  0.00  0.00    +0.156 HD
ENDROOT
BRANCH   1  17
ATOM     14  C   UNL     1      -5.882   8.532   0.100  0.00  0.00    -0.048 A 
ATOM     15  C   UNL     1      -5.018   8.555   1.179  0.00  0.00    +0.005 A 
ATOM     16  C   UNL     1      -3.876   7.777   1.168  0.00  0.00    +0.024 A 
ATOM     17  C   UNL     1      -3.598   6.971   0.072  0.00  0.00    +0.041 A 
ATOM     18  C   UNL     1      -4.465   6.954  -1.013  0.00  0.00    +0.024 A 
ATOM     19  C   UNL     1      -5.608   7.730  -0.993  0.00  0.00    +0.005 A 
BRANCH  14  21
ATOM     20  C   UNL     1      -6.815  10.752  -0.490  0.00  0.00    +0.009 C 
ATOM     21  C   UNL     1      -7.126   9.382   0.115  0.00  0.00    +0.032 C 
ENDBRANCH  14  21
ENDBRANCH   1  17
BRANCH  11  22
ATOM     22  C   UNL     1      -3.016   4.725   1.890  0.00  0.00    +0.269 C 
ATOM     23  O   UNL     1      -4.059   4.158   2.135  0.00  0.00    -0.270 OA
ATOM     24  N   UNL     1      -2.320   5.315   2.882  0.00  0.00    -0.311 N 
ATOM     25  H   UNL     1      -1.486   5.769   2.686  0.00  0.00    +0.149 HD
BRANCH  24  26
ATOM     26  C   UNL     1      -2.824   5.271   4.257  0.00  0.00    +0.108 C 
BRANCH  26  27
ATOM     27  C   UNL     1      -1.853   6.010   5.180  0.00  0.00    +0.049 C 
BRANCH  27  28
ATOM     28  C   UNL     1      -2.372   5.964   6.594  0.00  0.00    -0.072 C 
ATOM     29  C   UNL     1      -1.936   5.024   7.371  0.00  0.00    -0.028 C 
ATOM     30  C   UNL     1      -2.363   4.848   8.798  0.00  0.00    +0.027 C 
ATOM     31  C   UNL     1      -3.029   6.126   9.313  0.00  0.00    +0.004 C 
ATOM     32  C   UNL     1      -4.084   6.568   8.291  0.00  0.00    +0.005 C 
ATOM     33  C   UNL     1      -3.366   7.008   7.013  0.00  0.00    +0.030 C 
ENDBRANCH  27  28
ENDBRANCH  26  27
ENDBRANCH  24  26
ENDBRANCH  11  22
BRANCH  11  34
ATOM     34  O   UNL     1      -3.445   4.101  -0.358  0.00  0.00    -0.360 OA
ATOM     35  H   UNL     1      -3.633   3.192  -0.088  0.00  0.00    +0.213 HD
ENDBRANCH  11  34
TORSDOF 7
