REMARK  Name = ZINC36296060
REMARK  10 active torsions:
REMARK  status: ('A' for Active; 'I' for Inactive)
REMARK    1  A    between atoms: C_1  and  C_2
REMARK    2  A    between atoms: C_2  and  N_3
REMARK    3  A    between atoms: C_4  and  C_19
REMARK    4  A    between atoms: C_7  and  S_8
REMARK    5  A    between atoms: S_8  and  C_9
REMARK    6  A    between atoms: C_9  and  C_10
REMARK    7  A    between atoms: C_15  and  C_18
REMARK    8  A    between atoms: C_22  and  S_25
REMARK    9  A    between atoms: S_25  and  N_28
REMARK   10  A    between atoms: N_31  and  C_34
REMARK                            x       y       z     vdW  Elec       q    Type
REMARK                         _______ _______ _______ _____ _____    ______ ____
ROOT
ATOM      1  N   UNL     1       0.632  -1.033  -1.182  0.00  0.00    -0.302 N 
ATOM      2  C   UNL     1       0.124  -0.843  -2.447  0.00  0.00    +0.165 A 
ATOM      3  N   UNL     1       1.146  -0.669  -3.251  0.00  0.00    -0.128 NA
ATOM      4  N   UNL     1       2.244  -0.735  -2.586  0.00  0.00    -0.122 NA
ATOM      5  C   UNL     1       1.988  -0.951  -1.314  0.00  0.00    +0.192 A 
ENDROOT
BRANCH   2   6
ATOM      6  C   UNL     1      -1.305  -0.837  -2.828  0.00  0.00    +0.019 A 
ATOM      7  C   UNL     1      -2.288  -0.627  -1.860  0.00  0.00    +0.013 A 
ATOM      8  C   UNL     1      -3.619  -0.622  -2.222  0.00  0.00    +0.029 A 
ATOM      9  C   UNL     1      -3.980  -0.826  -3.542  0.00  0.00    +0.106 A 
ATOM     10  C   UNL     1      -3.011  -1.034  -4.507  0.00  0.00    +0.029 A 
ATOM     11  C   UNL     1      -1.676  -1.035  -4.159  0.00  0.00    +0.013 A 
BRANCH   9  12
ATOM     12  S   UNL     1      -5.683  -0.820  -3.996  0.00  0.00    +0.061 S 
ATOM     13  O   UNL     1      -5.786  -1.574  -5.196  0.00  0.00    -0.153 OA
ATOM     14  O   UNL     1      -6.417  -1.147  -2.824  0.00  0.00    -0.153 OA
BRANCH  12  15
ATOM     15  N   UNL     1      -6.081   0.741  -4.383  0.00  0.00    -0.174 NA
ATOM     16  C   UNL     1      -6.576   1.670  -3.356  0.00  0.00    +0.125 C 
ATOM     17  C   UNL     1      -5.749   2.958  -3.426  0.00  0.00    +0.101 C 
ATOM     18  N   UNL     1      -5.775   3.479  -4.800  0.00  0.00    -0.303 NA
ATOM     19  C   UNL     1      -5.146   2.539  -5.737  0.00  0.00    +0.101 C 
ATOM     20  C   UNL     1      -5.942   1.236  -5.761  0.00  0.00    +0.125 C 
ATOM     21  C   UNL     1      -5.139   4.801  -4.874  0.00  0.00    +0.105 C 
ENDBRANCH  12  15
ENDBRANCH   9  12
ENDBRANCH   2   6
BRANCH   1  23
ATOM     22  C   UNL     1      -0.348   0.063   0.772  0.00  0.00    +0.027 C 
ATOM     23  C   UNL     1      -0.125  -1.267   0.050  0.00  0.00    +0.122 C 
ENDBRANCH   1  23
BRANCH   5  24
ATOM     24  S   UNL     1       3.176  -1.110  -0.022  0.00  0.00    -0.077 S 
BRANCH  24  25
ATOM     25  C   UNL     1       4.770  -0.903  -0.863  0.00  0.00    +0.173 C 
BRANCH  25  26
ATOM     26  C   UNL     1       5.887  -1.018   0.142  0.00  0.00    +0.229 C 
ATOM     27  O   UNL     1       5.632  -1.220   1.311  0.00  0.00    -0.275 OA
ATOM     28  N   UNL     1       7.168  -0.896  -0.257  0.00  0.00    -0.267 N 
ATOM     29  C   UNL     1       8.202  -1.003   0.674  0.00  0.00    +0.168 A 
ATOM     30  C   UNL     1       8.053  -1.241   2.058  0.00  0.00    +0.091 A 
ATOM     31  C   UNL     1       9.279  -1.276   2.610  0.00  0.00    +0.136 A 
ATOM     32  O   UNL     1      10.181  -1.070   1.638  0.00  0.00    -0.358 OA
ATOM     33  N   UNL     1       9.481  -0.905   0.418  0.00  0.00    -0.063 NA
ATOM     34  C   UNL     1       9.586  -1.505   4.067  0.00  0.00    +0.089 C 
ATOM     35  H   UNL     1       7.372  -0.734  -1.192  0.00  0.00    +0.156 HD
ENDBRANCH  25  26
ENDBRANCH  24  25
ENDBRANCH   5  24
TORSDOF 7
