REMARK  Name = ZINC35926920
REMARK  6 active torsions:
REMARK  status: ('A' for Active; 'I' for Inactive)
REMARK    1  A    between atoms: C_4  and  C_7
REMARK    2  A    between atoms: C_7  and  N_8
REMARK    3  A    between atoms: N_11  and  C_14
REMARK    4  A    between atoms: C_14  and  C_15
REMARK    5  A    between atoms: N_27  and  C_30
REMARK    6  A    between atoms: C_30  and  C_31
REMARK                            x       y       z     vdW  Elec       q    Type
REMARK                         _______ _______ _______ _____ _____    ______ ____
ROOT
ATOM      1  C   UNL     1       6.850  -3.517   5.098  0.00  0.00    +0.034 A 
ATOM      2  C   UNL     1       7.945  -2.762   5.403  0.00  0.00    +0.091 A 
ATOM      3  C   UNL     1       9.225  -3.308   5.199  0.00  0.00    +0.253 A 
ATOM      4  O   UNL     1      10.226  -2.662   5.461  0.00  0.00    -0.268 OA
ATOM      5  N   UNL     1       9.325  -4.562   4.708  0.00  0.00    -0.295 N 
ATOM      6  H   UNL     1      10.198  -4.959   4.560  0.00  0.00    +0.172 HD
ATOM      7  C   UNL     1       8.197  -5.268   4.423  0.00  0.00    +0.198 A 
ATOM      8  N   UNL     1       7.001  -4.751   4.621  0.00  0.00    -0.223 NA
ATOM      9  N   UNL     1       8.306  -6.539   3.925  0.00  0.00    -0.303 N 
ATOM     10  C   UNL     1       7.080  -7.246   3.504  0.00  0.00    +0.106 C 
ATOM     11  C   UNL     1       7.309  -8.016   2.191  0.00  0.00    +0.000 C 
ATOM     12  C   UNL     1       8.161  -7.182   1.260  0.00  0.00    -0.077 C 
ATOM     13  N   UNL     1       9.565  -7.544   1.437  0.00  0.00    +0.384 N 
ATOM     14  C   UNL     1      10.242  -6.829   2.450  0.00  0.00    -0.059 C 
ATOM     15  C   UNL     1       9.621  -7.139   3.826  0.00  0.00    +0.089 C 
ATOM     16  H   UNL     1       9.616  -8.528   1.654  0.00  0.00    -0.081 HD
ENDROOT
BRANCH   1  17
ATOM     17  C   UNL     1       5.468  -2.955   5.308  0.00  0.00    -0.022 C 
BRANCH  17  21
ATOM     18  N   UNL     1       3.409  -1.288   2.035  0.00  0.00    -0.302 NA
ATOM     19  C   UNL     1       2.696  -2.263   2.873  0.00  0.00    +0.066 C 
ATOM     20  C   UNL     1       3.405  -2.386   4.223  0.00  0.00    -0.063 C 
ATOM     21  N   UNL     1       4.792  -2.820   4.010  0.00  0.00    +0.385 N 
ATOM     22  C   UNL     1       5.498  -1.825   3.192  0.00  0.00    -0.063 C 
ATOM     23  C   UNL     1       4.806  -1.697   1.834  0.00  0.00    +0.066 C 
ATOM     24  H   UNL     1       4.797  -3.710   3.534  0.00  0.00    -0.081 HD
BRANCH  18  25
ATOM     25  C   UNL     1       2.725  -1.100   0.749  0.00  0.00    +0.119 C 
BRANCH  25  29
ATOM     26  C   UNL     1      -1.074   0.739   1.410  0.00  0.00    +0.000 A 
ATOM     27  C   UNL     1       0.045   1.522   1.195  0.00  0.00    +0.000 A 
ATOM     28  C   UNL     1       1.274   0.927   0.981  0.00  0.00    +0.005 A 
ATOM     29  C   UNL     1       1.385  -0.451   0.983  0.00  0.00    -0.033 A 
ATOM     30  C   UNL     1       0.266  -1.234   1.199  0.00  0.00    +0.005 A 
ATOM     31  C   UNL     1      -0.963  -0.639   1.412  0.00  0.00    +0.000 A 
ENDBRANCH  25  29
ENDBRANCH  18  25
ENDBRANCH  17  21
ENDBRANCH   1  17
BRANCH  13  32
ATOM     32  C   UNL     1      10.265  -7.320   0.165  0.00  0.00    -0.036 C 
BRANCH  32  33
ATOM     33  C   UNL     1      11.688  -7.801   0.283  0.00  0.00    -0.027 A 
ATOM     34  C   UNL     1      12.200  -9.027   0.014  0.00  0.00    +0.009 A 
ATOM     35  C   UNL     1      13.553  -9.243   0.197  0.00  0.00    +0.008 A 
ATOM     36  C   UNL     1      14.328  -8.223   0.639  0.00  0.00    +0.045 A 
ATOM     37  S   UNL     1      13.139  -6.902   0.806  0.00  0.00    -0.103 S 
ENDBRANCH  32  33
ENDBRANCH  13  32
TORSDOF 6
