REMARK  Name = ZINC38673066
REMARK  9 active torsions:
REMARK  status: ('A' for Active; 'I' for Inactive)
REMARK    1  A    between atoms: C_1  and  N_2
REMARK    2  A    between atoms: N_5  and  C_8
REMARK    3  A    between atoms: C_8  and  C_10
REMARK    4  A    between atoms: C_8  and  C_28
REMARK    5  A    between atoms: C_10  and  N_11
REMARK    6  A    between atoms: C_12  and  C_14
REMARK    7  A    between atoms: C_16  and  C_24
REMARK    8  A    between atoms: C_18  and  C_20
REMARK    9  A    between atoms: N_37  and  C_38
REMARK                            x       y       z     vdW  Elec       q    Type
REMARK                         _______ _______ _______ _____ _____    ______ ____
ROOT
ATOM      1  C   UNL     1       1.479  -4.094  -0.168  0.00  0.00    +0.104 C 
ENDROOT
BRANCH   1   2
ATOM      2  C   UNL     1       2.208  -4.646   1.030  0.00  0.00    -0.028 A 
ATOM      3  C   UNL     1       3.382  -4.053   1.457  0.00  0.00    +0.007 A 
ATOM      4  C   UNL     1       4.050  -4.560   2.554  0.00  0.00    +0.024 A 
ATOM      5  C   UNL     1       3.543  -5.665   3.228  0.00  0.00    +0.033 A 
ATOM      6  C   UNL     1       2.365  -6.258   2.800  0.00  0.00    -0.026 A 
ATOM      7  C   UNL     1       1.699  -5.741   1.701  0.00  0.00    +0.010 A 
ATOM      8  C   UNL     1       1.780  -7.450   3.512  0.00  0.00    +0.038 C 
ATOM      9  C   UNL     1       2.854  -8.161   4.335  0.00  0.00    +0.024 C 
ATOM     10  C   UNL     1       3.566  -7.128   5.219  0.00  0.00    +0.105 C 
ATOM     11  N   UNL     1       4.238  -6.167   4.333  0.00  0.00    -0.333 N 
ATOM     12  C   UNL     1       5.613  -5.741   4.604  0.00  0.00    +0.129 C 
ENDBRANCH   1   2
BRANCH   1  17
ATOM     13  C   UNL     1       0.459   1.446  -0.030  0.00  0.00    -0.096 C 
ATOM     14  N   UNL     1       0.358  -0.019  -0.062  0.00  0.00    +0.379 N 
ATOM     15  C   UNL     1       1.002  -0.527  -1.281  0.00  0.00    -0.064 C 
ATOM     16  C   UNL     1       0.881  -2.052  -1.325  0.00  0.00    +0.066 C 
ATOM     17  N   UNL     1       1.525  -2.626  -0.135  0.00  0.00    -0.297 NA
ATOM     18  C   UNL     1       0.906  -2.107   1.094  0.00  0.00    +0.066 C 
ATOM     19  C   UNL     1       1.027  -0.582   1.118  0.00  0.00    -0.064 C 
ATOM     20  H   UNL     1      -0.614  -0.289  -0.059  0.00  0.00    -0.082 HD
ENDBRANCH   1  17
BRANCH   1  21
ATOM     21  C   UNL     1       2.149  -4.596  -1.449  0.00  0.00    +0.128 C 
BRANCH  21  22
ATOM     22  N   UNL     1       2.031  -6.054  -1.522  0.00  0.00    -0.310 N 
ATOM     23  C   UNL     1       2.650  -6.732  -2.509  0.00  0.00    +0.244 C 
ATOM     24  O   UNL     1       3.305  -6.132  -3.339  0.00  0.00    -0.270 OA
ATOM     25  H   UNL     1       1.509  -6.533  -0.859  0.00  0.00    +0.149 HD
BRANCH  23  26
ATOM     26  C   UNL     1       2.531  -8.204  -2.583  0.00  0.00    +0.038 A 
ATOM     27  C   UNL     1       1.775  -8.894  -1.634  0.00  0.00    +0.025 A 
ATOM     28  C   UNL     1       1.669 -10.268  -1.709  0.00  0.00    +0.056 A 
ATOM     29  C   UNL     1       2.309 -10.960  -2.721  0.00  0.00    +0.024 A 
ATOM     30  C   UNL     1       3.061 -10.282  -3.664  0.00  0.00    +0.056 A 
ATOM     31  C   UNL     1       3.171  -8.908  -3.604  0.00  0.00    +0.025 A 
BRANCH  30  32
ATOM     32  C   UNL     1       3.756 -11.045  -4.762  0.00  0.00    +0.417 C 
ATOM     33  F   UNL     1       2.902 -11.157  -5.864  0.00  0.00    -0.166 F 
ATOM     34  F   UNL     1       4.918 -10.364  -5.140  0.00  0.00    -0.166 F 
ATOM     35  F   UNL     1       4.093 -12.322  -4.301  0.00  0.00    -0.166 F 
ENDBRANCH  30  32
BRANCH  28  36
ATOM     36  C   UNL     1       0.853 -11.015  -0.686  0.00  0.00    +0.417 C 
ATOM     37  F   UNL     1       0.307 -10.108   0.229  0.00  0.00    -0.166 F 
ATOM     38  F   UNL     1      -0.179 -11.708  -1.328  0.00  0.00    -0.166 F 
ATOM     39  F   UNL     1       1.673 -11.923  -0.008  0.00  0.00    -0.166 F 
ENDBRANCH  28  36
ENDBRANCH  23  26
ENDBRANCH  21  22
ENDBRANCH   1  21
TORSDOF 7
