REMARK  Name = ZINC03051558
REMARK  12 active torsions:
REMARK  status: ('A' for Active; 'I' for Inactive)
REMARK    1  A    between atoms: C_1  and  C_2
REMARK    2  A    between atoms: C_5  and  N_9
REMARK    3  A    between atoms: N_9  and  C_10
REMARK    4  A    between atoms: C_10  and  N_12
REMARK    5  A    between atoms: N_12  and  C_13
REMARK    6  A    between atoms: N_12  and  C_18
REMARK    7  A    between atoms: C_13  and  C_14
REMARK    8  A    between atoms: C_14  and  C_15
REMARK    9  A    between atoms: C_15  and  C_16
REMARK   10  A    between atoms: C_15  and  C_17
REMARK   11  A    between atoms: C_18  and  C_20
REMARK   12  A    between atoms: C_18  and  C_21
REMARK                            x       y       z     vdW  Elec       q    Type
REMARK                         _______ _______ _______ _____ _____    ______ ____
ROOT
ATOM      1  N   UNL     1       3.608  -0.881   0.154  0.00  0.00    -0.306 N 
ENDROOT
BRANCH   1   2
ATOM      2  C   UNL     1       2.520  -0.117   0.379  0.00  0.00    +0.138 C 
ATOM      3  S   UNL     1       0.986  -0.850   0.577  0.00  0.00    -0.018 S 
BRANCH   2   4
ATOM      4  N   UNL     1       2.641   1.223   0.448  0.00  0.00    -0.296 N 
ATOM      5  H   UNL     1       3.503   1.641   0.296  0.00  0.00    +0.154 HD
BRANCH   4  10
ATOM      6  C   UNL     1      -1.897   4.421   1.624  0.00  0.00    +0.044 C 
ATOM      7  C   UNL     1      -0.691   3.572   1.311  0.00  0.00    -0.049 A 
ATOM      8  C   UNL     1      -0.506   2.369   1.967  0.00  0.00    +0.005 A 
ATOM      9  C   UNL     1       0.600   1.591   1.687  0.00  0.00    +0.025 A 
ATOM     10  C   UNL     1       1.522   2.013   0.738  0.00  0.00    +0.051 A 
ATOM     11  C   UNL     1       1.331   3.220   0.076  0.00  0.00    +0.062 A 
ATOM     12  C   UNL     1       0.224   3.996   0.365  0.00  0.00    +0.025 A 
ATOM     13 CL   UNL     1       2.479   3.751  -1.112  0.00  0.00    -0.082 Cl
ENDBRANCH   4  10
ENDBRANCH   2   4
ENDBRANCH   1   2
BRANCH   1  14
ATOM     14  C   UNL     1       3.477  -2.338   0.079  0.00  0.00    +0.102 C 
ATOM     15  C   UNL     1       4.866  -2.970  -0.027  0.00  0.00    +0.033 C 
BRANCH  14  16
ATOM     16  C   UNL     1       2.663  -2.708  -1.134  0.00  0.00    -0.024 A 
ATOM     17  C   UNL     1       2.893  -2.096  -2.357  0.00  0.00    +0.025 A 
ATOM     18  C   UNL     1       2.129  -2.463  -3.448  0.00  0.00    +0.111 A 
ATOM     19  N   UNL     1       1.185  -3.377  -3.334  0.00  0.00    -0.263 NA
ATOM     20  C   UNL     1       0.935  -3.976  -2.186  0.00  0.00    +0.111 A 
ATOM     21  C   UNL     1       1.662  -3.663  -1.053  0.00  0.00    +0.025 A 
ENDBRANCH  14  16
ENDBRANCH   1  14
BRANCH   1  22
ATOM     22  C   UNL     1       4.921  -0.254  -0.016  0.00  0.00    +0.107 C 
BRANCH  22  23
ATOM     23  C   UNL     1       5.558  -0.024   1.356  0.00  0.00    +0.022 C 
BRANCH  23  24
ATOM     24  C   UNL     1       6.929   0.631   1.179  0.00  0.00    -0.016 C 
ATOM     25  C   UNL     1       6.754   2.026   0.576  0.00  0.00    +0.007 C 
ATOM     26  C   UNL     1       7.618   0.747   2.540  0.00  0.00    +0.007 C 
ENDBRANCH  23  24
ENDBRANCH  22  23
ENDBRANCH   1  22
TORSDOF 8
