REMARK  Name = ZINC59170643
REMARK  12 active torsions:
REMARK  status: ('A' for Active; 'I' for Inactive)
REMARK    1  A    between atoms: C_1  and  C_2
REMARK    2  A    between atoms: C_2  and  C_3
REMARK    3  A    between atoms: C_8  and  N_9
REMARK    4  A    between atoms: C_10  and  C_12
REMARK    5  A    between atoms: C_16  and  C_34
REMARK    6  A    between atoms: C_18  and  O_33
REMARK    7  A    between atoms: N_22  and  C_23
REMARK    8  A    between atoms: C_26  and  S_29
REMARK    9  A    between atoms: S_29  and  N_32
REMARK   10  A    between atoms: C_34  and  C_35
REMARK   11  A    between atoms: C_34  and  C_36
REMARK   12  A    between atoms: C_34  and  C_37
REMARK                            x       y       z     vdW  Elec       q    Type
REMARK                         _______ _______ _______ _____ _____    ______ ____
ROOT
ATOM      1  C   UNL     1       4.896  -0.285   1.144  0.00  0.00    +0.098 A 
ATOM      2  C   UNL     1       6.282  -0.383   1.140  0.00  0.00    +0.030 A 
ATOM      3  C   UNL     1       6.983  -0.053   2.383  0.00  0.00    +0.022 A 
ATOM      4  C   UNL     1       8.371   0.133   2.396  0.00  0.00    +0.016 A 
ATOM      5  C   UNL     1       9.005   0.446   3.565  0.00  0.00    -0.038 A 
ATOM      6  C   UNL     1       8.286   0.581   4.744  0.00  0.00    +0.053 A 
ATOM      7  C   UNL     1       6.913   0.398   4.756  0.00  0.00    +0.160 A 
ATOM      8  C   UNL     1       6.249   0.078   3.576  0.00  0.00    +0.179 A 
ATOM      9  O   UNL     1       4.907  -0.112   3.567  0.00  0.00    -0.435 OA
ATOM     10  C   UNL     1       4.256   0.148   2.402  0.00  0.00    +0.212 A 
ATOM     11  N   UNL     1       3.092   0.761   2.394  0.00  0.00    -0.325 N 
ATOM     12  H   UNL     1       2.697   1.040   1.554  0.00  0.00    +0.169 HD
ENDROOT
BRANCH  11  13
ATOM     13  C   UNL     1       2.439   1.004   3.571  0.00  0.00    +0.042 A 
ATOM     14  C   UNL     1       2.350   0.005   4.544  0.00  0.00    +0.027 A 
ATOM     15  C   UNL     1       1.690   0.258   5.728  0.00  0.00    +0.030 A 
ATOM     16  C   UNL     1       1.118   1.497   5.955  0.00  0.00    +0.105 A 
ATOM     17  C   UNL     1       1.202   2.491   4.996  0.00  0.00    +0.030 A 
ATOM     18  C   UNL     1       1.864   2.255   3.809  0.00  0.00    +0.027 A 
BRANCH  16  19
ATOM     19  S   UNL     1       0.276   1.810   7.471  0.00  0.00    +0.056 S 
ATOM     20  O   UNL     1      -0.642   2.864   7.216  0.00  0.00    -0.153 OA
ATOM     21  O   UNL     1      -0.135   0.547   7.975  0.00  0.00    -0.153 OA
BRANCH  19  22
ATOM     22  N   UNL     1       1.395   2.404   8.538  0.00  0.00    -0.204 NA
ATOM     23  H   UNL     1       2.318   2.515   8.261  0.00  0.00    +0.144 HD
ATOM     24  H   UNL     1       1.127   2.641   9.439  0.00  0.00    +0.144 HD
ENDBRANCH  19  22
ENDBRANCH  16  19
ENDBRANCH  11  13
BRANCH   1  26
ATOM     25  N   UNL     1       2.755  -0.596   0.010  0.00  0.00    -0.281 N 
ATOM     26  C   UNL     1       4.101  -0.594  -0.056  0.00  0.00    +0.253 C 
ATOM     27  O   UNL     1       4.659  -0.848  -1.107  0.00  0.00    -0.270 OA
ATOM     28  H   UNL     1       2.309  -0.347   0.835  0.00  0.00    +0.155 HD
BRANCH  25  34
ATOM     29  C   UNL     1       0.689  -1.385  -0.959  0.00  0.00    -0.026 A 
ATOM     30  C   UNL     1      -0.056  -1.734  -2.069  0.00  0.00    +0.005 A 
ATOM     31  C   UNL     1       0.506  -1.661  -3.331  0.00  0.00    +0.000 A 
ATOM     32  C   UNL     1       1.814  -1.240  -3.485  0.00  0.00    +0.002 A 
ATOM     33  C   UNL     1       2.564  -0.890  -2.380  0.00  0.00    +0.023 A 
ATOM     34  C   UNL     1       2.001  -0.956  -1.112  0.00  0.00    +0.037 A 
BRANCH  29  36
ATOM     35  C   UNL     1      -0.482  -0.093   0.804  0.00  0.00    +0.009 C 
ATOM     36  C   UNL     1       0.076  -1.464   0.415  0.00  0.00    +0.033 C 
ENDBRANCH  29  36
ENDBRANCH  25  34
ENDBRANCH   1  26
BRANCH   5  37
ATOM     37  C   UNL     1      10.498   0.646   3.575  0.00  0.00    -0.013 C 
ATOM     38  C   UNL     1      10.865   1.794   2.632  0.00  0.00    +0.015 C 
ATOM     39  C   UNL     1      10.958   0.985   4.994  0.00  0.00    +0.015 C 
ATOM     40  C   UNL     1      11.188  -0.638   3.108  0.00  0.00    +0.015 C 
ENDBRANCH   5  37
BRANCH   7  41
ATOM     41  O   UNL     1       6.218   0.531   5.917  0.00  0.00    -0.503 OA
ATOM     42  H   UNL     1       5.901   1.429   6.085  0.00  0.00    +0.292 HD
ENDBRANCH   7  41
TORSDOF 8
