REMARK  Name = ZINC35777888
REMARK  17 active torsions:
REMARK  status: ('A' for Active; 'I' for Inactive)
REMARK    1  A    between atoms: C_1  and  C_2
REMARK    2  A    between atoms: C_3  and  C_22
REMARK    3  A    between atoms: C_4  and  O_13
REMARK    4  A    between atoms: N_5  and  C_7
REMARK    5  A    between atoms: O_13  and  C_14
REMARK    6  A    between atoms: C_17  and  O_20
REMARK    7  A    between atoms: O_20  and  C_21
REMARK    8  A    between atoms: C_22  and  N_23
REMARK    9  A    between atoms: N_23  and  C_24
REMARK   10  A    between atoms: N_23  and  C_36
REMARK   11  A    between atoms: C_24  and  C_25
REMARK   12  A    between atoms: C_25  and  C_27
REMARK   13  A    between atoms: C_25  and  O_35
REMARK   14  A    between atoms: C_27  and  O_28
REMARK   15  A    between atoms: O_28  and  C_29
REMARK   16  A    between atoms: C_36  and  C_37
REMARK   17  A    between atoms: C_36  and  C_38
REMARK                            x       y       z     vdW  Elec       q    Type
REMARK                         _______ _______ _______ _____ _____    ______ ____
ROOT
ATOM      1  C   UNL     1       2.501   2.915  -0.692  0.00  0.00    +0.068 C 
ATOM      2  C   UNL     1       1.645   1.759  -0.240  0.00  0.00    +0.065 A 
ATOM      3  C   UNL     1       0.961   0.873  -1.077  0.00  0.00    +0.021 A 
ATOM      4  C   UNL     1       0.307  -0.024  -0.292  0.00  0.00    +0.225 A 
ATOM      5  N   UNL     1       0.577   0.294   1.003  0.00  0.00    -0.200 N 
ATOM      6  N   UNL     1       1.421   1.412   1.002  0.00  0.00    -0.168 NA
ENDROOT
BRANCH   5   7
ATOM      7  C   UNL     1       0.098  -0.378   2.136  0.00  0.00    +0.069 A 
ATOM      8  C   UNL     1      -1.218  -0.819   2.179  0.00  0.00    +0.028 A 
ATOM      9  C   UNL     1      -1.686  -1.482   3.297  0.00  0.00    +0.002 A 
ATOM     10  C   UNL     1      -0.846  -1.706   4.372  0.00  0.00    +0.000 A 
ATOM     11  C   UNL     1       0.465  -1.268   4.332  0.00  0.00    +0.002 A 
ATOM     12  C   UNL     1       0.941  -0.610   3.215  0.00  0.00    +0.028 A 
ENDBRANCH   5   7
BRANCH   4  13
ATOM     13  O   UNL     1      -0.472  -1.049  -0.721  0.00  0.00    -0.438 OA
BRANCH  13  14
ATOM     14  C   UNL     1      -1.779  -0.788  -0.989  0.00  0.00    +0.131 A 
ATOM     15  C   UNL     1      -2.296   0.478  -0.758  0.00  0.00    +0.050 A 
ATOM     16  C   UNL     1      -3.623   0.744  -1.031  0.00  0.00    +0.049 A 
ATOM     17  C   UNL     1      -4.441  -0.257  -1.535  0.00  0.00    +0.120 A 
ATOM     18  C   UNL     1      -3.925  -1.524  -1.766  0.00  0.00    +0.049 A 
ATOM     19  C   UNL     1      -2.596  -1.788  -1.499  0.00  0.00    +0.050 A 
BRANCH  17  20
ATOM     20  O   UNL     1      -5.748   0.004  -1.803  0.00  0.00    -0.495 OA
ATOM     21  C   UNL     1      -6.532  -1.073  -2.321  0.00  0.00    +0.277 C 
ENDBRANCH  17  20
ENDBRANCH  13  14
ENDBRANCH   4  13
BRANCH   3  22
ATOM     22  C   UNL     1       0.949   0.906  -2.584  0.00  0.00    -0.035 C 
BRANCH  22  23
ATOM     23  N   UNL     1       2.312   0.694  -3.089  0.00  0.00    +0.386 N 
ATOM     24  H   UNL     1       2.947   1.318  -2.614  0.00  0.00    -0.081 HD
BRANCH  23  25
ATOM     25  C   UNL     1       2.716  -0.696  -2.842  0.00  0.00    -0.074 C 
ATOM     26  C   UNL     1       2.867  -0.924  -1.337  0.00  0.00    -0.014 C 
ATOM     27  C   UNL     1       1.649  -1.643  -3.396  0.00  0.00    -0.014 C 
ENDBRANCH  23  25
BRANCH  23  28
ATOM     28  C   UNL     1       2.347   0.966  -4.532  0.00  0.00    -0.043 C 
BRANCH  28  29
ATOM     29  C   UNL     1       3.797   0.938  -5.022  0.00  0.00    +0.135 C 
BRANCH  29  30
ATOM     30  O   UNL     1       4.303  -0.396  -4.937  0.00  0.00    -0.390 OA
ATOM     31  H   UNL     1       3.862  -1.022  -5.529  0.00  0.00    +0.210 HD
ENDBRANCH  29  30
BRANCH  29  32
ATOM     32  C   UNL     1       3.854   1.414  -6.474  0.00  0.00    +0.258 C 
BRANCH  32  33
ATOM     33  O   UNL     1       5.217   1.499  -6.894  0.00  0.00    -0.489 OA
BRANCH  33  34
ATOM     34  C   UNL     1       5.445   1.910  -8.170  0.00  0.00    +0.121 A 
ATOM     35  C   UNL     1       4.379   2.230  -8.998  0.00  0.00    +0.045 A 
ATOM     36  C   UNL     1       4.614   2.648 -10.293  0.00  0.00    +0.004 A 
ATOM     37  C   UNL     1       5.910   2.747 -10.765  0.00  0.00    +0.000 A 
ATOM     38  C   UNL     1       6.974   2.428  -9.942  0.00  0.00    +0.004 A 
ATOM     39  C   UNL     1       6.745   2.016  -8.644  0.00  0.00    +0.045 A 
ENDBRANCH  33  34
ENDBRANCH  32  33
ENDBRANCH  29  32
ENDBRANCH  28  29
ENDBRANCH  23  28
ENDBRANCH  22  23
ENDBRANCH   3  22
TORSDOF 13
