REMARK  Name = ZINC60216131
REMARK  11 active torsions:
REMARK  status: ('A' for Active; 'I' for Inactive)
REMARK    1  A    between atoms: C_1  and  C_2
REMARK    2  A    between atoms: C_2  and  C_3
REMARK    3  A    between atoms: C_4  and  C_23
REMARK    4  A    between atoms: C_6  and  C_8
REMARK    5  A    between atoms: N_10  and  C_11
REMARK    6  A    between atoms: N_10  and  C_12
REMARK    7  A    between atoms: C_12  and  C_13
REMARK    8  A    between atoms: C_14  and  C_22
REMARK    9  A    between atoms: C_15  and  O_20
REMARK   10  A    between atoms: C_16  and  C_19
REMARK   11  A    between atoms: O_20  and  C_21
REMARK                            x       y       z     vdW  Elec       q    Type
REMARK                         _______ _______ _______ _____ _____    ______ ____
ROOT
ATOM      1  C   UNL     1       3.598  -1.588   3.979  0.00  0.00    +0.253 C 
ATOM      2  O   UNL     1       3.436  -1.877   5.150  0.00  0.00    -0.269 OA
ATOM      3  N   UNL     1       4.743  -1.926   3.354  0.00  0.00    -0.294 N 
ATOM      4  C   UNL     1       4.963  -1.527   1.961  0.00  0.00    +0.132 C 
ENDROOT
BRANCH   1   8
ATOM      5  C   UNL     1       1.036   0.447   1.538  0.00  0.00    -0.007 A 
ATOM      6  C   UNL     1       0.493   0.120   2.737  0.00  0.00    -0.040 A 
ATOM      7  C   UNL     1       1.256  -0.568   3.650  0.00  0.00    +0.024 A 
ATOM      8  C   UNL     1       2.547  -0.873   3.248  0.00  0.00    +0.075 A 
ATOM      9  S   UNL     1       2.595  -0.174   1.609  0.00  0.00    -0.088 S 
ATOM     10  C   UNL     1      -0.926   0.506   3.064  0.00  0.00    +0.044 C 
BRANCH   5  12
ATOM     11  C   UNL     1       0.639   2.692   0.563  0.00  0.00    +0.009 C 
ATOM     12  C   UNL     1       0.387   1.192   0.400  0.00  0.00    +0.039 C 
ENDBRANCH   5  12
ENDBRANCH   1   8
BRANCH   3  13
ATOM     13  C   UNL     1       5.768  -2.693   4.066  0.00  0.00    +0.163 C 
BRANCH  13  14
ATOM     14  C   UNL     1       5.521  -4.166   3.869  0.00  0.00    +0.065 A 
ATOM     15  C   UNL     1       4.712  -4.847   4.756  0.00  0.00    +0.014 A 
ATOM     16  C   UNL     1       4.491  -6.208   4.563  0.00  0.00    +0.129 A 
ATOM     17  C   UNL     1       5.100  -6.829   3.475  0.00  0.00    +0.010 A 
ATOM     18  C   UNL     1       5.895  -6.079   2.634  0.00  0.00    +0.118 A 
ATOM     19  N   UNL     1       6.077  -4.789   2.846  0.00  0.00    -0.258 NA
ATOM     20  C   UNL     1       4.894  -8.300   3.222  0.00  0.00    +0.049 C 
ATOM     21  C   UNL     1       4.077  -4.126   5.917  0.00  0.00    +0.049 C 
BRANCH  16  22
ATOM     22  O   UNL     1       3.702  -6.912   5.414  0.00  0.00    -0.494 OA
ATOM     23  C   UNL     1       2.310  -6.982   5.101  0.00  0.00    +0.277 C 
ENDBRANCH  16  22
ENDBRANCH  13  14
ENDBRANCH   3  13
TORSDOF 5
