REMARK  Name = ZINC22524158
REMARK  7 active torsions:
REMARK  status: ('A' for Active; 'I' for Inactive)
REMARK    1  A    between atoms: C_1  and  C_2
REMARK    2  A    between atoms: N_6  and  C_7
REMARK    3  A    between atoms: C_10  and  C_13
REMARK    4  A    between atoms: C_13  and  N_14
REMARK    5  A    between atoms: C_15  and  C_17
REMARK    6  A    between atoms: N_20  and  S_28
REMARK    7  A    between atoms: S_28  and  C_31
REMARK                            x       y       z     vdW  Elec       q    Type
REMARK                         _______ _______ _______ _____ _____    ______ ____
ROOT
ATOM      1  C   UNL     1       4.564   1.502  -0.650  0.00  0.00    +0.277 C 
ATOM      2  C   UNL     1       4.847   0.166   0.050  0.00  0.00    +0.186 C 
ATOM      3  N   UNL     1       3.625  -0.652  -0.042  0.00  0.00    -0.195 N 
ATOM      4  C   UNL     1       2.394  -0.013   0.176  0.00  0.00    +0.093 A 
ATOM      5  C   UNL     1       1.248  -0.764   0.382  0.00  0.00    +0.028 A 
ATOM      6  C   UNL     1       0.037  -0.130   0.593  0.00  0.00    +0.002 A 
ATOM      7  C   UNL     1      -0.030   1.251   0.597  0.00  0.00    +0.004 A 
ATOM      8  C   UNL     1       1.111   2.005   0.392  0.00  0.00    +0.047 A 
ATOM      9  C   UNL     1       2.329   1.378   0.181  0.00  0.00    +0.144 A 
ATOM     10  O   UNL     1       3.446   2.128  -0.015  0.00  0.00    -0.476 OA
ENDROOT
BRANCH   1  12
ATOM     11  N   UNL     1       6.926   2.048  -1.144  0.00  0.00    -0.308 N 
ATOM     12  C   UNL     1       5.773   2.396  -0.539  0.00  0.00    +0.256 C 
ATOM     13  O   UNL     1       5.708   3.428   0.095  0.00  0.00    -0.272 OA
ATOM     14  H   UNL     1       6.984   1.112  -1.719  0.00  0.00    +0.149 HD
BRANCH  11  15
ATOM     15  C   UNL     1       8.101   2.917  -1.037  0.00  0.00    +0.139 C 
BRANCH  15  19
ATOM     16  C   UNL     1      11.358   1.182  -3.192  0.00  0.00    +0.048 A 
ATOM     17  C   UNL     1      10.485   2.051  -3.832  0.00  0.00    +0.026 A 
ATOM     18  C   UNL     1       9.433   2.610  -3.133  0.00  0.00    +0.007 A 
ATOM     19  C   UNL     1       9.249   2.305  -1.797  0.00  0.00    -0.030 A 
ATOM     20  C   UNL     1      10.120   1.444  -1.155  0.00  0.00    +0.007 A 
ATOM     21  C   UNL     1      11.170   0.877  -1.851  0.00  0.00    +0.026 A 
BRANCH  16  27
ATOM     22  C   UNL     1      14.281   1.185  -2.243  0.00  0.00    +0.084 C 
ATOM     23  C   UNL     1      13.729   0.594  -3.515  0.00  0.00    +0.088 A 
ATOM     24  N   UNL     1      14.423  -0.026  -4.431  0.00  0.00    -0.350 N 
ATOM     25  C   UNL     1      13.607  -0.411  -5.422  0.00  0.00    +0.102 A 
ATOM     26  C   UNL     1      12.356  -0.023  -5.112  0.00  0.00    +0.110 A 
ATOM     27  N   UNL     1      12.427   0.614  -3.899  0.00  0.00    -0.305 N 
ATOM     28  H   UNL     1      15.508  -0.156  -4.304  0.00  0.00    +0.166 HD
ENDBRANCH  16  27
ENDBRANCH  15  19
ENDBRANCH  11  15
ENDBRANCH   1  12
BRANCH   3  29
ATOM     29  S   UNL     1       3.700  -2.269  -0.391  0.00  0.00    +0.075 S 
ATOM     30  O   UNL     1       2.484  -2.600  -1.047  0.00  0.00    -0.150 OA
ATOM     31  O   UNL     1       4.972  -2.498  -0.983  0.00  0.00    -0.150 OA
BRANCH  29  32
ATOM     32  C   UNL     1       3.696  -3.134   1.144  0.00  0.00    +0.109 A 
ATOM     33  C   UNL     1       4.891  -3.429   1.774  0.00  0.00    +0.030 A 
ATOM     34  C   UNL     1       4.888  -4.103   2.981  0.00  0.00    +0.022 A 
ATOM     35  C   UNL     1       3.690  -4.491   3.553  0.00  0.00    +0.041 A 
ATOM     36  C   UNL     1       2.495  -4.201   2.920  0.00  0.00    +0.022 A 
ATOM     37  C   UNL     1       2.499  -3.522   1.715  0.00  0.00    +0.030 A 
ATOM     38 CL   UNL     1       3.687  -5.344   5.065  0.00  0.00    -0.084 Cl
ENDBRANCH  29  32
ENDBRANCH   3  29
TORSDOF 6
