REMARK  Name = ZINC55333672
REMARK  8 active torsions:
REMARK  status: ('A' for Active; 'I' for Inactive)
REMARK    1  A    between atoms: C_1  and  C_2
REMARK    2  A    between atoms: C_2  and  C_3
REMARK    3  A    between atoms: C_3  and  C_4
REMARK    4  A    between atoms: C_4  and  C_5
REMARK    5  A    between atoms: C_8  and  C_11
REMARK    6  A    between atoms: N_13  and  C_14
REMARK    7  A    between atoms: C_14  and  C_15
REMARK    8  A    between atoms: C_18  and  N_21
REMARK                            x       y       z     vdW  Elec       q    Type
REMARK                         _______ _______ _______ _____ _____    ______ ____
ROOT
ATOM      1  C   UNL     1       0.064  -4.764  -5.145  0.00  0.00    +0.216 C 
ATOM      2  O   UNL     1      -0.910  -4.055  -5.002  0.00  0.00    -0.276 OA
ATOM      3  N   UNL     1      -0.058  -6.103  -5.052  0.00  0.00    -0.311 N 
ATOM      4  H   UNL     1       0.721  -6.670  -5.167  0.00  0.00    +0.149 HD
ENDROOT
BRANCH   1   8
ATOM      5  C   UNL     1       1.726  -2.496  -3.028  0.00  0.00    -0.011 C 
ATOM      6  C   UNL     1       0.747  -2.112  -4.139  0.00  0.00    +0.004 C 
ATOM      7  C   UNL     1       1.272  -2.625  -5.482  0.00  0.00    +0.013 C 
ATOM      8  C   UNL     1       1.410  -4.148  -5.427  0.00  0.00    +0.075 C 
ATOM      9  C   UNL     1       2.389  -4.532  -4.316  0.00  0.00    +0.013 C 
ATOM     10  C   UNL     1       1.864  -4.019  -2.974  0.00  0.00    +0.004 C 
BRANCH   5  11
ATOM     11  C   UNL     1       1.201  -1.983  -1.686  0.00  0.00    +0.003 C 
BRANCH  11  12
ATOM     12  C   UNL     1       1.182  -0.453  -1.697  0.00  0.00    +0.000 C 
BRANCH  12  14
ATOM     13  C   UNL     1       0.637   1.590  -0.366  0.00  0.00    +0.004 C 
ATOM     14  C   UNL     1       0.657   0.060  -0.355  0.00  0.00    -0.003 C 
ENDBRANCH  12  14
ENDBRANCH  11  12
ENDBRANCH   5  11
ENDBRANCH   1   8
BRANCH   3  15
ATOM     15  C   UNL     1      -1.367  -6.702  -4.779  0.00  0.00    +0.139 C 
BRANCH  15  16
ATOM     16  C   UNL     1      -1.231  -8.202  -4.725  0.00  0.00    -0.030 A 
ATOM     17  C   UNL     1      -1.381  -8.950  -5.878  0.00  0.00    +0.007 A 
ATOM     18  C   UNL     1      -1.258 -10.325  -5.832  0.00  0.00    +0.023 A 
ATOM     19  C   UNL     1      -0.982 -10.956  -4.626  0.00  0.00    +0.035 A 
ATOM     20  C   UNL     1      -0.832 -10.202  -3.470  0.00  0.00    +0.023 A 
ATOM     21  C   UNL     1      -0.951  -8.827  -3.523  0.00  0.00    +0.007 A 
BRANCH  19  22
ATOM     22  N   UNL     1      -0.857 -12.349  -4.576  0.00  0.00    -0.270 N 
ATOM     23  C   UNL     1      -0.342 -13.018  -5.627  0.00  0.00    +0.301 C 
ATOM     24  O   UNL     1       0.103 -12.405  -6.579  0.00  0.00    -0.253 OA
ATOM     25  N   UNL     1      -0.319 -14.365  -5.623  0.00  0.00    -0.313 N 
ATOM     26  H   UNL     1      -1.140 -12.834  -3.785  0.00  0.00    +0.156 HD
ATOM     27  H   UNL     1      -0.674 -14.854  -4.864  0.00  0.00    +0.146 HD
ATOM     28  H   UNL     1       0.051 -14.846  -6.380  0.00  0.00    +0.146 HD
ENDBRANCH  19  22
ENDBRANCH  15  16
ENDBRANCH   3  15
TORSDOF 7
