REMARK  Name = ZINC64414522
REMARK  8 active torsions:
REMARK  status: ('A' for Active; 'I' for Inactive)
REMARK    1  A    between atoms: C_1  and  N_2
REMARK    2  A    between atoms: C_10  and  C_12
REMARK    3  A    between atoms: C_15  and  C_18
REMARK    4  A    between atoms: C_18  and  N_19
REMARK    5  A    between atoms: C_20  and  C_22
REMARK    6  A    between atoms: C_25  and  C_28
REMARK    7  A    between atoms: C_33  and  O_34
REMARK    8  A    between atoms: O_34  and  C_35
REMARK                            x       y       z     vdW  Elec       q    Type
REMARK                         _______ _______ _______ _____ _____    ______ ____
ROOT
ATOM      1  C   UNL     1       1.363   0.673   1.940  0.00  0.00    +0.026 C 
ATOM      2  C   UNL     1       2.303   0.144   3.025  0.00  0.00    +0.007 C 
ATOM      3  C   UNL     1       2.853   1.317   3.839  0.00  0.00    +0.005 C 
ATOM      4  C   UNL     1       3.622   2.263   2.915  0.00  0.00    +0.006 C 
ATOM      5  C   UNL     1       2.683   2.792   1.829  0.00  0.00    +0.005 C 
ATOM      6  C   UNL     1       2.133   1.619   1.015  0.00  0.00    +0.007 C 
ENDROOT
BRANCH   1  16
ATOM      7  C   UNL     1      -0.805   1.259   0.839  0.00  0.00    +0.108 C 
ATOM      8  N   UNL     1      -0.464  -0.128   0.495  0.00  0.00    -0.379 NA
ATOM      9  C   UNL     1      -1.440  -0.998   0.995  0.00  0.00    +0.036 A 
ATOM     10  C   UNL     1      -2.797  -1.070   0.724  0.00  0.00    +0.023 A 
ATOM     11  C   UNL     1      -3.580  -2.025   1.344  0.00  0.00    +0.002 A 
ATOM     12  C   UNL     1      -3.012  -2.913   2.239  0.00  0.00    +0.002 A 
ATOM     13  C   UNL     1      -1.662  -2.846   2.514  0.00  0.00    +0.025 A 
ATOM     14  C   UNL     1      -0.868  -1.886   1.891  0.00  0.00    +0.048 A 
ATOM     15  N   UNL     1       0.502  -1.630   2.010  0.00  0.00    -0.325 N 
ATOM     16  C   UNL     1       0.814  -0.500   1.126  0.00  0.00    +0.145 C 
ATOM     17  H   UNL     1       1.129  -2.109   2.573  0.00  0.00    +0.148 HD
ATOM     18  H   UNL     1      -0.394  -0.227  -0.507  0.00  0.00    +0.128 HD
ENDBRANCH   1  16
BRANCH   4  19
ATOM     19  C   UNL     1       4.172   3.436   3.729  0.00  0.00    +0.107 C 
BRANCH  19  20
ATOM     20  N   UNL     1       5.008   4.278   2.869  0.00  0.00    -0.313 N 
ATOM     21  C   UNL     1       5.602   5.377   3.374  0.00  0.00    +0.243 C 
ATOM     22  O   UNL     1       5.445   5.669   4.541  0.00  0.00    -0.273 OA
ATOM     23  H   UNL     1       5.134   4.044   1.936  0.00  0.00    +0.149 HD
BRANCH  21  24
ATOM     24  C   UNL     1       6.462   6.243   2.490  0.00  0.00    +0.238 C 
ATOM     25  C   UNL     1       7.862   5.667   2.374  0.00  0.00    +0.041 C 
ATOM     26  C   UNL     1       8.650   6.628   2.894  0.00  0.00    +0.095 C 
ATOM     27  N   UNL     1       7.902   7.688   3.299  0.00  0.00    -0.153 NA
ATOM     28  N   UNL     1       6.686   7.559   3.111  0.00  0.00    -0.170 NA
BRANCH  26  29
ATOM     29  C   UNL     1      10.126   6.541   3.009  0.00  0.00    +0.043 A 
ATOM     30  C   UNL     1      10.848   7.593   3.570  0.00  0.00    +0.014 A 
ATOM     31  C   UNL     1      12.221   7.507   3.675  0.00  0.00    +0.001 A 
ATOM     32  C   UNL     1      12.885   6.380   3.224  0.00  0.00    +0.004 A 
ATOM     33  C   UNL     1      12.180   5.331   2.666  0.00  0.00    +0.046 A 
ATOM     34  C   UNL     1      10.800   5.401   2.560  0.00  0.00    +0.129 A 
BRANCH  34  35
ATOM     35  O   UNL     1      10.105   4.369   2.016  0.00  0.00    -0.494 OA
ATOM     36  C   UNL     1      10.860   3.237   1.579  0.00  0.00    +0.277 C 
ENDBRANCH  34  35
ENDBRANCH  26  29
ENDBRANCH  21  24
ENDBRANCH  19  20
ENDBRANCH   4  19
TORSDOF 6
