REMARK  Name = ZINC00856387
REMARK  10 active torsions:
REMARK  status: ('A' for Active; 'I' for Inactive)
REMARK    1  A    between atoms: C_1  and  C_2
REMARK    2  A    between atoms: C_5  and  S_8
REMARK    3  A    between atoms: S_8  and  N_11
REMARK    4  A    between atoms: N_11  and  C_12
REMARK    5  A    between atoms: N_11  and  C_19
REMARK    6  A    between atoms: C_12  and  C_13
REMARK    7  A    between atoms: C_19  and  C_20
REMARK    8  A    between atoms: C_20  and  C_22
REMARK    9  A    between atoms: C_20  and  O_38
REMARK   10  A    between atoms: C_22  and  N_23
REMARK                            x       y       z     vdW  Elec       q    Type
REMARK                         _______ _______ _______ _____ _____    ______ ____
ROOT
ATOM      1  C   UNL     1       3.100  -3.923  -1.684  0.00  0.00    +0.150 C 
ENDROOT
BRANCH   1   2
ATOM      2  O   UNL     1       4.131  -3.678  -0.725  0.00  0.00    -0.389 OA
ATOM      3  H   UNL     1       4.785  -4.388  -0.661  0.00  0.00    +0.210 HD
ENDBRANCH   1   2
BRANCH   1   4
ATOM      4  C   UNL     1       2.346  -5.200  -1.308  0.00  0.00    +0.142 C 
BRANCH   4   5
ATOM      5  N   UNL     1       1.651  -4.999  -0.034  0.00  0.00    -0.172 NA
BRANCH   5   6
ATOM      6  S   UNL     1       0.063  -4.530  -0.023  0.00  0.00    +0.061 S 
ATOM      7  O   UNL     1      -0.476  -4.950   1.223  0.00  0.00    -0.153 OA
ATOM      8  O   UNL     1      -0.490  -4.937  -1.267  0.00  0.00    -0.153 OA
BRANCH   6  13
ATOM      9  C   UNL     1      -0.018   1.503   0.010  0.00  0.00    +0.044 C 
ATOM     10  C   UNL     1       0.002  -0.004   0.002  0.00  0.00    -0.050 A 
ATOM     11  C   UNL     1       0.006  -0.689  -1.199  0.00  0.00    +0.005 A 
ATOM     12  C   UNL     1       0.025  -2.071  -1.206  0.00  0.00    +0.029 A 
ATOM     13  C   UNL     1       0.040  -2.768  -0.013  0.00  0.00    +0.105 A 
ATOM     14  C   UNL     1       0.037  -2.084   1.188  0.00  0.00    +0.029 A 
ATOM     15  C   UNL     1       0.023  -0.702   1.195  0.00  0.00    +0.005 A 
ENDBRANCH   6  13
ENDBRANCH   5   6
BRANCH   5  16
ATOM     16  C   UNL     1       2.360  -5.214   1.229  0.00  0.00    +0.141 C 
BRANCH  16  17
ATOM     17  C   UNL     1       2.304  -6.697   1.601  0.00  0.00    +0.134 C 
ATOM     18  C   UNL     1       3.020  -6.941   2.953  0.00  0.00    +0.035 C 
ATOM     19  C   UNL     1       2.317  -8.241   3.429  0.00  0.00    +0.031 C 
ATOM     20  C   UNL     1       0.883  -8.056   2.887  0.00  0.00    +0.160 C 
ATOM     21  O   UNL     1       0.944  -7.106   1.814  0.00  0.00    -0.375 OA
ENDBRANCH  16  17
ENDBRANCH   5  16
ENDBRANCH   4   5
ENDBRANCH   1   4
BRANCH   1  22
ATOM     22  C   UNL     1       3.724  -4.088  -3.071  0.00  0.00    +0.155 C 
BRANCH  22  23
ATOM     23  N   UNL     1       4.343  -2.826  -3.482  0.00  0.00    -0.337 N 
ATOM     24  C   UNL     1       3.699  -1.817  -4.177  0.00  0.00    +0.050 A 
ATOM     25  C   UNL     1       2.398  -1.693  -4.655  0.00  0.00    +0.028 A 
ATOM     26  C   UNL     1       2.017  -0.552  -5.329  0.00  0.00    +0.022 A 
ATOM     27  C   UNL     1       2.920   0.480  -5.536  0.00  0.00    +0.042 A 
ATOM     28  C   UNL     1       4.214   0.375  -5.069  0.00  0.00    +0.030 A 
ATOM     29  C   UNL     1       4.611  -0.773  -4.387  0.00  0.00    +0.009 A 
ATOM     30  C   UNL     1       5.883  -1.198  -3.773  0.00  0.00    +0.009 A 
ATOM     31  C   UNL     1       5.656  -2.469  -3.226  0.00  0.00    +0.050 A 
ATOM     32  C   UNL     1       6.693  -3.123  -2.569  0.00  0.00    +0.028 A 
ATOM     33  C   UNL     1       7.928  -2.521  -2.457  0.00  0.00    +0.022 A 
ATOM     34  C   UNL     1       8.150  -1.262  -2.995  0.00  0.00    +0.042 A 
ATOM     35  C   UNL     1       7.136  -0.602  -3.657  0.00  0.00    +0.030 A 
ATOM     36 CL   UNL     1       9.712  -0.520  -2.844  0.00  0.00    -0.084 Cl
ATOM     37 CL   UNL     1       2.421   1.909  -6.387  0.00  0.00    -0.084 Cl
ENDBRANCH  22  23
ENDBRANCH   1  22
TORSDOF 9
