REMARK  Name = ZINC04948835
REMARK  4 active torsions:
REMARK  status: ('A' for Active; 'I' for Inactive)
REMARK    1  A    between atoms: C_1  and  C_2
REMARK    2  A    between atoms: C_5  and  N_8
REMARK    3  A    between atoms: C_11  and  C_13
REMARK    4  A    between atoms: C_14  and  C_24
REMARK                            x       y       z     vdW  Elec       q    Type
REMARK                         _______ _______ _______ _____ _____    ______ ____
ROOT
ATOM      1  N   UNL     1       0.577  -4.288   1.310  0.00  0.00    -0.218 N 
ATOM      2  C   UNL     1       1.005  -5.347   2.027  0.00  0.00    +0.130 A 
ATOM      3  C   UNL     1       0.265  -6.435   1.645  0.00  0.00    +0.023 A 
ATOM      4  C   UNL     1      -0.634  -6.018   0.674  0.00  0.00    +0.066 A 
ATOM      5  N   UNL     1      -0.458  -4.733   0.472  0.00  0.00    -0.170 NA
ATOM      6  C   UNL     1      -1.646  -6.890  -0.025  0.00  0.00    +0.068 C 
ATOM      7  C   UNL     1       0.476  -7.800   2.237  0.00  0.00    +0.062 C 
ATOM      8  C   UNL     1       1.326  -7.687   3.484  0.00  0.00    +0.020 C 
ATOM      9  C   UNL     1       2.023  -6.571   3.788  0.00  0.00    +0.016 C 
ATOM     10  N   UNL     1       1.993  -5.449   2.999  0.00  0.00    -0.302 N 
ATOM     11  C   UNL     1       2.885  -6.511   5.029  0.00  0.00    +0.051 C 
ATOM     12  C   UNL     1       2.269  -7.379   6.126  0.00  0.00    +0.014 C 
ATOM     13  C   UNL     1       2.162  -8.815   5.601  0.00  0.00    +0.080 C 
ATOM     14  C   UNL     1       1.360  -8.810   4.330  0.00  0.00    +0.161 C 
ATOM     15  O   UNL     1       0.724  -9.801   4.026  0.00  0.00    -0.292 OA
ATOM     16  H   UNL     1       2.647  -4.742   3.116  0.00  0.00    +0.153 HD
ENDROOT
BRANCH   1  21
ATOM     17  C   UNL     1       2.579   1.013   1.639  0.00  0.00    +0.044 C 
ATOM     18  C   UNL     1       2.047  -0.395   1.552  0.00  0.00    -0.050 A 
ATOM     19  C   UNL     1       1.621  -0.897   0.336  0.00  0.00    +0.005 A 
ATOM     20  C   UNL     1       1.133  -2.187   0.253  0.00  0.00    +0.028 A 
ATOM     21  C   UNL     1       1.072  -2.979   1.391  0.00  0.00    +0.067 A 
ATOM     22  C   UNL     1       1.501  -2.472   2.611  0.00  0.00    +0.028 A 
ATOM     23  C   UNL     1       1.993  -1.183   2.686  0.00  0.00    +0.005 A 
ENDBRANCH   1  21
BRANCH   7  24
ATOM     24  C   UNL     1      -0.878  -8.414   2.598  0.00  0.00    +0.005 C 
ATOM     25  C   UNL     1      -1.375  -9.284   1.437  0.00  0.00    +0.009 C 
ATOM     26  C   UNL     1      -2.635 -10.023   1.891  0.00  0.00    +0.027 C 
ATOM     27  C   UNL     1      -3.602  -9.060   2.516  0.00  0.00    -0.031 C 
ATOM     28  C   UNL     1      -3.281  -7.877   2.932  0.00  0.00    -0.031 C 
ATOM     29  C   UNL     1      -1.898  -7.300   2.845  0.00  0.00    +0.031 C 
ENDBRANCH   7  24
TORSDOF 2
