REMARK  Name = ZINC36561465
REMARK  13 active torsions:
REMARK  status: ('A' for Active; 'I' for Inactive)
REMARK    1  A    between atoms: C_1  and  C_2
REMARK    2  A    between atoms: C_2  and  C_3
REMARK    3  A    between atoms: C_3  and  N_4
REMARK    4  A    between atoms: N_4  and  C_5
REMARK    5  A    between atoms: C_5  and  C_7
REMARK    6  A    between atoms: C_5  and  C_16
REMARK    7  A    between atoms: C_8  and  O_15
REMARK    8  A    between atoms: C_10  and  O_14
REMARK    9  A    between atoms: C_12  and  O_13
REMARK   10  A    between atoms: N_18  and  C_19
REMARK   11  A    between atoms: C_25  and  C_27
REMARK   12  A    between atoms: C_27  and  C_28
REMARK   13  A    between atoms: C_33  and  C_34
REMARK                            x       y       z     vdW  Elec       q    Type
REMARK                         _______ _______ _______ _____ _____    ______ ____
ROOT
ATOM      1  C   UNL     1      -1.987  -3.104   1.671  0.00  0.00    +0.199 C 
ENDROOT
BRANCH   1   2
ATOM      2  C   UNL     1      -0.633  -3.393   2.264  0.00  0.00    +0.065 A 
ATOM      3  C   UNL     1      -0.358  -4.648   2.787  0.00  0.00    +0.129 A 
ATOM      4  C   UNL     1       0.888  -4.915   3.333  0.00  0.00    +0.091 A 
ATOM      5  C   UNL     1       1.860  -3.926   3.357  0.00  0.00    +0.124 A 
ATOM      6  C   UNL     1       1.586  -2.671   2.834  0.00  0.00    +0.091 A 
ATOM      7  C   UNL     1       0.341  -2.406   2.284  0.00  0.00    +0.129 A 
BRANCH   7   8
ATOM      8  O   UNL     1       0.074  -1.178   1.767  0.00  0.00    -0.506 OA
ATOM      9  H   UNL     1      -0.395  -0.589   2.374  0.00  0.00    +0.292 HD
ENDBRANCH   7   8
BRANCH   5  10
ATOM     10  O   UNL     1       3.082  -4.187   3.893  0.00  0.00    -0.507 OA
ATOM     11  H   UNL     1       3.725  -4.529   3.257  0.00  0.00    +0.292 HD
ENDBRANCH   5  10
BRANCH   3  12
ATOM     12  O   UNL     1      -1.311  -5.617   2.763  0.00  0.00    -0.506 OA
ATOM     13  H   UNL     1      -1.249  -6.211   2.003  0.00  0.00    +0.292 HD
ENDBRANCH   3  12
ENDBRANCH   1   2
BRANCH   1  14
ATOM     14  C   UNL     1      -2.956  -2.761   2.773  0.00  0.00    +0.239 C 
ATOM     15  O   UNL     1      -3.889  -2.018   2.551  0.00  0.00    -0.273 OA
ATOM     16  N   UNL     1      -2.786  -3.279   4.005  0.00  0.00    -0.311 N 
ATOM     17  H   UNL     1      -2.000  -3.812   4.203  0.00  0.00    +0.149 HD
BRANCH  16  18
ATOM     18  C   UNL     1      -3.788  -3.039   5.046  0.00  0.00    +0.073 C 
ATOM     19  C   UNL     1      -3.503  -1.700   5.730  0.00  0.00    +0.022 C 
ATOM     20  C   UNL     1      -4.550  -1.449   6.817  0.00  0.00    +0.002 C 
ATOM     21  C   UNL     1      -4.490  -2.573   7.852  0.00  0.00    +0.000 C 
ATOM     22  C   UNL     1      -4.775  -3.912   7.169  0.00  0.00    +0.002 C 
ATOM     23  C   UNL     1      -3.728  -4.163   6.082  0.00  0.00    +0.022 C 
ENDBRANCH  16  18
ENDBRANCH   1  14
BRANCH   1  24
ATOM     24  N   UNL     1      -1.883  -1.975   0.743  0.00  0.00    -0.285 N 
ATOM     25  C   UNL     1      -2.031  -0.714   1.197  0.00  0.00    +0.221 C 
ATOM     26  O   UNL     1      -2.305  -0.517   2.362  0.00  0.00    -0.275 OA
BRANCH  24  27
ATOM     27  C   UNL     1      -1.617  -2.216  -0.677  0.00  0.00    +0.108 C 
BRANCH  27  29
ATOM     28  C   UNL     1      -2.661  -2.404  -2.939  0.00  0.00    +0.005 C 
ATOM     29  C   UNL     1      -2.942  -2.277  -1.441  0.00  0.00    +0.016 C 
ENDBRANCH  27  29
ENDBRANCH  24  27
BRANCH  25  30
ATOM     30  C   UNL     1      -1.857   0.450   0.256  0.00  0.00    +0.131 C 
BRANCH  30  31
ATOM     31  C   UNL     1      -2.073   1.739   1.007  0.00  0.00    -0.036 A 
ATOM     32  C   UNL     1      -3.357   2.200   1.234  0.00  0.00    +0.004 A 
ATOM     33  C   UNL     1      -3.555   3.382   1.923  0.00  0.00    +0.000 A 
ATOM     34  C   UNL     1      -2.469   4.103   2.385  0.00  0.00    +0.000 A 
ATOM     35  C   UNL     1      -1.186   3.641   2.160  0.00  0.00    +0.003 A 
ATOM     36  C   UNL     1      -0.988   2.457   1.474  0.00  0.00    -0.047 A 
ATOM     37  C   UNL     1       0.410   1.950   1.233  0.00  0.00    +0.044 C 
ENDBRANCH  30  31
ENDBRANCH  25  30
ENDBRANCH   1  24
TORSDOF 11
