REMARK  Name = ZINC44974913
REMARK  4 active torsions:
REMARK  status: ('A' for Active; 'I' for Inactive)
REMARK    1  A    between atoms: C_15  and  C_17
REMARK    2  A    between atoms: C_23  and  C_25
REMARK    3  A    between atoms: N_27  and  C_28
REMARK    4  A    between atoms: C_28  and  C_29
REMARK                            x       y       z     vdW  Elec       q    Type
REMARK                         _______ _______ _______ _____ _____    ______ ____
ROOT
ATOM      1  C   UNL     1       3.257  -4.270  -6.444  0.00  0.00    +0.001 A 
ATOM      2  C   UNL     1       1.923  -4.571  -6.684  0.00  0.00    +0.002 A 
ATOM      3  C   UNL     1       1.051  -4.773  -5.637  0.00  0.00    +0.026 A 
ATOM      4  C   UNL     1       1.508  -4.677  -4.327  0.00  0.00    +0.047 A 
ATOM      5  C   UNL     1       2.862  -4.372  -4.089  0.00  0.00    +0.003 A 
ATOM      6  C   UNL     1       3.728  -4.170  -5.166  0.00  0.00    +0.010 A 
ATOM      7  C   UNL     1       3.016  -4.346  -2.637  0.00  0.00    -0.016 A 
ATOM      8  C   UNL     1       1.811  -4.619  -2.103  0.00  0.00    +0.038 A 
ATOM      9  N   UNL     1       0.899  -4.821  -3.099  0.00  0.00    -0.356 N 
ATOM     10  H   UNL     1      -0.037  -5.034  -2.963  0.00  0.00    +0.166 HD
ATOM     11  C   UNL     1       1.554  -4.677  -0.613  0.00  0.00    +0.161 C 
ATOM     12  N   UNL     1       2.863  -4.668   0.061  0.00  0.00    -0.295 N 
ATOM     13  C   UNL     1       3.883  -3.718  -0.407  0.00  0.00    +0.113 C 
ATOM     14  C   UNL     1       4.271  -4.073  -1.848  0.00  0.00    +0.056 C 
ATOM     15  C   UNL     1       3.121  -5.509   1.082  0.00  0.00    +0.220 C 
ATOM     16  O   UNL     1       2.243  -6.228   1.512  0.00  0.00    -0.275 OA
ENDROOT
BRANCH  15  17
ATOM     17  C   UNL     1       4.499  -5.557   1.690  0.00  0.00    +0.087 C 
ATOM     18  C   UNL     1       4.706  -4.332   2.582  0.00  0.00    +0.013 C 
ATOM     19  C   UNL     1       6.106  -4.380   3.198  0.00  0.00    +0.001 C 
ATOM     20  C   UNL     1       6.249  -5.652   4.037  0.00  0.00    +0.001 C 
ATOM     21  C   UNL     1       6.042  -6.878   3.146  0.00  0.00    +0.013 C 
ATOM     22  C   UNL     1       4.642  -6.829   2.529  0.00  0.00    +0.087 C 
BRANCH  22  23
ATOM     23  C   UNL     1       3.609  -6.825   3.626  0.00  0.00    +0.217 C 
ATOM     24  O   UNL     1       2.835  -5.898   3.727  0.00  0.00    -0.275 OA
ATOM     25  N   UNL     1       3.546  -7.854   4.495  0.00  0.00    -0.308 N 
ATOM     26  H   UNL     1       4.166  -8.596   4.415  0.00  0.00    +0.149 HD
BRANCH  25  27
ATOM     27  C   UNL     1       2.542  -7.850   5.562  0.00  0.00    +0.178 C 
BRANCH  27  28
ATOM     28  C   UNL     1       2.683  -9.103   6.388  0.00  0.00    +0.122 A 
ATOM     29  C   UNL     1       3.454  -9.241   7.482  0.00  0.00    +0.046 A 
ATOM     30  C   UNL     1       3.286 -10.569   7.937  0.00  0.00    +0.041 A 
ATOM     31  C   UNL     1       2.422 -11.163   7.094  0.00  0.00    +0.195 A 
ATOM     32  O   UNL     1       2.056 -10.268   6.162  0.00  0.00    -0.466 OA
ENDBRANCH  27  28
ENDBRANCH  25  27
ENDBRANCH  22  23
ENDBRANCH  15  17
TORSDOF 4
