REMARK  Name = ZINC07648154
REMARK  7 active torsions:
REMARK  status: ('A' for Active; 'I' for Inactive)
REMARK    1  A    between atoms: C_1  and  C_2
REMARK    2  A    between atoms: C_2  and  C_4
REMARK    3  A    between atoms: C_2  and  N_53
REMARK    4  A    between atoms: N_9  and  C_10
REMARK    5  A    between atoms: C_16  and  C_18
REMARK    6  A    between atoms: C_16  and  C_24
REMARK    7  A    between atoms: C_16  and  N_53
REMARK                            x       y       z     vdW  Elec       q    Type
REMARK                         _______ _______ _______ _____ _____    ______ ____
ROOT
ATOM      1  C   UNL     1      -4.879  -0.067   1.274  0.00  0.00    -0.004 C 
ATOM      2  C   UNL     1      -4.816   0.821   0.029  0.00  0.00    +0.015 C 
ENDROOT
BRANCH   2   3
ATOM      3  C   UNL     1      -3.522   1.592   0.027  0.00  0.00    +0.206 C 
ATOM      4  O   UNL     1      -3.538   2.804   0.034  0.00  0.00    -0.277 OA
ATOM      5  N   UNL     1      -2.345   0.934   0.018  0.00  0.00    -0.242 N 
ATOM      6  C   UNL     1      -1.187   1.624   0.017  0.00  0.00    +0.306 C 
ATOM      7  O   UNL     1      -1.204   2.839   0.023  0.00  0.00    -0.252 OA
ATOM      8  N   UNL     1      -0.011   0.966   0.007  0.00  0.00    -0.296 N 
ATOM      9  H   UNL     1      -2.332  -0.036   0.013  0.00  0.00    +0.159 HD
ATOM     10  H   UNL     1       0.002  -0.004   0.002  0.00  0.00    +0.151 HD
BRANCH   8  11
ATOM     11  C   UNL     1       1.248   1.716  -0.001  0.00  0.00    +0.074 C 
ATOM     12  C   UNL     1       1.608   2.092  -1.439  0.00  0.00    +0.022 C 
ATOM     13  C   UNL     1       2.922   2.875  -1.448  0.00  0.00    +0.002 C 
ATOM     14  C   UNL     1       4.035   2.010  -0.853  0.00  0.00    +0.000 C 
ATOM     15  C   UNL     1       3.675   1.633   0.585  0.00  0.00    +0.002 C 
ATOM     16  C   UNL     1       2.361   0.850   0.594  0.00  0.00    +0.022 C 
ENDBRANCH   8  11
ENDBRANCH   2   3
BRANCH   2  17
ATOM     17  N   UNL     1      -5.945   1.770   0.044  0.00  0.00    +0.396 N 
ATOM     18  H   UNL     1      -5.696   2.601  -0.506  0.00  0.00    -0.083 HD
ATOM     19  H   UNL     1      -6.142   2.048   1.012  0.00  0.00    -0.083 HD
BRANCH  17  20
ATOM     20  C   UNL     1      -7.148   1.144  -0.537  0.00  0.00    +0.028 C 
BRANCH  20  21
ATOM     21  C   UNL     1      -8.375   1.825   0.013  0.00  0.00    -0.054 A 
ATOM     22  C   UNL     1      -8.383   3.196   0.191  0.00  0.00    +0.002 A 
ATOM     23  C   UNL     1      -9.510   3.821   0.692  0.00  0.00    +0.000 A 
ATOM     24  C   UNL     1     -10.625   3.073   1.024  0.00  0.00    +0.000 A 
ATOM     25  C   UNL     1     -10.614   1.702   0.850  0.00  0.00    +0.000 A 
ATOM     26  C   UNL     1      -9.489   1.078   0.345  0.00  0.00    +0.002 A 
ENDBRANCH  20  21
BRANCH  20  27
ATOM     27  C   UNL     1      -7.120   1.296  -2.037  0.00  0.00    +0.095 A 
ATOM     28  C   UNL     1      -7.491   0.360  -2.929  0.00  0.00    +0.043 A 
ATOM     29  C   UNL     1      -7.306   0.923  -4.213  0.00  0.00    +0.041 A 
ATOM     30  C   UNL     1      -6.824   2.165  -4.028  0.00  0.00    +0.195 A 
ATOM     31  O   UNL     1      -6.713   2.386  -2.708  0.00  0.00    -0.469 OA
ENDBRANCH  20  27
ENDBRANCH  17  20
ENDBRANCH   2  17
TORSDOF 6
