REMARK  Name = ZINC13064901
REMARK  15 active torsions:
REMARK  status: ('A' for Active; 'I' for Inactive)
REMARK    1  A    between atoms: C_1  and  C_2
REMARK    2  A    between atoms: C_2  and  C_3
REMARK    3  A    between atoms: C_3  and  C_5
REMARK    4  A    between atoms: C_3  and  N_67
REMARK    5  A    between atoms: N_9  and  C_10
REMARK    6  A    between atoms: C_10  and  C_11
REMARK    7  A    between atoms: C_11  and  O_13
REMARK    8  A    between atoms: O_13  and  C_14
REMARK    9  A    between atoms: C_14  and  C_15
REMARK   10  A    between atoms: C_16  and  C_17
REMARK   11  A    between atoms: C_16  and  N_67
REMARK   12  A    between atoms: C_23  and  C_24
REMARK   13  A    between atoms: C_23  and  N_67
REMARK   14  A    between atoms: C_27  and  C_37
REMARK   15  A    between atoms: C_29  and  C_36
REMARK                            x       y       z     vdW  Elec       q    Type
REMARK                         _______ _______ _______ _____ _____    ______ ____
ROOT
ATOM      1  N   UNL     1       1.065  -2.846  -1.455  0.00  0.00    +0.392 N 
ATOM      2  H   UNL     1       1.999  -2.488  -1.687  0.00  0.00    -0.080 HD
ENDROOT
BRANCH   1   3
ATOM      3  C   UNL     1       0.066  -2.172  -2.310  0.00  0.00    +0.003 C 
BRANCH   3   4
ATOM      4  C   UNL     1      -1.291  -2.804  -2.136  0.00  0.00    +0.139 A 
ATOM      5  N   UNL     1      -1.549  -4.084  -2.019  0.00  0.00    -0.115 NA
ATOM      6  N   UNL     1      -2.823  -4.223  -1.888  0.00  0.00    -0.023 NA
ATOM      7  N   UNL     1      -3.385  -3.065  -1.918  0.00  0.00    -0.043 NA
ATOM      8  N   UNL     1      -2.473  -2.164  -2.064  0.00  0.00    -0.220 N 
BRANCH   8   9
ATOM      9  C   UNL     1      -2.684  -0.716  -2.142  0.00  0.00    +0.267 C 
BRANCH   9  10
ATOM     10  C   UNL     1      -2.981  -0.328  -3.567  0.00  0.00    +0.329 C 
ATOM     11  O   UNL     1      -3.013  -1.173  -4.430  0.00  0.00    -0.249 OA
BRANCH  10  12
ATOM     12  O   UNL     1      -3.210   0.958  -3.878  0.00  0.00    -0.464 OA
BRANCH  12  13
ATOM     13  C   UNL     1      -3.490   1.259  -5.271  0.00  0.00    +0.229 C 
ATOM     14  C   UNL     1      -3.723   2.763  -5.430  0.00  0.00    +0.048 C 
ENDBRANCH  12  13
ENDBRANCH  10  12
ENDBRANCH   9  10
ENDBRANCH   8   9
ENDBRANCH   3   4
BRANCH   3  16
ATOM     15  C   UNL     1       1.815  -1.537  -3.978  0.00  0.00    +0.002 C 
ATOM     16  C   UNL     1       0.502  -2.296  -3.771  0.00  0.00    -0.011 C 
ENDBRANCH   3  16
ENDBRANCH   1   3
BRANCH   1  17
ATOM     17  C   UNL     1       0.783  -2.566  -0.032  0.00  0.00    -0.040 C 
BRANCH  17  18
ATOM     18  C   UNL     1       1.192  -1.147   0.272  0.00  0.00    -0.046 A 
ATOM     19  C   UNL     1       2.514  -0.844   0.562  0.00  0.00    +0.005 A 
ATOM     20  C   UNL     1       2.844   0.474   0.835  0.00  0.00    +0.020 A 
ATOM     21  C   UNL     1       1.852   1.436   0.808  0.00  0.00    +0.111 A 
ATOM     22  N   UNL     1       0.605   1.112   0.528  0.00  0.00    -0.263 NA
ATOM     23  C   UNL     1       0.255  -0.132   0.264  0.00  0.00    +0.112 A 
ENDBRANCH  17  18
ENDBRANCH   1  17
BRANCH   1  24
ATOM     24  C   UNL     1       1.036  -4.304  -1.698  0.00  0.00    -0.036 C 
BRANCH  24  25
ATOM     25  C   UNL     1       2.330  -4.901  -1.207  0.00  0.00    +0.001 A 
ATOM     26  C   UNL     1       2.397  -5.441   0.035  0.00  0.00    +0.017 A 
ATOM     27  C   UNL     1       3.669  -6.012   0.482  0.00  0.00    +0.002 A 
ATOM     28  C   UNL     1       3.798  -6.584   1.752  0.00  0.00    -0.041 A 
ATOM     29  C   UNL     1       4.999  -7.109   2.139  0.00  0.00    +0.007 A 
ATOM     30  C   UNL     1       6.091  -7.080   1.283  0.00  0.00    -0.048 A 
ATOM     31  C   UNL     1       5.987  -6.521   0.028  0.00  0.00    +0.029 A 
ATOM     32  C   UNL     1       4.774  -5.981  -0.389  0.00  0.00    +0.050 A 
ATOM     33  N   UNL     1       4.641  -5.417  -1.639  0.00  0.00    -0.322 N 
ATOM     34  H   UNL     1       5.403  -5.397  -2.238  0.00  0.00    +0.169 HD
ATOM     35  C   UNL     1       3.467  -4.900  -2.043  0.00  0.00    +0.251 A 
ATOM     36  O   UNL     1       3.384  -4.413  -3.158  0.00  0.00    -0.268 OA
ATOM     37  C   UNL     1       7.405  -7.665   1.732  0.00  0.00    +0.044 C 
ATOM     38  C   UNL     1       2.619  -6.620   2.690  0.00  0.00    +0.044 C 
ENDBRANCH  24  25
ENDBRANCH   1  24
TORSDOF 11
