REMARK  Name = ZINC22040635
REMARK  16 active torsions:
REMARK  status: ('A' for Active; 'I' for Inactive)
REMARK    1  A    between atoms: C_1  and  C_2
REMARK    2  A    between atoms: C_2  and  C_4
REMARK    3  A    between atoms: C_2  and  S_11
REMARK    4  A    between atoms: N_6  and  C_7
REMARK    5  A    between atoms: C_7  and  C_8
REMARK    6  A    between atoms: C_7  and  C_9
REMARK    7  A    between atoms: C_7  and  C_10
REMARK    8  A    between atoms: S_11  and  C_12
REMARK    9  A    between atoms: C_15  and  C_18
REMARK   10  A    between atoms: N_16  and  N_17
REMARK   11  A    between atoms: C_18  and  O_19
REMARK   12  A    between atoms: O_19  and  C_20
REMARK   13  A    between atoms: C_23  and  C_26
REMARK   14  A    between atoms: C_26  and  C_27
REMARK   15  A    between atoms: C_26  and  C_28
REMARK   16  A    between atoms: C_26  and  C_29
REMARK                            x       y       z     vdW  Elec       q    Type
REMARK                         _______ _______ _______ _____ _____    ______ ____
ROOT
ATOM      1  C   UNL     1      -1.766   3.689  -0.134  0.00  0.00    +0.209 A 
ATOM      2  N   UNL     1      -2.308   2.782  -0.913  0.00  0.00    -0.121 NA
ATOM      3  N   UNL     1      -2.983   3.354  -1.845  0.00  0.00    -0.128 NA
ATOM      4  C   UNL     1      -2.914   4.649  -1.717  0.00  0.00    +0.189 A 
ATOM      5  N   UNL     1      -2.141   4.909  -0.619  0.00  0.00    -0.225 N 
ENDROOT
BRANCH   5   6
ATOM      6  N   UNL     1      -1.810   6.135  -0.115  0.00  0.00    -0.295 N 
ATOM      7  H   UNL     1      -2.180   7.048  -0.603  0.00  0.00    +0.163 HD
ATOM      8  H   UNL     1      -1.174   6.208   0.780  0.00  0.00    +0.163 HD
ENDBRANCH   5   6
BRANCH   1   9
ATOM      9  S   UNL     1      -0.753   3.389   1.277  0.00  0.00    -0.072 S 
BRANCH   9  11
ATOM     10  C   UNL     1      -0.013   1.086   0.008  0.00  0.00    +0.029 C 
ATOM     11  C   UNL     1      -0.729   1.579   1.267  0.00  0.00    +0.137 C 
BRANCH  11  12
ATOM     12  C   UNL     1       0.000   1.080   2.488  0.00  0.00    +0.227 C 
ATOM     13  O   UNL     1       0.757   1.815   3.085  0.00  0.00    -0.275 OA
ATOM     14  N   UNL     1      -0.190  -0.184   2.916  0.00  0.00    -0.310 N 
ATOM     15  H   UNL     1      -0.876  -0.851   2.374  0.00  0.00    +0.149 HD
BRANCH  14  16
ATOM     16  C   UNL     1       0.519  -0.669   4.103  0.00  0.00    +0.026 C 
ATOM     17  C   UNL     1       0.140   0.191   5.310  0.00  0.00    +0.031 C 
ATOM     18  C   UNL     1       0.129  -2.124   4.371  0.00  0.00    +0.031 C 
ATOM     19  C   UNL     1       2.028  -0.581   3.867  0.00  0.00    +0.031 C 
ENDBRANCH  14  16
ENDBRANCH  11  12
ENDBRANCH   9  11
ENDBRANCH   1   9
BRANCH   4  20
ATOM     20  C   UNL     1      -3.570   5.671  -2.610  0.00  0.00    +0.306 C 
BRANCH  20  21
ATOM     21  O   UNL     1      -4.873   5.975  -2.109  0.00  0.00    -0.484 OA
BRANCH  21  22
ATOM     22  C   UNL     1      -5.604   6.886  -2.804  0.00  0.00    +0.121 A 
ATOM     23  C   UNL     1      -5.075   7.479  -3.941  0.00  0.00    +0.046 A 
ATOM     24  C   UNL     1      -5.822   8.400  -4.649  0.00  0.00    +0.008 A 
ATOM     25  C   UNL     1      -7.092   8.740  -4.219  0.00  0.00    -0.042 A 
ATOM     26  C   UNL     1      -7.619   8.154  -3.082  0.00  0.00    +0.008 A 
ATOM     27  C   UNL     1      -6.878   7.228  -2.374  0.00  0.00    +0.046 A 
BRANCH  25  28
ATOM     28  C   UNL     1      -7.902   9.750  -4.989  0.00  0.00    -0.013 C 
ATOM     29  C   UNL     1      -8.236  10.936  -4.082  0.00  0.00    +0.015 C 
ATOM     30  C   UNL     1      -7.095  10.240  -6.193  0.00  0.00    +0.015 C 
ATOM     31  C   UNL     1      -9.199   9.100  -5.475  0.00  0.00    +0.015 C 
ENDBRANCH  25  28
ENDBRANCH  21  22
ENDBRANCH  20  21
ENDBRANCH   4  20
TORSDOF 9
