REMARK  Name = ZINC32622143
REMARK  9 active torsions:
REMARK  status: ('A' for Active; 'I' for Inactive)
REMARK    1  A    between atoms: C_1  and  C_2
REMARK    2  A    between atoms: C_2  and  C_3
REMARK    3  A    between atoms: C_6  and  C_9
REMARK    4  A    between atoms: C_9  and  C_11
REMARK    5  A    between atoms: C_9  and  N_27
REMARK    6  A    between atoms: C_11  and  N_12
REMARK    7  A    between atoms: C_13  and  C_15
REMARK    8  A    between atoms: C_17  and  C_20
REMARK    9  A    between atoms: C_23  and  C_26
REMARK                            x       y       z     vdW  Elec       q    Type
REMARK                         _______ _______ _______ _____ _____    ______ ____
ROOT
ATOM      1  C   UNL     1       4.786  -1.404   0.006  0.00  0.00    +0.094 C 
ENDROOT
BRANCH   1   2
ATOM      2  N   UNL     1       3.597  -1.862   0.730  0.00  0.00    -0.311 N 
ATOM      3  C   UNL     1       2.548  -1.033   0.895  0.00  0.00    +0.266 C 
ATOM      4  O   UNL     1       2.588   0.094   0.444  0.00  0.00    -0.268 OA
ATOM      5  H   UNL     1       3.561  -2.883   1.138  0.00  0.00    +0.149 HD
BRANCH   3   6
ATOM      6  C   UNL     1       1.344  -1.497   1.627  0.00  0.00    +0.168 A 
ATOM      7  C   UNL     1       0.165  -0.751   1.885  0.00  0.00    +0.086 A 
ATOM      8  C   UNL     1      -0.626  -1.621   2.583  0.00  0.00    +0.168 A 
ATOM      9  O   UNL     1       0.076  -2.762   2.697  0.00  0.00    -0.354 OA
ATOM     10  N   UNL     1       1.158  -2.677   2.166  0.00  0.00    -0.073 NA
BRANCH   8  11
ATOM     11  C   UNL     1      -1.985  -1.360   3.103  0.00  0.00    +0.020 A 
ATOM     12  C   UNL     1      -2.583  -0.114   2.908  0.00  0.00    +0.012 A 
ATOM     13  C   UNL     1      -3.854   0.120   3.391  0.00  0.00    +0.004 A 
ATOM     14  C   UNL     1      -4.531  -0.873   4.077  0.00  0.00    -0.050 A 
ATOM     15  C   UNL     1      -3.941  -2.108   4.279  0.00  0.00    +0.004 A 
ATOM     16  C   UNL     1      -2.673  -2.357   3.796  0.00  0.00    +0.012 A 
ATOM     17  C   UNL     1      -5.917  -0.607   4.607  0.00  0.00    +0.044 C 
ENDBRANCH   8  11
ENDBRANCH   3   6
ENDBRANCH   1   2
BRANCH   1  18
ATOM     18  C   UNL     1       5.865  -2.488   0.059  0.00  0.00    -0.020 C 
BRANCH  18  19
ATOM     19  N   UNL     1       5.323  -3.745  -0.475  0.00  0.00    +0.385 N 
ATOM     20  C   UNL     1       6.223  -4.870  -0.188  0.00  0.00    -0.078 C 
ATOM     21  C   UNL     1       5.562  -6.178  -0.628  0.00  0.00    -0.019 C 
ATOM     22  C   UNL     1       5.259  -6.112  -2.128  0.00  0.00    -0.004 C 
ATOM     23  C   UNL     1       4.360  -4.904  -2.406  0.00  0.00    -0.019 C 
ATOM     24  C   UNL     1       5.056  -3.632  -1.915  0.00  0.00    -0.078 C 
ATOM     25  H   UNL     1       4.366  -3.944   0.029  0.00  0.00    -0.081 HD
ENDBRANCH  18  19
BRANCH  18  29
ATOM     26  C   UNL     1       9.222  -1.274  -2.286  0.00  0.00    -0.048 A 
ATOM     27  C   UNL     1       9.413  -1.764  -1.008  0.00  0.00    +0.004 A 
ATOM     28  C   UNL     1       8.327  -2.157  -0.249  0.00  0.00    +0.002 A 
ATOM     29  C   UNL     1       7.049  -2.059  -0.768  0.00  0.00    -0.059 A 
ATOM     30  C   UNL     1       6.859  -1.573  -2.048  0.00  0.00    +0.002 A 
ATOM     31  C   UNL     1       7.944  -1.176  -2.805  0.00  0.00    +0.004 A 
BRANCH  26  33
ATOM     32  C   UNL     1      10.920  -2.038  -3.924  0.00  0.00    +0.009 C 
ATOM     33  C   UNL     1      10.406  -0.846  -3.114  0.00  0.00    +0.032 C 
ENDBRANCH  26  33
ENDBRANCH  18  29
ENDBRANCH   1  18
TORSDOF 7
