REMARK  Name = ZINC63472990
REMARK  8 active torsions:
REMARK  status: ('A' for Active; 'I' for Inactive)
REMARK    1  A    between atoms: C_1  and  O_2
REMARK    2  A    between atoms: O_2  and  C_3
REMARK    3  A    between atoms: C_6  and  N_9
REMARK    4  A    between atoms: C_14  and  C_35
REMARK    5  A    between atoms: C_17  and  C_22
REMARK    6  A    between atoms: C_17  and  C_32
REMARK    7  A    between atoms: C_22  and  C_23
REMARK    8  A    between atoms: C_40  and  O_41
REMARK                            x       y       z     vdW  Elec       q    Type
REMARK                         _______ _______ _______ _____ _____    ______ ____
ROOT
ATOM      1  N   UNL     1       2.297  -2.623  -4.366  0.00  0.00    -0.210 N 
ATOM      2  C   UNL     1       2.890  -1.881  -5.358  0.00  0.00    +0.229 C 
ATOM      3  O   UNL     1       3.101  -0.688  -5.364  0.00  0.00    -0.275 OA
ATOM      4  C   UNL     1       3.207  -2.836  -6.391  0.00  0.00    +0.077 C 
ATOM      5  C   UNL     1       4.093  -2.998  -7.557  0.00  0.00    -0.023 C 
ATOM      6  N   UNL     1       3.906  -4.451  -7.895  0.00  0.00    +0.396 N 
ATOM      7  C   UNL     1       3.431  -5.149  -6.663  0.00  0.00    +0.052 C 
ATOM      8  C   UNL     1       3.582  -4.113  -5.539  0.00  0.00    +0.086 C 
ATOM      9  C   UNL     1       2.470  -3.967  -4.537  0.00  0.00    +0.229 C 
ATOM     10  O   UNL     1       1.854  -4.859  -3.994  0.00  0.00    -0.275 OA
ATOM     11  H   UNL     1       3.219  -4.546  -8.628  0.00  0.00    -0.083 HD
ATOM     12  H   UNL     1       4.784  -4.848  -8.196  0.00  0.00    -0.083 HD
ENDROOT
BRANCH   1  16
ATOM     13  C   UNL     1       0.208  -0.950  -1.165  0.00  0.00    +0.120 A 
ATOM     14  C   UNL     1       0.773  -0.128  -2.130  0.00  0.00    +0.047 A 
ATOM     15  C   UNL     1       1.465  -0.682  -3.189  0.00  0.00    +0.027 A 
ATOM     16  C   UNL     1       1.595  -2.060  -3.289  0.00  0.00    +0.044 A 
ATOM     17  C   UNL     1       1.030  -2.882  -2.324  0.00  0.00    +0.027 A 
ATOM     18  C   UNL     1       0.343  -2.328  -1.262  0.00  0.00    +0.047 A 
BRANCH  13  20
ATOM     19  C   UNL     1      -0.571   1.020  -0.086  0.00  0.00    +0.277 C 
ATOM     20  O   UNL     1      -0.472  -0.405  -0.122  0.00  0.00    -0.495 OA
ENDBRANCH  13  20
ENDBRANCH   1  16
BRANCH   5  21
ATOM     21  C   UNL     1       3.648  -2.118  -8.697  0.00  0.00    -0.019 A 
ATOM     22  C   UNL     1       2.383  -1.563  -8.689  0.00  0.00    +0.005 A 
ATOM     23  C   UNL     1       1.975  -0.756  -9.735  0.00  0.00    +0.000 A 
ATOM     24  C   UNL     1       2.831  -0.503 -10.791  0.00  0.00    +0.004 A 
ATOM     25  C   UNL     1       4.097  -1.055 -10.803  0.00  0.00    +0.045 A 
ATOM     26  C   UNL     1       4.511  -1.861  -9.752  0.00  0.00    +0.118 A 
BRANCH  26  27
ATOM     27  O   UNL     1       5.758  -2.401  -9.759  0.00  0.00    -0.507 OA
ATOM     28  H   UNL     1       5.809  -3.267 -10.188  0.00  0.00    +0.292 HD
ENDBRANCH  26  27
ENDBRANCH   5  21
BRANCH   7  29
ATOM     29  C   UNL     1       4.300  -6.346  -6.374  0.00  0.00    +0.347 C 
ATOM     30  O   UNL     1       5.218  -6.628  -7.125  0.00  0.00    -0.248 OA
ATOM     31  O   UNL     1       4.085  -7.031  -5.388  0.00  0.00    -0.248 OA
ENDBRANCH   7  29
BRANCH   7  32
ATOM     32  C   UNL     1       1.972  -5.581  -6.828  0.00  0.00    +0.033 C 
BRANCH  32  33
ATOM     33  C   UNL     1       1.861  -6.546  -7.980  0.00  0.00    -0.042 C 
ATOM     34  C   UNL     1       1.870  -7.897  -7.912  0.00  0.00    -0.001 A 
ATOM     35  C   UNL     1       1.983  -8.836  -6.789  0.00  0.00    +0.010 A 
ATOM     36  C   UNL     1       1.961 -10.165  -7.040  0.00  0.00    +0.001 A 
ATOM     37  C   UNL     1       1.834 -10.666  -8.343  0.00  0.00    +0.002 A 
ATOM     38  C   UNL     1       1.725  -9.867  -9.425  0.00  0.00    +0.026 A 
ATOM     39  C   UNL     1       1.736  -8.453  -9.278  0.00  0.00    +0.043 A 
ATOM     40  N   UNL     1       1.648  -7.483 -10.155  0.00  0.00    -0.380 N 
ATOM     41  C   UNL     1       1.710  -6.201  -9.444  0.00  0.00    +0.144 C 
ATOM     42  H   UNL     1       1.554  -7.594 -11.114  0.00  0.00    +0.160 HD
ENDBRANCH  32  33
ENDBRANCH   7  32
TORSDOF 7
