REMARK  Name = ZINC38557845
REMARK  9 active torsions:
REMARK  status: ('A' for Active; 'I' for Inactive)
REMARK    1  A    between atoms: C_1  and  O_2
REMARK    2  A    between atoms: O_2  and  C_3
REMARK    3  A    between atoms: C_6  and  C_11
REMARK    4  A    between atoms: C_8  and  O_9
REMARK    5  A    between atoms: O_9  and  C_10
REMARK    6  A    between atoms: C_13  and  C_25
REMARK    7  A    between atoms: N_27  and  C_28
REMARK    8  A    between atoms: C_28  and  C_29
REMARK    9  A    between atoms: C_29  and  C_30
REMARK                            x       y       z     vdW  Elec       q    Type
REMARK                         _______ _______ _______ _____ _____    ______ ____
ROOT
ATOM      1  C   UNL     1       2.489  -2.484  -4.358  0.00  0.00    +0.076 C 
ATOM      2  N   UNL     1       2.625  -3.792  -4.395  0.00  0.00    -0.244 NA
ATOM      3  C   UNL     1       3.327  -4.453  -5.326  0.00  0.00    +0.126 C 
ATOM      4  C   UNL     1       4.216  -3.787  -6.173  0.00  0.00    +0.039 C 
ATOM      5  C   UNL     1       4.174  -2.401  -6.132  0.00  0.00    -0.008 C 
ATOM      6  C   UNL     1       5.032  -1.404  -6.516  0.00  0.00    +0.004 A 
ATOM      7  C   UNL     1       6.181  -1.408  -7.339  0.00  0.00    +0.010 A 
ATOM      8  C   UNL     1       6.845  -0.224  -7.476  0.00  0.00    +0.001 A 
ATOM      9  C   UNL     1       6.444   0.958  -6.853  0.00  0.00    +0.002 A 
ATOM     10  C   UNL     1       5.339   1.052  -6.063  0.00  0.00    +0.026 A 
ATOM     11  C   UNL     1       4.575  -0.135  -5.883  0.00  0.00    +0.044 A 
ATOM     12  N   UNL     1       3.449  -0.318  -5.237  0.00  0.00    -0.372 N 
ATOM     13  C   UNL     1       3.000  -1.671  -5.494  0.00  0.00    +0.160 C 
ATOM     14  H   UNL     1       2.995   0.337  -4.685  0.00  0.00    +0.161 HD
ENDROOT
BRANCH   1  18
ATOM     15  C   UNL     1       0.602  -0.608  -1.056  0.00  0.00    +0.162 A 
ATOM     16  C   UNL     1       0.599   0.011  -2.300  0.00  0.00    +0.050 A 
ATOM     17  C   UNL     1       1.209  -0.594  -3.375  0.00  0.00    +0.013 A 
ATOM     18  C   UNL     1       1.838  -1.837  -3.215  0.00  0.00    +0.002 A 
ATOM     19  C   UNL     1       1.841  -2.459  -1.959  0.00  0.00    +0.059 A 
ATOM     20  C   UNL     1       1.230  -1.843  -0.886  0.00  0.00    +0.162 A 
BRANCH  15  22
ATOM     21  C   UNL     1      -0.627   1.256  -0.242  0.00  0.00    +0.277 C 
ATOM     22  O   UNL     1      -0.003  -0.006   0.001  0.00  0.00    -0.491 OA
ENDBRANCH  15  22
BRANCH  20  23
ATOM     23  O   UNL     1       1.236  -2.441   0.335  0.00  0.00    -0.491 OA
ATOM     24  C   UNL     1       1.897  -3.704   0.436  0.00  0.00    +0.277 C 
ENDBRANCH  20  23
ENDBRANCH   1  18
BRANCH   3  25
ATOM     25  C   UNL     1       3.157  -5.917  -5.459  0.00  0.00    +0.262 C 
ATOM     26  O   UNL     1       3.788  -6.528  -6.299  0.00  0.00    -0.269 OA
ATOM     27  N   UNL     1       2.303  -6.573  -4.649  0.00  0.00    -0.310 N 
ATOM     28  H   UNL     1       1.800  -6.085  -3.978  0.00  0.00    +0.149 HD
BRANCH  27  29
ATOM     29  C   UNL     1       2.135  -8.022  -4.780  0.00  0.00    +0.109 C 
BRANCH  29  30
ATOM     30  C   UNL     1       1.117  -8.513  -3.750  0.00  0.00    +0.054 C 
BRANCH  30  31
ATOM     31  C   UNL     1       0.944 -10.004  -3.885  0.00  0.00    -0.046 A 
ATOM     32  C   UNL     1      -0.015 -10.514  -4.741  0.00  0.00    +0.005 A 
ATOM     33  C   UNL     1      -0.174 -11.881  -4.866  0.00  0.00    +0.020 A 
ATOM     34  C   UNL     1       0.626 -12.740  -4.133  0.00  0.00    +0.041 A 
ATOM     35  C   UNL     1       1.585 -12.229  -3.277  0.00  0.00    +0.020 A 
ATOM     36  C   UNL     1       1.747 -10.862  -3.157  0.00  0.00    +0.005 A 
ATOM     37 CL   UNL     1       0.427 -14.457  -4.289  0.00  0.00    -0.084 Cl
ENDBRANCH  30  31
ENDBRANCH  29  30
ENDBRANCH  27  29
ENDBRANCH   3  25
TORSDOF 7
