REMARK  Name = ZINC14169434
REMARK  10 active torsions:
REMARK  status: ('A' for Active; 'I' for Inactive)
REMARK    1  A    between atoms: C_1  and  C_2
REMARK    2  A    between atoms: C_2  and  C_3
REMARK    3  A    between atoms: C_3  and  C_4
REMARK    4  A    between atoms: C_4  and  N_5
REMARK    5  A    between atoms: N_5  and  C_6
REMARK    6  A    between atoms: C_7  and  N_22
REMARK    7  A    between atoms: N_8  and  C_15
REMARK    8  A    between atoms: C_15  and  C_16
REMARK    9  A    between atoms: C_23  and  C_25
REMARK   10  A    between atoms: C_26  and  C_27
REMARK                            x       y       z     vdW  Elec       q    Type
REMARK                         _______ _______ _______ _____ _____    ______ ____
ROOT
ATOM      1  N   UNL     1       1.204   3.464   0.008  0.00  0.00    -0.261 N 
ATOM      2  C   UNL     1       2.407   4.062  -0.095  0.00  0.00    +0.244 C 
ATOM      3  O   UNL     1       3.423   3.391  -0.101  0.00  0.00    -0.270 OA
ENDROOT
BRANCH   1   4
ATOM      4  C   UNL     1       1.114   2.057   0.010  0.00  0.00    +0.140 A 
ATOM      5  C   UNL     1       0.489   1.392  -1.026  0.00  0.00    +0.128 A 
ATOM      6  N   UNL     1       0.417   0.019  -0.996  0.00  0.00    -0.276 N 
ATOM      7  C   UNL     1       0.951  -0.669   0.030  0.00  0.00    +0.331 A 
ATOM      8  O   UNL     1       0.877  -1.882   0.038  0.00  0.00    -0.246 OA
ATOM      9  N   UNL     1       1.564  -0.038   1.047  0.00  0.00    -0.273 N 
ATOM     10  H   UNL     1       1.953  -0.573   1.798  0.00  0.00    +0.173 HD
ATOM     11  C   UNL     1       1.661   1.306   1.067  0.00  0.00    +0.277 A 
ATOM     12  O   UNL     1       2.215   1.868   1.997  0.00  0.00    -0.266 OA
BRANCH   5  13
ATOM     13  N   UNL     1      -0.057   2.094  -2.074  0.00  0.00    -0.343 N 
ATOM     14  H   UNL     1      -0.431   1.620  -2.833  0.00  0.00    +0.144 HD
ATOM     15  H   UNL     1      -0.068   3.064  -2.054  0.00  0.00    +0.144 HD
ENDBRANCH   5  13
BRANCH   6  16
ATOM     16  C   UNL     1      -0.245  -0.700  -2.087  0.00  0.00    +0.163 C 
BRANCH  16  17
ATOM     17  C   UNL     1      -1.708  -0.866  -1.765  0.00  0.00    -0.028 A 
ATOM     18  C   UNL     1      -2.142  -1.986  -1.081  0.00  0.00    +0.005 A 
ATOM     19  C   UNL     1      -3.483  -2.137  -0.781  0.00  0.00    +0.000 A 
ATOM     20  C   UNL     1      -4.391  -1.172  -1.175  0.00  0.00    +0.000 A 
ATOM     21  C   UNL     1      -3.958  -0.054  -1.863  0.00  0.00    +0.000 A 
ATOM     22  C   UNL     1      -2.616   0.099  -2.159  0.00  0.00    +0.005 A 
ENDBRANCH  16  17
ENDBRANCH   6  16
ENDBRANCH   1   4
BRANCH   2  23
ATOM     23  C   UNL     1       2.493   5.519  -0.199  0.00  0.00    +0.068 C 
ATOM     24  C   UNL     1       3.699   6.119  -0.301  0.00  0.00    +0.015 C 
BRANCH  24  25
ATOM     25  C   UNL     1       3.786   7.580  -0.406  0.00  0.00    +0.001 A 
ATOM     26  C   UNL     1       2.634   8.361  -0.406  0.00  0.00    +0.010 A 
ATOM     27  C   UNL     1       2.716   9.742  -0.498  0.00  0.00    +0.001 A 
ATOM     28  C   UNL     1       3.914  10.383  -0.604  0.00  0.00    +0.010 A 
ATOM     29  C   UNL     1       5.116   9.657  -0.616  0.00  0.00    +0.001 A 
ATOM     30  C   UNL     1       5.084   8.245  -0.518  0.00  0.00    +0.078 A 
ATOM     31  N   UNL     1       6.220   7.549  -0.529  0.00  0.00    -0.254 NA
ATOM     32  C   UNL     1       7.384   8.146  -0.630  0.00  0.00    +0.111 A 
ATOM     33  C   UNL     1       7.490   9.531  -0.730  0.00  0.00    +0.020 A 
ATOM     34  C   UNL     1       6.362  10.303  -0.724  0.00  0.00    +0.011 A 
ENDBRANCH  24  25
ENDBRANCH   2  23
BRANCH   1  35
ATOM     35  C   UNL     1      -0.011   4.276   0.118  0.00  0.00    +0.114 C 
BRANCH  35  36
ATOM     36  C   UNL     1      -0.233   4.667   1.580  0.00  0.00    +0.019 C 
BRANCH  36  38
ATOM     37  C   UNL     1      -1.723   5.905   3.157  0.00  0.00    +0.004 C 
ATOM     38  C   UNL     1      -1.501   5.514   1.695  0.00  0.00    -0.002 C 
ENDBRANCH  36  38
ENDBRANCH  35  36
ENDBRANCH   1  35
TORSDOF 9
