REMARK  Name = ZINC36531790
REMARK  14 active torsions:
REMARK  status: ('A' for Active; 'I' for Inactive)
REMARK    1  A    between atoms: C_1  and  C_2
REMARK    2  A    between atoms: C_5  and  S_8
REMARK    3  A    between atoms: S_8  and  C_11
REMARK    4  A    between atoms: C_11  and  N_12
REMARK    5  A    between atoms: C_13  and  C_15
REMARK    6  A    between atoms: C_15  and  C_17
REMARK    7  A    between atoms: C_15  and  N_24
REMARK    8  A    between atoms: C_20  and  O_23
REMARK    9  A    between atoms: N_24  and  C_25
REMARK   10  A    between atoms: C_26  and  C_28
REMARK   11  A    between atoms: C_28  and  C_29
REMARK   12  A    between atoms: C_29  and  C_30
REMARK   13  A    between atoms: C_33  and  O_36
REMARK   14  A    between atoms: O_36  and  C_37
REMARK                            x       y       z     vdW  Elec       q    Type
REMARK                         _______ _______ _______ _____ _____    ______ ____
ROOT
ATOM      1  C   UNL     1       3.215  -4.926   3.538  0.00  0.00    +0.192 C 
ENDROOT
BRANCH   1   2
ATOM      2  C   UNL     1       2.466  -3.764   4.139  0.00  0.00    -0.018 A 
ATOM      3  C   UNL     1       1.123  -3.589   3.859  0.00  0.00    +0.009 A 
ATOM      4  C   UNL     1       0.435  -2.525   4.408  0.00  0.00    +0.046 A 
ATOM      5  C   UNL     1       1.092  -1.631   5.241  0.00  0.00    +0.117 A 
ATOM      6  C   UNL     1       2.439  -1.809   5.521  0.00  0.00    +0.046 A 
ATOM      7  C   UNL     1       3.122  -2.878   4.973  0.00  0.00    +0.009 A 
BRANCH   5   8
ATOM      8  O   UNL     1       0.417  -0.583   5.782  0.00  0.00    -0.507 OA
ATOM      9  H   UNL     1       0.011  -0.776   6.638  0.00  0.00    +0.292 HD
ENDBRANCH   5   8
ENDBRANCH   1   2
BRANCH   1  11
ATOM     10  N   UNL     1       3.224  -3.970   1.257  0.00  0.00    -0.294 N 
ATOM     11  C   UNL     1       2.918  -5.006   2.063  0.00  0.00    +0.239 C 
ATOM     12  O   UNL     1       2.404  -6.003   1.601  0.00  0.00    -0.273 OA
ATOM     13  H   UNL     1       3.635  -3.173   1.627  0.00  0.00    +0.150 HD
BRANCH  10  14
ATOM     14  C   UNL     1       2.936  -4.048  -0.177  0.00  0.00    +0.278 C 
BRANCH  14  15
ATOM     15  S   UNL     1       1.330  -3.274  -0.514  0.00  0.00    +0.013 S 
ATOM     16  O   UNL     1       0.358  -3.741   0.412  0.00  0.00    -0.168 OA
ATOM     17  O   UNL     1       1.065  -3.285  -1.910  0.00  0.00    -0.168 OA
BRANCH  15  22
ATOM     18  C   UNL     1       2.093   2.551   0.861  0.00  0.00    +0.044 C 
ATOM     19  C   UNL     1       1.902   1.096   0.518  0.00  0.00    -0.050 A 
ATOM     20  C   UNL     1       2.159   0.649  -0.765  0.00  0.00    +0.005 A 
ATOM     21  C   UNL     1       1.984  -0.685  -1.080  0.00  0.00    +0.027 A 
ATOM     22  C   UNL     1       1.554  -1.573  -0.112  0.00  0.00    +0.090 A 
ATOM     23  C   UNL     1       1.298  -1.127   1.171  0.00  0.00    +0.027 A 
ATOM     24  C   UNL     1       1.477   0.207   1.487  0.00  0.00    +0.005 A 
ENDBRANCH  15  22
ENDBRANCH  14  15
ENDBRANCH  10  14
ENDBRANCH   1  11
BRANCH   1  25
ATOM     25  N   UNL     1       2.792  -6.168   4.189  0.00  0.00    -0.289 N 
ATOM     26  C   UNL     1       1.418  -6.651   4.024  0.00  0.00    +0.133 C 
ATOM     27  C   UNL     1       3.666  -6.867   4.941  0.00  0.00    +0.216 C 
ATOM     28  O   UNL     1       4.803  -6.467   5.077  0.00  0.00    -0.276 OA
BRANCH  27  29
ATOM     29  C   UNL     1       3.231  -8.145   5.610  0.00  0.00    +0.100 C 
BRANCH  29  30
ATOM     30  C   UNL     1       4.404  -8.735   6.395  0.00  0.00    +0.044 C 
BRANCH  30  31
ATOM     31  C   UNL     1       3.969 -10.013   7.065  0.00  0.00    -0.047 A 
ATOM     32  C   UNL     1       3.430  -9.976   8.337  0.00  0.00    +0.007 A 
ATOM     33  C   UNL     1       3.030 -11.146   8.954  0.00  0.00    +0.046 A 
ATOM     34  C   UNL     1       3.171 -12.359   8.294  0.00  0.00    +0.120 A 
ATOM     35  C   UNL     1       3.712 -12.393   7.018  0.00  0.00    +0.046 A 
ATOM     36  C   UNL     1       4.105 -11.219   6.404  0.00  0.00    +0.007 A 
BRANCH  34  37
ATOM     37  O   UNL     1       2.779 -13.511   8.899  0.00  0.00    -0.495 OA
ATOM     38  C   UNL     1       2.954 -14.722   8.161  0.00  0.00    +0.277 C 
ENDBRANCH  34  37
ENDBRANCH  30  31
ENDBRANCH  29  30
ENDBRANCH  27  29
ENDBRANCH   1  25
TORSDOF 11
