REMARK  Name = ZINC12717463
REMARK  10 active torsions:
REMARK  status: ('A' for Active; 'I' for Inactive)
REMARK    1  A    between atoms: C_1  and  C_2
REMARK    2  A    between atoms: C_2  and  C_3
REMARK    3  A    between atoms: C_10  and  C_15
REMARK    4  A    between atoms: C_15  and  N_60
REMARK    5  A    between atoms: C_16  and  C_17
REMARK    6  A    between atoms: C_16  and  N_60
REMARK    7  A    between atoms: C_22  and  C_23
REMARK    8  A    between atoms: C_22  and  N_60
REMARK    9  A    between atoms: N_27  and  C_28
REMARK   10  A    between atoms: C_28  and  C_29
REMARK                            x       y       z     vdW  Elec       q    Type
REMARK                         _______ _______ _______ _____ _____    ______ ____
ROOT
ATOM      1  N   UNL     1      -0.037  -1.089   1.968  0.00  0.00    +0.392 N 
ATOM      2  H   UNL     1       0.319  -0.194   1.614  0.00  0.00    -0.080 HD
ENDROOT
BRANCH   1   3
ATOM      3  C   UNL     1       0.651  -2.192   1.264  0.00  0.00    -0.036 C 
BRANCH   3  11
ATOM      4  C   UNL     1       3.095   0.060  -3.956  0.00  0.00    -0.047 A 
ATOM      5  C   UNL     1       2.033  -0.280  -4.784  0.00  0.00    +0.005 A 
ATOM      6  C   UNL     1       0.922  -0.919  -4.277  0.00  0.00    +0.026 A 
ATOM      7  C   UNL     1       0.862  -1.227  -2.922  0.00  0.00    +0.049 A 
ATOM      8  C   UNL     1       1.940  -0.881  -2.085  0.00  0.00    -0.001 A 
ATOM      9  C   UNL     1       3.057  -0.232  -2.622  0.00  0.00    +0.013 A 
ATOM     10  C   UNL     1       1.867  -1.210  -0.661  0.00  0.00    +0.017 A 
ATOM     11  C   UNL     1       0.758  -1.839  -0.197  0.00  0.00    +0.001 A 
ATOM     12  C   UNL     1      -0.292  -2.170  -1.079  0.00  0.00    +0.251 A 
ATOM     13  O   UNL     1      -1.277  -2.740  -0.643  0.00  0.00    -0.268 OA
ATOM     14  N   UNL     1      -0.237  -1.867  -2.388  0.00  0.00    -0.322 N 
ATOM     15  H   UNL     1      -0.979  -2.105  -2.966  0.00  0.00    +0.169 HD
BRANCH   4  17
ATOM     16  C   UNL     1       5.321  -0.282  -4.992  0.00  0.00    +0.009 C 
ATOM     17  C   UNL     1       4.298   0.759  -4.533  0.00  0.00    +0.032 C 
ENDBRANCH   4  17
ENDBRANCH   3  11
ENDBRANCH   1   3
BRANCH   1  18
ATOM     18  C   UNL     1       0.231  -1.172   3.419  0.00  0.00    -0.002 C 
BRANCH  18  19
ATOM     19  C   UNL     1       1.651  -0.737   3.675  0.00  0.00    +0.089 A 
ATOM     20  C   UNL     1       2.047   0.510   3.990  0.00  0.00    +0.042 A 
ATOM     21  C   UNL     1       3.452   0.467   4.141  0.00  0.00    +0.041 A 
ATOM     22  C   UNL     1       3.831  -0.802   3.908  0.00  0.00    +0.195 A 
ATOM     23  O   UNL     1       2.735  -1.528   3.632  0.00  0.00    -0.470 OA
ENDBRANCH  18  19
ENDBRANCH   1  18
BRANCH   1  24
ATOM     24  C   UNL     1      -1.492  -1.161   1.718  0.00  0.00    +0.001 C 
BRANCH  24  25
ATOM     25  C   UNL     1      -2.147   0.066   2.299  0.00  0.00    +0.135 A 
ATOM     26  N   UNL     1      -2.547   0.228   3.537  0.00  0.00    -0.115 NA
ATOM     27  N   UNL     1      -3.058   1.406   3.638  0.00  0.00    -0.023 NA
ATOM     28  N   UNL     1      -2.990   2.002   2.499  0.00  0.00    -0.044 NA
ATOM     29  N   UNL     1      -2.431   1.209   1.648  0.00  0.00    -0.227 N 
BRANCH  29  30
ATOM     30  C   UNL     1      -2.162   1.497   0.237  0.00  0.00    +0.182 C 
BRANCH  30  31
ATOM     31  C   UNL     1      -0.882   2.283   0.120  0.00  0.00    -0.026 A 
ATOM     32  C   UNL     1       0.333   1.623   0.078  0.00  0.00    +0.005 A 
ATOM     33  C   UNL     1       1.507   2.344  -0.035  0.00  0.00    +0.000 A 
ATOM     34  C   UNL     1       1.467   3.724  -0.101  0.00  0.00    +0.000 A 
ATOM     35  C   UNL     1       0.254   4.384  -0.054  0.00  0.00    +0.000 A 
ATOM     36  C   UNL     1      -0.921   3.663   0.059  0.00  0.00    +0.005 A 
ENDBRANCH  30  31
ENDBRANCH  29  30
ENDBRANCH  24  25
ENDBRANCH   1  24
TORSDOF 9
