REMARK  Name = ZINC45247574
REMARK  11 active torsions:
REMARK  status: ('A' for Active; 'I' for Inactive)
REMARK    1  A    between atoms: C_1  and  C_2
REMARK    2  A    between atoms: C_2  and  C_3
REMARK    3  A    between atoms: C_3  and  C_5
REMARK    4  A    between atoms: C_3  and  C_6
REMARK    5  A    between atoms: C_11  and  N_12
REMARK    6  A    between atoms: C_13  and  C_15
REMARK    7  A    between atoms: C_15  and  C_17
REMARK    8  A    between atoms: C_15  and  O_18
REMARK    9  A    between atoms: O_18  and  C_19
REMARK   10  A    between atoms: C_19  and  C_21
REMARK   11  A    between atoms: C_21  and  C_26
REMARK                            x       y       z     vdW  Elec       q    Type
REMARK                         _______ _______ _______ _____ _____    ______ ____
ROOT
ATOM      1  N   UNL     1      -0.653  -1.740  -3.293  0.00  0.00    -0.282 N 
ATOM      2  C   UNL     1      -1.427  -2.279  -4.255  0.00  0.00    +0.258 C 
ATOM      3  O   UNL     1      -1.674  -3.466  -4.241  0.00  0.00    -0.271 OA
ATOM      4  H   UNL     1      -0.503  -0.782  -3.271  0.00  0.00    +0.155 HD
ENDROOT
BRANCH   1  10
ATOM      5  C   UNL     1       1.104  -2.165  -1.691  0.00  0.00    -0.023 A 
ATOM      6  C   UNL     1       1.678  -2.977  -0.732  0.00  0.00    +0.006 A 
ATOM      7  C   UNL     1       1.093  -4.187  -0.408  0.00  0.00    +0.000 A 
ATOM      8  C   UNL     1      -0.068  -4.589  -1.043  0.00  0.00    +0.002 A 
ATOM      9  C   UNL     1      -0.648  -3.781  -2.002  0.00  0.00    +0.023 A 
ATOM     10  C   UNL     1      -0.065  -2.563  -2.325  0.00  0.00    +0.037 A 
BRANCH   5  11
ATOM     11  C   UNL     1       1.742  -0.846  -2.043  0.00  0.00    +0.017 C 
ATOM     12  C   UNL     1       3.198  -1.077  -2.453  0.00  0.00    +0.012 C 
BRANCH  11  14
ATOM     13  C   UNL     1       2.229   1.463  -1.220  0.00  0.00    +0.004 C 
ATOM     14  C   UNL     1       1.696   0.083  -0.828  0.00  0.00    +0.004 C 
ENDBRANCH  11  14
ENDBRANCH   5  11
ENDBRANCH   1  10
BRANCH   2  15
ATOM     15  C   UNL     1      -1.987  -1.405  -5.348  0.00  0.00    +0.259 C 
ATOM     16  C   UNL     1      -0.841  -0.854  -6.198  0.00  0.00    +0.062 C 
BRANCH  15  17
ATOM     17  O   UNL     1      -2.863  -2.177  -6.173  0.00  0.00    -0.452 OA
BRANCH  17  18
ATOM     18  C   UNL     1      -3.880  -1.526  -6.758  0.00  0.00    +0.317 C 
ATOM     19  O   UNL     1      -4.023  -0.340  -6.576  0.00  0.00    -0.250 OA
BRANCH  18  20
ATOM     20  C   UNL     1      -4.845  -2.274  -7.642  0.00  0.00    +0.100 C 
ATOM     21  C   UNL     1      -4.816  -1.964  -9.140  0.00  0.00    +0.060 C 
ATOM     22  C   UNL     1      -5.983  -1.476  -8.280  0.00  0.00    +0.135 C 
ATOM     23 CL   UNL     1      -7.571  -2.307  -8.482  0.00  0.00    -0.100 Cl
ATOM     24 CL   UNL     1      -6.069   0.288  -7.916  0.00  0.00    -0.100 Cl
ATOM     25  C   UNL     1      -5.140  -3.716  -7.224  0.00  0.00    +0.026 C 
ENDBRANCH  18  20
ENDBRANCH  17  18
ENDBRANCH  15  17
ENDBRANCH   2  15
TORSDOF 7
