REMARK  Name = ZINC36772023
REMARK  7 active torsions:
REMARK  status: ('A' for Active; 'I' for Inactive)
REMARK    1  A    between atoms: C_5  and  C_7
REMARK    2  A    between atoms: C_10  and  S_17
REMARK    3  A    between atoms: N_11  and  C_12
REMARK    4  A    between atoms: S_17  and  C_18
REMARK    5  A    between atoms: C_18  and  C_19
REMARK    6  A    between atoms: N_21  and  C_22
REMARK    7  A    between atoms: C_22  and  C_23
REMARK                            x       y       z     vdW  Elec       q    Type
REMARK                         _______ _______ _______ _____ _____    ______ ____
ROOT
ATOM      1  C   UNL     1       1.187  -2.239  -0.436  0.00  0.00    +0.167 A 
ATOM      2  N   UNL     1       2.279  -2.964  -0.368  0.00  0.00    -0.128 NA
ATOM      3  N   UNL     1       2.011  -4.112   0.145  0.00  0.00    -0.122 NA
ATOM      4  C   UNL     1       0.731  -4.190   0.435  0.00  0.00    +0.193 A 
ATOM      5  N   UNL     1       0.163  -2.999   0.081  0.00  0.00    -0.299 N 
ENDROOT
BRANCH   1  10
ATOM      6  C   UNL     1      -0.213   1.129  -1.333  0.00  0.00    +0.001 A 
ATOM      7  C   UNL     1       0.875   1.718  -1.952  0.00  0.00    +0.001 A 
ATOM      8  C   UNL     1       2.065   1.024  -2.080  0.00  0.00    +0.021 A 
ATOM      9  C   UNL     1       2.174  -0.262  -1.589  0.00  0.00    +0.052 A 
ATOM     10  C   UNL     1       1.079  -0.862  -0.964  0.00  0.00    +0.038 A 
ATOM     11  C   UNL     1      -0.119  -0.156  -0.839  0.00  0.00    +0.013 A 
ATOM     12 CL   UNL     1       3.667  -1.132  -1.751  0.00  0.00    -0.083 Cl
ENDBRANCH   1  10
BRANCH   5  13
ATOM     13  C   UNL     1      -1.243  -2.613   0.220  0.00  0.00    +0.091 C 
ATOM     14  C   UNL     1      -2.123  -3.871   0.373  0.00  0.00    +0.025 C 
ATOM     15  C   UNL     1      -2.296  -4.030   1.904  0.00  0.00    +0.002 C 
ATOM     16  C   UNL     1      -2.429  -2.564   2.386  0.00  0.00    +0.002 C 
ATOM     17  C   UNL     1      -1.438  -1.782   1.500  0.00  0.00    +0.025 C 
ENDBRANCH   5  13
BRANCH   4  18
ATOM     18  S   UNL     1      -0.096  -5.570   1.153  0.00  0.00    -0.077 S 
BRANCH  18  19
ATOM     19  C   UNL     1       1.218  -6.800   1.379  0.00  0.00    +0.173 C 
BRANCH  19  20
ATOM     20  C   UNL     1       0.638  -8.047   1.995  0.00  0.00    +0.223 C 
ATOM     21  O   UNL     1      -0.545  -8.101   2.255  0.00  0.00    -0.275 OA
ATOM     22  N   UNL     1       1.434  -9.103   2.256  0.00  0.00    -0.311 N 
ATOM     23  H   UNL     1       2.381  -9.060   2.047  0.00  0.00    +0.149 HD
BRANCH  22  24
ATOM     24  C   UNL     1       0.870 -10.315   2.854  0.00  0.00    +0.152 C 
BRANCH  24  25
ATOM     25  C   UNL     1       1.979 -11.353   3.044  0.00  0.00    +0.228 C 
ATOM     26  C   UNL     1       1.376 -12.664   3.568  0.00  0.00    +0.275 C 
ATOM     27  O   UNL     1       2.439 -13.605   3.748  0.00  0.00    -0.485 OA
ATOM     28  C   UNL     1       3.555 -13.154   4.383  0.00  0.00    +0.162 A 
ATOM     29  C   UNL     1       4.455 -14.068   4.910  0.00  0.00    +0.049 A 
ATOM     30  C   UNL     1       5.595 -13.625   5.555  0.00  0.00    +0.004 A 
ATOM     31  C   UNL     1       5.840 -12.270   5.677  0.00  0.00    +0.004 A 
ATOM     32  C   UNL     1       4.946 -11.354   5.156  0.00  0.00    +0.049 A 
ATOM     33  C   UNL     1       3.800 -11.792   4.509  0.00  0.00    +0.163 A 
ATOM     34  O   UNL     1       2.925 -10.877   4.008  0.00  0.00    -0.480 OA
ENDBRANCH  24  25
ENDBRANCH  22  24
ENDBRANCH  19  20
ENDBRANCH  18  19
ENDBRANCH   4  18
TORSDOF 7
