REMARK  Name = ZINC41349364
REMARK  8 active torsions:
REMARK  status: ('A' for Active; 'I' for Inactive)
REMARK    1  A    between atoms: C_1  and  C_2
REMARK    2  A    between atoms: C_2  and  O_3
REMARK    3  A    between atoms: O_3  and  C_4
REMARK    4  A    between atoms: C_9  and  C_10
REMARK    5  A    between atoms: C_12  and  O_13
REMARK    6  A    between atoms: C_22  and  C_24
REMARK    7  A    between atoms: C_24  and  O_25
REMARK    8  A    between atoms: O_25  and  C_26
REMARK                            x       y       z     vdW  Elec       q    Type
REMARK                         _______ _______ _______ _____ _____    ______ ____
ROOT
ATOM      1  C   UNL     1      -4.075  -1.403   0.903  0.00  0.00    +0.143 A 
ATOM      2  C   UNL     1      -3.880  -0.057   0.658  0.00  0.00    +0.093 A 
ATOM      3  C   UNL     1      -4.958   0.740   0.274  0.00  0.00    +0.131 A 
ATOM      4  C   UNL     1      -6.233   0.133   0.146  0.00  0.00    +0.059 A 
ATOM      5  C   UNL     1      -7.353   0.887  -0.237  0.00  0.00    +0.017 A 
ATOM      6  C   UNL     1      -8.568   0.288  -0.355  0.00  0.00    +0.024 A 
ATOM      7  C   UNL     1      -8.710  -1.085  -0.093  0.00  0.00    +0.037 A 
ATOM      8  C   UNL     1      -7.605  -1.848   0.289  0.00  0.00    +0.070 A 
ATOM      9  C   UNL     1      -6.365  -1.247   0.411  0.00  0.00    +0.141 A 
ATOM     10  O   UNL     1      -5.285  -1.970   0.774  0.00  0.00    -0.454 OA
ATOM     11  N   UNL     1      -9.932  -1.675  -0.213  0.00  0.00    -0.283 N 
ATOM     12  C   UNL     1     -10.899  -1.060  -0.864  0.00  0.00    +0.255 C 
ATOM     13  O   UNL     1     -10.669  -0.024  -1.462  0.00  0.00    -0.272 OA
ATOM     14  H   UNL     1     -10.090  -2.547   0.180  0.00  0.00    +0.155 HD
ENDROOT
BRANCH   1  20
ATOM     15  C   UNL     1      -3.126  -3.575   1.675  0.00  0.00    +0.131 A 
ATOM     16  C   UNL     1      -2.038  -4.350   2.048  0.00  0.00    +0.046 A 
ATOM     17  C   UNL     1      -0.770  -3.803   2.064  0.00  0.00    +0.004 A 
ATOM     18  C   UNL     1      -0.573  -2.478   1.709  0.00  0.00    +0.001 A 
ATOM     19  C   UNL     1      -1.641  -1.693   1.334  0.00  0.00    +0.015 A 
ATOM     20  C   UNL     1      -2.930  -2.235   1.308  0.00  0.00    +0.059 A 
BRANCH  15  21
ATOM     21  O   UNL     1      -4.372  -4.112   1.659  0.00  0.00    -0.492 OA
BRANCH  21  23
ATOM     22  C   UNL     1      -5.961  -5.906   1.965  0.00  0.00    +0.048 C 
ATOM     23  C   UNL     1      -4.493  -5.482   2.045  0.00  0.00    +0.226 C 
ENDBRANCH  21  23
ENDBRANCH  15  21
ENDBRANCH   1  20
BRANCH   3  24
ATOM     24  O   UNL     1      -4.791   2.058   0.029  0.00  0.00    -0.506 OA
ATOM     25  H   UNL     1      -3.882   2.367   0.145  0.00  0.00    +0.292 HD
ENDBRANCH   3  24
BRANCH  12  26
ATOM     26  C   UNL     1     -12.291  -1.638  -0.868  0.00  0.00    +0.325 C 
BRANCH  26  27
ATOM     27  O   UNL     1     -13.155  -0.797  -1.635  0.00  0.00    -0.477 OA
BRANCH  27  28
ATOM     28  C   UNL     1     -14.456  -1.179  -1.740  0.00  0.00    +0.197 A 
ATOM     29  C   UNL     1     -14.855  -2.009  -2.779  0.00  0.00    +0.206 A 
ATOM     30  C   UNL     1     -16.180  -2.397  -2.885  0.00  0.00    +0.200 A 
ATOM     31  C   UNL     1     -17.108  -1.959  -1.953  0.00  0.00    +0.199 A 
ATOM     32  C   UNL     1     -16.711  -1.130  -0.916  0.00  0.00    +0.200 A 
ATOM     33  C   UNL     1     -15.385  -0.745  -0.805  0.00  0.00    +0.206 A 
ATOM     34  F   UNL     1     -14.997   0.059   0.210  0.00  0.00    -0.198 F 
ATOM     35  F   UNL     1     -17.617  -0.702  -0.009  0.00  0.00    -0.199 F 
ATOM     36  F   UNL     1     -18.400  -2.338  -2.057  0.00  0.00    -0.199 F 
ATOM     37  F   UNL     1     -16.568  -3.204  -3.896  0.00  0.00    -0.199 F 
ATOM     38  F   UNL     1     -13.950  -2.436  -3.687  0.00  0.00    -0.198 F 
ENDBRANCH  27  28
ENDBRANCH  26  27
ENDBRANCH  12  26
TORSDOF 7
