REMARK  Name = ZINC66937692
REMARK  5 active torsions:
REMARK  status: ('A' for Active; 'I' for Inactive)
REMARK    1  A    between atoms: C_1  and  N_2
REMARK    2  A    between atoms: N_2  and  C_3
REMARK    3  A    between atoms: N_2  and  S_9
REMARK    4  A    between atoms: S_9  and  N_12
REMARK    5  A    between atoms: C_16  and  C_18
REMARK                            x       y       z     vdW  Elec       q    Type
REMARK                         _______ _______ _______ _____ _____    ______ ____
ROOT
ATOM      1  N   UNL     1       1.581  -1.045  -1.877  0.00  0.00    -0.159 NA
ATOM      2  C   UNL     1       2.383  -0.116  -2.693  0.00  0.00    +0.111 C 
ATOM      3  C   UNL     1       3.853  -0.418  -2.309  0.00  0.00    +0.019 C 
ATOM      4  C   UNL     1       3.816  -1.958  -2.123  0.00  0.00    +0.027 C 
ATOM      5  C   UNL     1       2.418  -2.197  -1.513  0.00  0.00    +0.114 C 
ENDROOT
BRANCH   5   6
ATOM      6  C   UNL     1       1.825  -3.462  -2.079  0.00  0.00    +0.017 A 
ATOM      7  C   UNL     1       1.015  -3.404  -3.198  0.00  0.00    +0.009 A 
ATOM      8  C   UNL     1       0.469  -4.562  -3.719  0.00  0.00    +0.004 A 
ATOM      9  C   UNL     1       0.729  -5.781  -3.122  0.00  0.00    +0.049 A 
ATOM     10  C   UNL     1       1.540  -5.846  -1.999  0.00  0.00    +0.162 A 
ATOM     11  C   UNL     1       2.096  -4.683  -1.480  0.00  0.00    +0.167 A 
ATOM     12  O   UNL     1       2.905  -4.725  -0.386  0.00  0.00    -0.485 OA
ATOM     13  C   UNL     1       2.852  -5.916   0.407  0.00  0.00    +0.270 C 
ATOM     14  C   UNL     1       2.912  -7.125  -0.537  0.00  0.00    +0.270 C 
ATOM     15  O   UNL     1       1.784  -7.053  -1.420  0.00  0.00    -0.485 OA
ENDBRANCH   5   6
BRANCH   1  16
ATOM     16  S   UNL     1      -0.000  -0.824  -1.437  0.00  0.00    +0.100 S 
ATOM     17  O   UNL     1      -0.531  -2.115  -1.167  0.00  0.00    -0.141 OA
ATOM     18  O   UNL     1      -0.572   0.049  -2.401  0.00  0.00    -0.141 OA
BRANCH  16  20
ATOM     19  C   UNL     1      -0.018   1.461   0.010  0.00  0.00    +0.133 C 
ATOM     20  N   UNL     1       0.002  -0.004   0.002  0.00  0.00    -0.166 NA
BRANCH  20  21
ATOM     21  C   UNL     1       0.024  -0.743   1.267  0.00  0.00    +0.081 C 
ATOM     22  C   UNL     1      -1.222  -0.395   2.083  0.00  0.00    +0.020 C 
ATOM     23  C   UNL     1      -1.199  -1.167   3.404  0.00  0.00    +0.002 C 
ATOM     24  C   UNL     1       0.052  -0.785   4.196  0.00  0.00    +0.000 C 
ATOM     25  C   UNL     1       1.299  -1.133   3.380  0.00  0.00    +0.002 C 
ATOM     26  C   UNL     1       1.276  -0.361   2.059  0.00  0.00    +0.020 C 
ENDBRANCH  20  21
ENDBRANCH  16  20
ENDBRANCH   1  16
TORSDOF 4
