REMARK  Name = ZINC10484475
REMARK  8 active torsions:
REMARK  status: ('A' for Active; 'I' for Inactive)
REMARK    1  A    between atoms: C_1  and  C_2
REMARK    2  A    between atoms: N_6  and  C_14
REMARK    3  A    between atoms: C_14  and  C_15
REMARK    4  A    between atoms: N_17  and  C_18
REMARK    5  A    between atoms: C_18  and  C_19
REMARK    6  A    between atoms: N_21  and  C_30
REMARK    7  A    between atoms: C_23  and  C_24
REMARK    8  A    between atoms: C_30  and  C_31
REMARK                            x       y       z     vdW  Elec       q    Type
REMARK                         _______ _______ _______ _____ _____    ______ ____
ROOT
ATOM      1  C   UNL     1      -5.239   0.811   4.222  0.00  0.00    +0.143 C 
ENDROOT
BRANCH   1   2
ATOM      2  C   UNL     1      -4.112   0.647   3.236  0.00  0.00    +0.015 A 
ATOM      3  C   UNL     1      -4.115   1.056   1.948  0.00  0.00    +0.114 A 
ATOM      4  N   UNL     1      -2.927   0.722   1.401  0.00  0.00    -0.266 N 
ATOM      5  N   UNL     1      -2.155   0.093   2.386  0.00  0.00    -0.171 NA
ATOM      6  C   UNL     1      -2.865   0.045   3.494  0.00  0.00    +0.097 A 
BRANCH   6   7
ATOM      7  C   UNL     1      -2.428  -0.540   4.786  0.00  0.00    +0.002 A 
ATOM      8  C   UNL     1      -2.830   0.040   5.987  0.00  0.00    +0.010 A 
ATOM      9  C   UNL     1      -2.426  -0.512   7.186  0.00  0.00    +0.001 A 
ATOM     10  C   UNL     1      -1.614  -1.632   7.196  0.00  0.00    +0.000 A 
ATOM     11  C   UNL     1      -1.206  -2.208   6.006  0.00  0.00    +0.001 A 
ATOM     12  C   UNL     1      -1.609  -1.668   4.802  0.00  0.00    +0.010 A 
ENDBRANCH   6   7
BRANCH   4  13
ATOM     13  C   UNL     1      -2.514   0.980   0.019  0.00  0.00    +0.178 C 
BRANCH  13  14
ATOM     14  C   UNL     1      -1.219   1.751   0.017  0.00  0.00    -0.026 A 
ATOM     15  C   UNL     1      -0.013   1.076   0.008  0.00  0.00    +0.005 A 
ATOM     16  C   UNL     1       1.175   1.783   0.000  0.00  0.00    +0.000 A 
ATOM     17  C   UNL     1       1.156   3.165   0.008  0.00  0.00    +0.000 A 
ATOM     18  C   UNL     1      -0.050   3.840   0.022  0.00  0.00    +0.000 A 
ATOM     19  C   UNL     1      -1.238   3.133   0.030  0.00  0.00    +0.005 A 
ENDBRANCH  13  14
ENDBRANCH   4  13
ENDBRANCH   1   2
BRANCH   1  22
ATOM     20  C   UNL     1      -5.845   2.303   6.051  0.00  0.00    +0.231 C 
ATOM     21  O   UNL     1      -6.859   1.656   6.204  0.00  0.00    -0.274 OA
ATOM     22  N   UNL     1      -4.967   1.963   5.086  0.00  0.00    -0.310 N 
ATOM     23  H   UNL     1      -4.156   2.480   4.964  0.00  0.00    +0.149 HD
BRANCH  20  24
ATOM     24  C   UNL     1      -5.566   3.488   6.940  0.00  0.00    +0.209 C 
BRANCH  24  29
ATOM     25  C   UNL     1      -8.805   2.079   9.783  0.00  0.00    +0.062 C 
ATOM     26  C   UNL     1      -7.772   3.174  10.057  0.00  0.00    +0.256 C 
ATOM     27  C   UNL     1      -6.618   3.028   9.099  0.00  0.00    +0.261 C 
ATOM     28  O   UNL     1      -5.655   2.357   9.403  0.00  0.00    -0.271 OA
ATOM     29  N   UNL     1      -6.661   3.647   7.899  0.00  0.00    -0.256 N 
ATOM     30  C   UNL     1      -7.768   4.450   7.588  0.00  0.00    +0.079 A 
ATOM     31  C   UNL     1      -8.011   4.846   6.283  0.00  0.00    +0.027 A 
ATOM     32  C   UNL     1      -9.108   5.639   5.998  0.00  0.00    +0.002 A 
ATOM     33  C   UNL     1      -9.960   6.037   7.012  0.00  0.00    +0.004 A 
ATOM     34  C   UNL     1      -9.729   5.636   8.312  0.00  0.00    +0.047 A 
ATOM     35  C   UNL     1      -8.631   4.847   8.607  0.00  0.00    +0.143 A 
ATOM     36  O   UNL     1      -8.381   4.457   9.885  0.00  0.00    -0.478 OA
ENDBRANCH  24  29
ENDBRANCH  20  24
ENDBRANCH   1  22
TORSDOF 7
