REMARK  Name = ZINC10166438
REMARK  11 active torsions:
REMARK  status: ('A' for Active; 'I' for Inactive)
REMARK    1  A    between atoms: C_1  and  C_2
REMARK    2  A    between atoms: C_2  and  C_3
REMARK    3  A    between atoms: C_3  and  C_29
REMARK    4  A    between atoms: N_6  and  C_10
REMARK    5  A    between atoms: C_10  and  C_11
REMARK    6  A    between atoms: C_11  and  O_13
REMARK    7  A    between atoms: O_13  and  C_14
REMARK    8  A    between atoms: C_14  and  C_16
REMARK    9  A    between atoms: C_14  and  C_17
REMARK   10  A    between atoms: N_19  and  C_20
REMARK   11  A    between atoms: C_29  and  C_30
REMARK                            x       y       z     vdW  Elec       q    Type
REMARK                         _______ _______ _______ _____ _____    ______ ____
ROOT
ATOM      1  O   UNL     1       2.450  -3.874   0.801  0.00  0.00    -0.451 OA
ENDROOT
BRANCH   1   2
ATOM      2  C   UNL     1       1.987  -2.639   1.054  0.00  0.00    +0.326 C 
ATOM      3  O   UNL     1       1.680  -1.911   0.141  0.00  0.00    -0.249 OA
BRANCH   2   4
ATOM      4  C   UNL     1       1.852  -2.162   2.477  0.00  0.00    +0.238 C 
BRANCH   4   8
ATOM      5  C   UNL     1      -0.042   1.032   2.518  0.00  0.00    +0.112 C 
ATOM      6  C   UNL     1       0.020  -0.482   2.524  0.00  0.00    +0.247 C 
ATOM      7  O   UNL     1      -0.915  -1.253   2.557  0.00  0.00    -0.273 OA
ATOM      8  N   UNL     1       1.331  -0.793   2.485  0.00  0.00    -0.213 N 
ATOM      9  C   UNL     1       2.097   0.303   2.457  0.00  0.00    +0.310 C 
ATOM     10  O   UNL     1       3.312   0.278   2.420  0.00  0.00    -0.252 OA
ATOM     11  N   UNL     1       1.373   1.437   2.473  0.00  0.00    -0.285 N 
ATOM     12  H   UNL     1       1.717   2.344   2.458  0.00  0.00    +0.151 HD
BRANCH   5  14
ATOM     13  C   UNL     1      -0.065   1.051   0.020  0.00  0.00    +0.006 C 
ATOM     14  C   UNL     1      -0.786   1.536   1.279  0.00  0.00    +0.032 C 
ENDBRANCH   5  14
BRANCH   5  15
ATOM     15  C   UNL     1      -0.713   1.548   3.793  0.00  0.00    +0.032 C 
ATOM     16  C   UNL     1       0.119   1.136   5.009  0.00  0.00    +0.006 C 
ENDBRANCH   5  15
ENDBRANCH   4   8
ENDBRANCH   2   4
ENDBRANCH   1   2
BRANCH   1  17
ATOM     17  C   UNL     1       2.553  -4.267  -0.593  0.00  0.00    +0.259 C 
ATOM     18  C   UNL     1       1.242  -4.918  -1.038  0.00  0.00    +0.062 C 
BRANCH  17  19
ATOM     19  C   UNL     1       3.683  -5.250  -0.754  0.00  0.00    +0.258 C 
ATOM     20  O   UNL     1       4.278  -5.657   0.221  0.00  0.00    -0.271 OA
ATOM     21  N   UNL     1       4.033  -5.679  -1.984  0.00  0.00    -0.281 N 
ATOM     22  H   UNL     1       3.517  -5.405  -2.758  0.00  0.00    +0.155 HD
BRANCH  21  23
ATOM     23  C   UNL     1       5.142  -6.519  -2.143  0.00  0.00    +0.053 A 
ATOM     24  C   UNL     1       5.444  -7.463  -1.171  0.00  0.00    +0.046 A 
ATOM     25  C   UNL     1       6.539  -8.292  -1.331  0.00  0.00    +0.061 A 
ATOM     26  C   UNL     1       7.334  -8.181  -2.460  0.00  0.00    +0.061 A 
ATOM     27  C   UNL     1       7.035  -7.241  -3.430  0.00  0.00    +0.043 A 
ATOM     28  C   UNL     1       5.938  -6.413  -3.277  0.00  0.00    +0.064 A 
ATOM     29 CL   UNL     1       5.559  -5.238  -4.498  0.00  0.00    -0.082 Cl
ATOM     30 CL   UNL     1       8.707  -9.223  -2.659  0.00  0.00    -0.082 Cl
ATOM     31 CL   UNL     1       6.918  -9.472  -0.116  0.00  0.00    -0.082 Cl
ENDBRANCH  21  23
ENDBRANCH  17  19
ENDBRANCH   1  17
TORSDOF 8
