REMARK  Name = ZINC40042399
REMARK  10 active torsions:
REMARK  status: ('A' for Active; 'I' for Inactive)
REMARK    1  A    between atoms: C_1  and  C_2
REMARK    2  A    between atoms: C_2  and  C_3
REMARK    3  A    between atoms: N_16  and  C_29
REMARK    4  A    between atoms: C_17  and  C_19
REMARK    5  A    between atoms: C_21  and  O_27
REMARK    6  A    between atoms: C_22  and  O_26
REMARK    7  A    between atoms: O_27  and  C_28
REMARK    8  A    between atoms: C_29  and  C_30
REMARK    9  A    between atoms: C_30  and  O_31
REMARK   10  A    between atoms: O_31  and  C_32
REMARK                            x       y       z     vdW  Elec       q    Type
REMARK                         _______ _______ _______ _____ _____    ______ ____
ROOT
ATOM      1  C   UNL     1       0.707  -0.490  -1.238  0.00  0.00    -0.047 A 
ATOM      2  C   UNL     1      -0.016  -0.719  -2.400  0.00  0.00    +0.007 A 
ATOM      3  C   UNL     1       0.609  -1.166  -3.543  0.00  0.00    +0.047 A 
ATOM      4  C   UNL     1       1.985  -1.393  -3.544  0.00  0.00    +0.139 A 
ATOM      5  C   UNL     1       2.707  -1.153  -2.364  0.00  0.00    +0.065 A 
ATOM      6  C   UNL     1       2.058  -0.699  -1.216  0.00  0.00    +0.019 A 
ATOM      7  C   UNL     1       4.175  -1.377  -2.359  0.00  0.00    +0.199 A 
ATOM      8  O   UNL     1       4.850  -1.357  -1.345  0.00  0.00    -0.287 OA
ATOM      9  C   UNL     1       4.734  -1.627  -3.692  0.00  0.00    +0.072 A 
ATOM     10  C   UNL     1       3.921  -1.838  -4.769  0.00  0.00    +0.199 A 
ATOM     11  O   UNL     1       2.576  -1.839  -4.675  0.00  0.00    -0.450 OA
ATOM     12  C   UNL     1       4.769  -2.048  -5.955  0.00  0.00    +0.283 C 
ATOM     13  O   UNL     1       4.356  -2.259  -7.078  0.00  0.00    -0.267 OA
ATOM     14  N   UNL     1       6.072  -1.972  -5.613  0.00  0.00    -0.281 N 
ATOM     15  C   UNL     1       6.148  -1.704  -4.167  0.00  0.00    +0.145 C 
ENDROOT
BRANCH  15  16
ATOM     16  C   UNL     1       6.871  -2.826  -3.468  0.00  0.00    -0.018 A 
ATOM     17  C   UNL     1       7.722  -2.547  -2.414  0.00  0.00    +0.055 A 
ATOM     18  C   UNL     1       8.387  -3.578  -1.770  0.00  0.00    +0.163 A 
ATOM     19  C   UNL     1       8.197  -4.892  -2.185  0.00  0.00    +0.173 A 
ATOM     20  C   UNL     1       7.343  -5.165  -3.242  0.00  0.00    +0.063 A 
ATOM     21  C   UNL     1       6.678  -4.132  -3.877  0.00  0.00    +0.025 A 
ATOM     22 BR   UNL     1       7.081  -6.949  -3.810  0.00  0.00    -0.046 Br
BRANCH  19  23
ATOM     23  O   UNL     1       8.849  -5.907  -1.556  0.00  0.00    -0.503 OA
ATOM     24  H   UNL     1       8.364  -6.282  -0.808  0.00  0.00    +0.292 HD
ENDBRANCH  19  23
BRANCH  18  25
ATOM     25  O   UNL     1       9.225  -3.305  -0.734  0.00  0.00    -0.491 OA
ATOM     26  C   UNL     1       9.372  -1.933  -0.362  0.00  0.00    +0.277 C 
ENDBRANCH  18  25
ENDBRANCH  15  16
BRANCH   1  28
ATOM     27  C   UNL     1      -0.019   1.526   0.010  0.00  0.00    +0.009 C 
ATOM     28  C   UNL     1       0.002  -0.004   0.002  0.00  0.00    +0.032 C 
ENDBRANCH   1  28
BRANCH  14  29
ATOM     29  C   UNL     1       7.211  -2.129  -6.520  0.00  0.00    +0.137 C 
BRANCH  29  30
ATOM     30  C   UNL     1       7.594  -0.765  -7.099  0.00  0.00    +0.178 C 
BRANCH  30  31
ATOM     31  O   UNL     1       8.062   0.084  -6.048  0.00  0.00    -0.381 OA
ATOM     32  C   UNL     1       8.447   1.389  -6.483  0.00  0.00    +0.194 C 
ENDBRANCH  30  31
ENDBRANCH  29  30
ENDBRANCH  14  29
TORSDOF 7
