REMARK  Name = ZINC38782846
REMARK  4 active torsions:
REMARK  status: ('A' for Active; 'I' for Inactive)
REMARK    1  A    between atoms: C_3  and  C_6
REMARK    2  A    between atoms: C_8  and  C_12
REMARK    3  A    between atoms: C_16  and  S_28
REMARK    4  A    between atoms: N_18  and  C_19
REMARK                            x       y       z     vdW  Elec       q    Type
REMARK                         _______ _______ _______ _____ _____    ______ ____
ROOT
ATOM      1  C   UNL     1       6.496  -0.464  -1.095  0.00  0.00    +0.188 C 
ATOM      2  N   UNL     1       6.556  -1.936  -1.240  0.00  0.00    -0.232 NA
ATOM      3  N   UNL     1       7.746  -2.173  -2.073  0.00  0.00    -0.226 NA
ATOM      4  C   UNL     1       8.705  -1.147  -1.585  0.00  0.00    +0.214 C 
ATOM      5  N   UNL     1       7.864   0.038  -1.315  0.00  0.00    -0.286 N 
ATOM      6  H   UNL     1       6.649  -2.385  -0.341  0.00  0.00    +0.143 HD
ATOM      7  H   UNL     1       8.108  -3.104  -1.929  0.00  0.00    +0.143 HD
ENDROOT
BRANCH   5   8
ATOM      8  C   UNL     1       8.283   1.372  -1.275  0.00  0.00    +0.037 A 
ATOM      9  C   UNL     1       9.155   1.797  -0.281  0.00  0.00    +0.027 A 
ATOM     10  C   UNL     1       9.570   3.114  -0.241  0.00  0.00    +0.051 A 
ATOM     11  C   UNL     1       9.118   4.015  -1.192  0.00  0.00    +0.166 A 
ATOM     12  C   UNL     1       8.243   3.592  -2.190  0.00  0.00    +0.168 A 
ATOM     13  C   UNL     1       7.832   2.270  -2.232  0.00  0.00    +0.072 A 
ATOM     14  O   UNL     1       7.949   4.657  -2.992  0.00  0.00    -0.453 OA
ATOM     15  C   UNL     1       8.327   5.823  -2.238  0.00  0.00    +0.466 C 
ATOM     16  O   UNL     1       9.372   5.346  -1.370  0.00  0.00    -0.453 OA
ENDBRANCH   5   8
BRANCH   1  19
ATOM     17  C   UNL     1       3.866   0.364   0.811  0.00  0.00    +0.126 C 
ATOM     18  C   UNL     1       4.661  -0.705   0.597  0.00  0.00    +0.037 C 
ATOM     19  C   UNL     1       6.022  -0.095   0.312  0.00  0.00    +0.189 C 
ATOM     20  N   UNL     1       5.771   1.352   0.417  0.00  0.00    -0.176 NA
ATOM     21  N   UNL     1       4.578   1.516   0.684  0.00  0.00    -0.151 NA
BRANCH  17  24
ATOM     22  C   UNL     1       0.323   0.830   1.614  0.00  0.00    +0.042 A 
ATOM     23  C   UNL     1       1.602   1.356   1.345  0.00  0.00    +0.051 A 
ATOM     24  C   UNL     1       2.425   0.294   1.130  0.00  0.00    +0.154 A 
ATOM     25  O   UNL     1       1.698  -0.832   1.260  0.00  0.00    -0.461 OA
ATOM     26  C   UNL     1       0.427  -0.512   1.552  0.00  0.00    +0.196 A 
ENDBRANCH  17  24
ENDBRANCH   1  19
BRANCH   4  27
ATOM     27  S   UNL     1       9.519  -1.712  -0.065  0.00  0.00    -0.139 S 
ATOM     28  H   UNL     1      10.173  -2.826  -0.441  0.00  0.00    +0.105 HD
ENDBRANCH   4  27
TORSDOF 4
