REMARK  Name = ZINC51585662
REMARK  5 active torsions:
REMARK  status: ('A' for Active; 'I' for Inactive)
REMARK    1  A    between atoms: C_1  and  N_2
REMARK    2  A    between atoms: N_2  and  C_3
REMARK    3  A    between atoms: C_3  and  C_4
REMARK    4  A    between atoms: C_3  and  C_7
REMARK    5  A    between atoms: N_12  and  C_13
REMARK                            x       y       z     vdW  Elec       q    Type
REMARK                         _______ _______ _______ _____ _____    ______ ____
ROOT
ATOM      1  C   UNL     1      -0.089   1.410   0.049  0.00  0.00    +0.134 C 
ATOM      2  N   UNL     1      -0.188  -0.051   0.019  0.00  0.00    -0.285 N 
ATOM      3  C   UNL     1      -0.254  -0.698  -1.162  0.00  0.00    +0.306 C 
ATOM      4  O   UNL     1      -0.337  -1.911  -1.187  0.00  0.00    -0.252 OA
ATOM      5  N   UNL     1      -0.229  -0.001  -2.315  0.00  0.00    -0.269 N 
ATOM      6  H   UNL     1      -0.239   0.969  -2.295  0.00  0.00    +0.156 HD
ENDROOT
BRANCH   5   7
ATOM      7  C   UNL     1      -0.188  -0.677  -3.542  0.00  0.00    +0.038 A 
ATOM      8  C   UNL     1      -0.820  -0.135  -4.653  0.00  0.00    +0.027 A 
ATOM      9  C   UNL     1      -0.781  -0.799  -5.866  0.00  0.00    +0.051 A 
ATOM     10  C   UNL     1      -0.111  -2.006  -5.969  0.00  0.00    +0.162 A 
ATOM     11  C   UNL     1       0.522  -2.549  -4.860  0.00  0.00    +0.164 A 
ATOM     12  C   UNL     1       0.489  -1.885  -3.646  0.00  0.00    +0.072 A 
ATOM     13  O   UNL     1       1.181  -3.739  -4.975  0.00  0.00    -0.488 OA
ATOM     14  C   UNL     1       0.362  -4.888  -5.202  0.00  0.00    +0.232 C 
ATOM     15  C   UNL     1       0.051  -5.045  -6.682  0.00  0.00    +0.082 C 
ATOM     16  C   UNL     1      -0.790  -3.898  -7.222  0.00  0.00    +0.232 C 
ATOM     17  O   UNL     1      -0.066  -2.668  -7.162  0.00  0.00    -0.488 OA
ENDBRANCH   5   7
BRANCH   2  18
ATOM     18  C   UNL     1      -0.216  -0.809   1.272  0.00  0.00    +0.083 C 
BRANCH  18  19
ATOM     19  C   UNL     1       1.050  -0.509   2.078  0.00  0.00    +0.010 C 
ATOM     20  C   UNL     1       2.120  -1.601   2.145  0.00  0.00    +0.006 C 
ATOM     21  C   UNL     1       1.264  -1.291   3.375  0.00  0.00    +0.006 C 
ENDBRANCH  18  19
BRANCH  18  22
ATOM     22  C   UNL     1      -1.446  -0.405   2.086  0.00  0.00    +0.010 C 
ATOM     23  C   UNL     1      -2.354  -1.525   2.598  0.00  0.00    +0.006 C 
ATOM     24  C   UNL     1      -2.819  -0.627   1.449  0.00  0.00    +0.006 C 
ENDBRANCH  18  22
ENDBRANCH   2  18
TORSDOF 4
