REMARK  Name = ZINC13031556
REMARK  15 active torsions:
REMARK  status: ('A' for Active; 'I' for Inactive)
REMARK    1  A    between atoms: C_1  and  C_2
REMARK    2  A    between atoms: C_5  and  O_37
REMARK    3  A    between atoms: C_6  and  N_8
REMARK    4  A    between atoms: N_8  and  C_9
REMARK    5  A    between atoms: C_9  and  C_11
REMARK    6  A    between atoms: C_9  and  C_17
REMARK    7  A    between atoms: C_14  and  C_16
REMARK    8  A    between atoms: N_19  and  C_20
REMARK    9  A    between atoms: C_20  and  C_21
REMARK   10  A    between atoms: C_21  and  C_22
REMARK   11  A    between atoms: C_22  and  C_23
REMARK   12  A    between atoms: C_22  and  C_24
REMARK   13  A    between atoms: C_25  and  C_27
REMARK   14  A    between atoms: C_27  and  N_28
REMARK   15  A    between atoms: O_37  and  C_38
REMARK                            x       y       z     vdW  Elec       q    Type
REMARK                         _______ _______ _______ _____ _____    ______ ____
ROOT
ATOM      1  N   UNL     1      -4.713   3.676  -2.468  0.00  0.00    -0.247 N 
ATOM      2  C   UNL     1      -3.591   3.734  -3.212  0.00  0.00    +0.242 C 
ATOM      3  O   UNL     1      -3.666   3.922  -4.408  0.00  0.00    -0.273 OA
ENDROOT
BRANCH   1   9
ATOM      4  C   UNL     1      -4.462   0.549   1.319  0.00  0.00    +0.044 C 
ATOM      5  C   UNL     1      -4.503   1.954   0.777  0.00  0.00    -0.048 A 
ATOM      6  C   UNL     1      -4.454   3.030   1.645  0.00  0.00    +0.007 A 
ATOM      7  C   UNL     1      -4.492   4.321   1.154  0.00  0.00    +0.048 A 
ATOM      8  C   UNL     1      -4.572   4.542  -0.211  0.00  0.00    +0.141 A 
ATOM      9  C   UNL     1      -4.627   3.459  -1.086  0.00  0.00    +0.080 A 
ATOM     10  C   UNL     1      -4.589   2.166  -0.586  0.00  0.00    +0.030 A 
BRANCH   8  11
ATOM     11  O   UNL     1      -4.603   5.812  -0.696  0.00  0.00    -0.493 OA
ATOM     12  C   UNL     1      -4.425   6.871   0.247  0.00  0.00    +0.277 C 
ENDBRANCH   8  11
ENDBRANCH   1   9
BRANCH   1  13
ATOM     13  C   UNL     1      -6.023   3.839  -3.103  0.00  0.00    +0.233 C 
BRANCH  13  14
ATOM     14  C   UNL     1      -6.798   4.915  -2.387  0.00  0.00    +0.135 A 
ATOM     15  C   UNL     1      -7.376   5.984  -2.963  0.00  0.00    +0.047 A 
ATOM     16  C   UNL     1      -7.991   6.725  -1.928  0.00  0.00    +0.045 A 
ATOM     17  C   UNL     1      -7.752   6.065  -0.781  0.00  0.00    +0.102 A 
ATOM     18  O   UNL     1      -7.034   4.966  -1.066  0.00  0.00    -0.462 OA
ATOM     19  C   UNL     1      -8.217   6.483   0.590  0.00  0.00    +0.086 C 
ENDBRANCH  13  14
BRANCH  13  20
ATOM     20  C   UNL     1      -6.782   2.539  -3.029  0.00  0.00    +0.242 C 
ATOM     21  O   UNL     1      -6.569   1.763  -2.122  0.00  0.00    -0.273 OA
ATOM     22  N   UNL     1      -7.699   2.240  -3.970  0.00  0.00    -0.313 N 
ATOM     23  H   UNL     1      -7.870   2.861  -4.696  0.00  0.00    +0.149 HD
BRANCH  22  24
ATOM     24  C   UNL     1      -8.437   0.976  -3.898  0.00  0.00    +0.104 C 
BRANCH  24  25
ATOM     25  C   UNL     1      -9.408   0.885  -5.078  0.00  0.00    +0.022 C 
BRANCH  25  26
ATOM     26  C   UNL     1     -10.178  -0.435  -5.003  0.00  0.00    -0.016 C 
ATOM     27  C   UNL     1     -11.060  -0.440  -3.752  0.00  0.00    +0.007 C 
ATOM     28  C   UNL     1     -11.057  -0.584  -6.247  0.00  0.00    +0.007 C 
ENDBRANCH  25  26
ENDBRANCH  24  25
ENDBRANCH  22  24
ENDBRANCH  13  20
ENDBRANCH   1  13
BRANCH   2  29
ATOM     29  C   UNL     1      -2.244   3.566  -2.559  0.00  0.00    +0.242 C 
BRANCH  29  30
ATOM     30  N   UNL     1      -1.192   3.670  -3.574  0.00  0.00    -0.235 N 
ATOM     31  C   UNL     1      -0.657   2.641  -4.311  0.00  0.00    +0.090 A 
ATOM     32  C   UNL     1      -0.888   1.271  -4.369  0.00  0.00    +0.029 A 
ATOM     33  C   UNL     1      -0.166   0.495  -5.232  0.00  0.00    +0.002 A 
ATOM     34  C   UNL     1       0.792   1.065  -6.061  0.00  0.00    +0.002 A 
ATOM     35  C   UNL     1       1.035   2.407  -6.027  0.00  0.00    +0.032 A 
ATOM     36  C   UNL     1       0.312   3.224  -5.147  0.00  0.00    +0.113 A 
ATOM     37  N   UNL     1       0.328   4.547  -4.894  0.00  0.00    -0.129 NA
ATOM     38  N   UNL     1      -0.534   4.839  -3.985  0.00  0.00    -0.064 NA
ENDBRANCH  29  30
ENDBRANCH   2  29
TORSDOF 10
