REMARK  Name = ZINC63996730
REMARK  9 active torsions:
REMARK  status: ('A' for Active; 'I' for Inactive)
REMARK    1  A    between atoms: C_1  and  C_2
REMARK    2  A    between atoms: C_2  and  C_4
REMARK    3  A    between atoms: C_2  and  N_7
REMARK    4  A    between atoms: N_7  and  C_8
REMARK    5  A    between atoms: C_8  and  C_9
REMARK    6  A    between atoms: C_15  and  C_17
REMARK    7  A    between atoms: C_17  and  N_18
REMARK    8  A    between atoms: C_21  and  C_26
REMARK    9  A    between atoms: C_26  and  C_27
REMARK                            x       y       z     vdW  Elec       q    Type
REMARK                         _______ _______ _______ _____ _____    ______ ____
ROOT
ATOM      1  N   UNL     1       4.694   0.284  -1.904  0.00  0.00    -0.216 N 
ATOM      2  C   UNL     1       5.646  -0.669  -1.945  0.00  0.00    +0.244 C 
ATOM      3  O   UNL     1       5.653  -1.724  -1.348  0.00  0.00    -0.273 OA
ATOM      4  C   UNL     1       6.707  -0.147  -2.894  0.00  0.00    +0.165 C 
ATOM      5  N   UNL     1       6.179   1.162  -3.317  0.00  0.00    -0.287 N 
ATOM      6  C   UNL     1       5.000   1.322  -2.691  0.00  0.00    +0.310 C 
ATOM      7  O   UNL     1       4.292   2.301  -2.822  0.00  0.00    -0.252 OA
ATOM      8  H   UNL     1       6.599   1.785  -3.930  0.00  0.00    +0.151 HD
ENDROOT
BRANCH   1   9
ATOM      9  C   UNL     1       3.471   0.191  -1.102  0.00  0.00    +0.213 C 
BRANCH   9  11
ATOM     10  N   UNL     1       1.141  -0.579  -1.410  0.00  0.00    -0.293 N 
ATOM     11  C   UNL     1       2.386  -0.467  -1.914  0.00  0.00    +0.234 C 
ATOM     12  O   UNL     1       2.633  -0.897  -3.021  0.00  0.00    -0.274 OA
BRANCH  10  14
ATOM     13  C   UNL     1       0.190  -1.019   0.799  0.00  0.00    +0.028 C 
ATOM     14  C   UNL     1       0.816   0.032  -0.119  0.00  0.00    +0.076 C 
BRANCH  14  15
ATOM     15  C   UNL     1      -0.175   1.179  -0.332  0.00  0.00    +0.009 C 
ATOM     16  C   UNL     1       0.353   2.606  -0.177  0.00  0.00    +0.005 C 
ATOM     17  C   UNL     1      -0.566   2.011   0.891  0.00  0.00    +0.005 C 
ENDBRANCH  14  15
ENDBRANCH  10  14
BRANCH  10  18
ATOM     18  C   UNL     1       0.112  -1.310  -2.154  0.00  0.00    +0.143 C 
BRANCH  18  19
ATOM     19  C   UNL     1      -0.521  -0.394  -3.169  0.00  0.00    -0.030 A 
ATOM     20  C   UNL     1      -1.768   0.150  -2.927  0.00  0.00    +0.005 A 
ATOM     21  C   UNL     1      -2.349   0.991  -3.858  0.00  0.00    +0.000 A 
ATOM     22  C   UNL     1      -1.681   1.288  -5.032  0.00  0.00    +0.000 A 
ATOM     23  C   UNL     1      -0.434   0.745  -5.274  0.00  0.00    +0.000 A 
ATOM     24  C   UNL     1       0.149  -0.092  -4.341  0.00  0.00    +0.005 A 
ENDBRANCH  18  19
ENDBRANCH  10  18
ENDBRANCH   9  11
ENDBRANCH   1   9
BRANCH   4  25
ATOM     25  C   UNL     1       8.044   0.016  -2.170  0.00  0.00    +0.065 C 
BRANCH  25  26
ATOM     26  C   UNL     1       9.107   0.417  -3.160  0.00  0.00    -0.039 C 
ATOM     27  C   UNL     1       9.523   1.673  -3.442  0.00  0.00    -0.001 A 
ATOM     28  C   UNL     1       9.127   2.991  -2.931  0.00  0.00    +0.010 A 
ATOM     29  C   UNL     1       9.738   4.094  -3.417  0.00  0.00    +0.001 A 
ATOM     30  C   UNL     1      10.739   4.012  -4.395  0.00  0.00    +0.002 A 
ATOM     31  C   UNL     1      11.157   2.837  -4.913  0.00  0.00    +0.026 A 
ATOM     32  C   UNL     1      10.583   1.613  -4.474  0.00  0.00    +0.043 A 
ATOM     33  N   UNL     1      10.812   0.368  -4.817  0.00  0.00    -0.380 N 
ATOM     34  C   UNL     1       9.927  -0.503  -4.036  0.00  0.00    +0.144 C 
ATOM     35  H   UNL     1      11.462   0.073  -5.474  0.00  0.00    +0.160 HD
ENDBRANCH  25  26
ENDBRANCH   4  25
TORSDOF 8
