REMARK  Name = ZINC16524497
REMARK  7 active torsions:
REMARK  status: ('A' for Active; 'I' for Inactive)
REMARK    1  A    between atoms: C_7  and  C_20
REMARK    2  A    between atoms: C_7  and  O_32
REMARK    3  A    between atoms: N_10  and  C_11
REMARK    4  A    between atoms: C_11  and  C_12
REMARK    5  A    between atoms: C_20  and  C_21
REMARK    6  A    between atoms: C_21  and  C_23
REMARK    7  A    between atoms: C_27  and  N_29
REMARK                            x       y       z     vdW  Elec       q    Type
REMARK                         _______ _______ _______ _____ _____    ______ ____
ROOT
ATOM      1  C   UNL     1      -4.985  -4.493  -0.435  0.00  0.00    +0.000 A 
ATOM      2  C   UNL     1      -4.676  -5.063  -1.657  0.00  0.00    +0.002 A 
ATOM      3  C   UNL     1      -3.442  -4.849  -2.234  0.00  0.00    +0.024 A 
ATOM      4  C   UNL     1      -2.495  -4.056  -1.588  0.00  0.00    +0.043 A 
ATOM      5  C   UNL     1      -2.817  -3.489  -0.361  0.00  0.00    +0.015 A 
ATOM      6  C   UNL     1      -4.050  -3.704   0.212  0.00  0.00    +0.009 A 
ATOM      7  C   UNL     1      -1.604  -2.700   0.074  0.00  0.00    +0.175 C 
ATOM      8  C   UNL     1      -0.609  -2.906  -1.047  0.00  0.00    +0.257 C 
ATOM      9  O   UNL     1       0.512  -2.446  -1.110  0.00  0.00    -0.272 OA
ATOM     10  N   UNL     1      -1.199  -3.696  -1.960  0.00  0.00    -0.264 N 
ENDROOT
BRANCH   7  11
ATOM     11  O   UNL     1      -1.090  -3.211   1.305  0.00  0.00    -0.374 OA
ATOM     12  H   UNL     1      -0.293  -2.759   1.616  0.00  0.00    +0.211 HD
ENDBRANCH   7  11
BRANCH  10  13
ATOM     13  C   UNL     1      -0.556  -4.130  -3.203  0.00  0.00    +0.153 C 
BRANCH  13  14
ATOM     14  C   UNL     1       0.293  -5.346  -2.931  0.00  0.00    +0.024 A 
ATOM     15  C   UNL     1      -0.287  -6.603  -2.900  0.00  0.00    +0.129 A 
ATOM     16  C   UNL     1       0.494  -7.718  -2.650  0.00  0.00    +0.039 A 
ATOM     17  C   UNL     1       1.852  -7.577  -2.432  0.00  0.00    +0.004 A 
ATOM     18  C   UNL     1       2.430  -6.322  -2.463  0.00  0.00    +0.020 A 
ATOM     19  C   UNL     1       1.652  -5.207  -2.719  0.00  0.00    +0.048 A 
ATOM     20 CL   UNL     1       2.381  -3.632  -2.765  0.00  0.00    -0.083 Cl
ATOM     21  F   UNL     1      -1.614  -6.740  -3.112  0.00  0.00    -0.205 F 
ENDBRANCH  13  14
ENDBRANCH  10  13
BRANCH   7  22
ATOM     22  C   UNL     1      -1.953  -1.216   0.215  0.00  0.00    +0.129 C 
BRANCH  22  23
ATOM     23  C   UNL     1      -0.703  -0.435   0.529  0.00  0.00    +0.167 C 
ATOM     24  O   UNL     1       0.361  -1.008   0.631  0.00  0.00    -0.292 OA
BRANCH  23  25
ATOM     25  C   UNL     1      -0.774   1.024   0.714  0.00  0.00    +0.020 A 
ATOM     26  C   UNL     1      -1.999   1.689   0.592  0.00  0.00    +0.011 A 
ATOM     27  C   UNL     1      -2.058   3.054   0.769  0.00  0.00    +0.003 A 
ATOM     28  C   UNL     1      -0.908   3.769   1.058  0.00  0.00    +0.033 A 
ATOM     29  C   UNL     1       0.308   3.119   1.176  0.00  0.00    +0.127 A 
ATOM     30  C   UNL     1       0.383   1.752   1.005  0.00  0.00    +0.044 A 
BRANCH  29  31
ATOM     31  N   UNL     1       1.532   3.892   1.485  0.00  0.00    +0.056 N 
ATOM     32  O   UNL     1       2.603   3.322   1.588  0.00  0.00    -0.126 OA
ATOM     33  O   UNL     1       1.467   5.099   1.636  0.00  0.00    -0.126 OA
ENDBRANCH  29  31
ENDBRANCH  23  25
ENDBRANCH  22  23
ENDBRANCH   7  22
TORSDOF 7
