REMARK  Name = ZINC13132522
REMARK  11 active torsions:
REMARK  status: ('A' for Active; 'I' for Inactive)
REMARK    1  A    between atoms: C_1  and  C_2
REMARK    2  A    between atoms: C_2  and  C_25
REMARK    3  A    between atoms: N_3  and  N_4
REMARK    4  A    between atoms: C_5  and  S_7
REMARK    5  A    between atoms: S_7  and  C_8
REMARK    6  A    between atoms: N_13  and  C_16
REMARK    7  A    between atoms: C_19  and  C_22
REMARK    8  A    between atoms: C_26  and  C_27
REMARK    9  A    between atoms: C_30  and  N_33
REMARK   10  A    between atoms: N_33  and  C_34
REMARK   11  A    between atoms: N_33  and  C_35
REMARK                            x       y       z     vdW  Elec       q    Type
REMARK                         _______ _______ _______ _____ _____    ______ ____
ROOT
ATOM      1  N   UNL     1      -0.361  -0.864   2.288  0.00  0.00    -0.217 N 
ATOM      2  C   UNL     1      -0.261  -1.322   3.582  0.00  0.00    +0.146 C 
ATOM      3  N   UNL     1      -0.291  -2.604   3.824  0.00  0.00    -0.380 N 
ATOM      4  H   UNL     1      -0.338   0.089   2.108  0.00  0.00    +0.176 HD
ATOM      5  H   UNL     1      -0.221  -2.927   4.736  0.00  0.00    +0.158 HD
ATOM      6  H   UNL     1      -0.385  -3.234   3.092  0.00  0.00    +0.158 HD
ENDROOT
BRANCH   1   9
ATOM      7  C   UNL     1      -0.556   0.141  -0.273  0.00  0.00    +0.067 C 
ATOM      8  C   UNL     1      -0.592  -1.339   0.006  0.00  0.00    +0.056 C 
ATOM      9  N   UNL     1      -0.497  -1.773   1.231  0.00  0.00    -0.186 NA
BRANCH   8  10
ATOM     10  C   UNL     1      -0.729  -2.260  -1.063  0.00  0.00    +0.025 C 
ATOM     11  C   UNL     1      -0.761  -3.585  -0.813  0.00  0.00    +0.010 C 
BRANCH  11  12
ATOM     12  C   UNL     1      -0.903  -4.540  -1.923  0.00  0.00    -0.025 A 
ATOM     13  C   UNL     1      -1.000  -4.077  -3.239  0.00  0.00    +0.010 A 
ATOM     14  C   UNL     1      -1.133  -4.974  -4.275  0.00  0.00    +0.023 A 
ATOM     15  C   UNL     1      -1.171  -6.340  -4.014  0.00  0.00    +0.029 A 
ATOM     16  C   UNL     1      -1.075  -6.806  -2.707  0.00  0.00    +0.023 A 
ATOM     17  C   UNL     1      -0.937  -5.915  -1.665  0.00  0.00    +0.010 A 
BRANCH  15  18
ATOM     18  N   UNL     1      -1.306  -7.246  -5.066  0.00  0.00    -0.336 N 
ATOM     19  C   UNL     1      -1.407  -6.758  -6.444  0.00  0.00    +0.129 C 
ATOM     20  C   UNL     1      -1.346  -8.685  -4.794  0.00  0.00    +0.129 C 
ENDBRANCH  15  18
ENDBRANCH  11  12
ENDBRANCH   8  10
ENDBRANCH   1   9
BRANCH   2  21
ATOM     21  S   UNL     1      -0.090  -0.178   4.911  0.00  0.00    -0.078 S 
BRANCH  21  22
ATOM     22  C   UNL     1       0.003  -1.230   6.386  0.00  0.00    +0.149 C 
ATOM     23  C   UNL     1       0.084  -0.369   7.663  0.00  0.00    +0.120 C 
ATOM     24  C   UNL     1       1.417  -0.754   8.266  0.00  0.00    +0.228 C 
ATOM     25  O   UNL     1       1.880  -0.305   9.293  0.00  0.00    -0.275 OA
ATOM     26  N   UNL     1       2.005  -1.671   7.487  0.00  0.00    -0.209 N 
ATOM     27  C   UNL     1       1.296  -2.015   6.400  0.00  0.00    +0.240 C 
ATOM     28  O   UNL     1       1.636  -2.824   5.563  0.00  0.00    -0.274 OA
BRANCH  26  29
ATOM     29  C   UNL     1       3.253  -2.225   7.781  0.00  0.00    +0.044 A 
ATOM     30  C   UNL     1       3.400  -3.055   8.887  0.00  0.00    +0.025 A 
ATOM     31  C   UNL     1       4.628  -3.603   9.181  0.00  0.00    +0.017 A 
ATOM     32  C   UNL     1       5.729  -3.325   8.364  0.00  0.00    +0.063 A 
ATOM     33  C   UNL     1       5.577  -2.489   7.252  0.00  0.00    +0.017 A 
ATOM     34  C   UNL     1       4.345  -1.950   6.963  0.00  0.00    +0.025 A 
BRANCH  32  35
ATOM     35  C   UNL     1       7.045  -3.909   8.675  0.00  0.00    +0.387 C 
ATOM     36  O   UNL     1       7.177  -4.638   9.648  0.00  0.00    -0.241 OA
ATOM     37  O   UNL     1       8.007  -3.664   7.960  0.00  0.00    -0.241 OA
ENDBRANCH  32  35
ENDBRANCH  26  29
ENDBRANCH  21  22
ENDBRANCH   2  21
TORSDOF 8
