REMARK  Name = ZINC05389811
REMARK  9 active torsions:
REMARK  status: ('A' for Active; 'I' for Inactive)
REMARK    1  A    between atoms: C_1  and  C_2
REMARK    2  A    between atoms: C_2  and  N_3
REMARK    3  A    between atoms: C_11  and  C_18
REMARK    4  A    between atoms: C_11  and  C_28
REMARK    5  A    between atoms: C_18  and  C_19
REMARK    6  A    between atoms: C_19  and  N_62
REMARK    7  A    between atoms: C_20  and  N_62
REMARK    8  A    between atoms: C_21  and  C_22
REMARK    9  A    between atoms: C_21  and  N_62
REMARK                            x       y       z     vdW  Elec       q    Type
REMARK                         _______ _______ _______ _____ _____    ______ ____
ROOT
ATOM      1  N   UNL     1       1.740   3.075  -3.867  0.00  0.00    -0.300 N 
ATOM      2  C   UNL     1       0.493   3.686  -3.948  0.00  0.00    +0.037 A 
ATOM      3  C   UNL     1       0.369   5.067  -4.026  0.00  0.00    +0.024 A 
ATOM      4  C   UNL     1      -0.893   5.625  -4.128  0.00  0.00    +0.002 A 
ATOM      5  C   UNL     1      -2.009   4.809  -4.153  0.00  0.00    +0.000 A 
ATOM      6  C   UNL     1      -1.875   3.434  -4.066  0.00  0.00    +0.005 A 
ATOM      7  C   UNL     1      -0.612   2.877  -3.953  0.00  0.00    -0.025 A 
ATOM      8  C   UNL     1      -0.455   1.393  -3.807  0.00  0.00    +0.057 C 
ATOM      9  C   UNL     1       0.001   0.999  -2.424  0.00  0.00    +0.076 C 
ATOM     10  C   UNL     1       1.393   1.457  -2.068  0.00  0.00    -0.011 A 
ATOM     11  C   UNL     1       2.170   2.365  -2.752  0.00  0.00    +0.038 A 
ATOM     12  C   UNL     1       3.467   2.651  -2.309  0.00  0.00    +0.024 A 
ATOM     13  C   UNL     1       3.973   2.055  -1.176  0.00  0.00    +0.002 A 
ATOM     14  C   UNL     1       3.187   1.162  -0.471  0.00  0.00    +0.000 A 
ATOM     15  C   UNL     1       1.917   0.869  -0.914  0.00  0.00    +0.006 A 
ENDROOT
BRANCH   9  16
ATOM     16  C   UNL     1      -0.049  -0.503  -2.318  0.00  0.00    +0.221 C 
ATOM     17  O   UNL     1      -0.701  -1.028  -1.440  0.00  0.00    -0.275 OA
ATOM     18  N   UNL     1       0.631  -1.264  -3.198  0.00  0.00    -0.329 N 
ATOM     19  H   UNL     1       1.153  -0.844  -3.900  0.00  0.00    +0.145 HD
ATOM     20  H   UNL     1       0.599  -2.231  -3.130  0.00  0.00    +0.145 HD
ENDBRANCH   9  16
BRANCH   1  22
ATOM     21  C   UNL     1       2.403   2.013  -5.968  0.00  0.00    +0.024 C 
ATOM     22  C   UNL     1       2.645   3.184  -5.014  0.00  0.00    +0.107 C 
ENDBRANCH   1  22
BRANCH   9  23
ATOM     23  C   UNL     1      -0.978   1.588  -1.405  0.00  0.00    +0.002 C 
BRANCH  23  24
ATOM     24  C   UNL     1      -2.400   1.141  -1.748  0.00  0.00    -0.077 C 
BRANCH  24  26
ATOM     25  C   UNL     1      -3.168   1.353   0.539  0.00  0.00    -0.096 C 
ATOM     26  N   UNL     1      -3.347   1.832  -0.848  0.00  0.00    +0.381 N 
ATOM     27  H   UNL     1      -3.160   2.841  -0.878  0.00  0.00    -0.082 HD
BRANCH  26  28
ATOM     28  C   UNL     1      -4.736   1.588  -1.291  0.00  0.00    -0.043 C 
BRANCH  28  29
ATOM     29  C   UNL     1      -5.662   2.474  -0.499  0.00  0.00    -0.064 A 
ATOM     30  C   UNL     1      -6.219   2.014   0.680  0.00  0.00    +0.002 A 
ATOM     31  C   UNL     1      -7.065   2.829   1.409  0.00  0.00    +0.000 A 
ATOM     32  C   UNL     1      -7.362   4.100   0.954  0.00  0.00    +0.000 A 
ATOM     33  C   UNL     1      -6.809   4.558  -0.227  0.00  0.00    +0.000 A 
ATOM     34  C   UNL     1      -5.959   3.745  -0.954  0.00  0.00    +0.002 A 
ENDBRANCH  28  29
ENDBRANCH  26  28
ENDBRANCH  24  26
ENDBRANCH  23  24
ENDBRANCH   9  23
TORSDOF 7
