REMARK  Name = ZINC32734744
REMARK  14 active torsions:
REMARK  status: ('A' for Active; 'I' for Inactive)
REMARK    1  A    between atoms: C_1  and  C_2
REMARK    2  A    between atoms: C_2  and  C_3
REMARK    3  A    between atoms: C_6  and  C_9
REMARK    4  A    between atoms: C_9  and  C_11
REMARK    5  A    between atoms: C_9  and  N_30
REMARK    6  A    between atoms: C_11  and  N_12
REMARK    7  A    between atoms: C_13  and  C_15
REMARK    8  A    between atoms: C_15  and  S_16
REMARK    9  A    between atoms: S_16  and  C_17
REMARK   10  A    between atoms: C_20  and  C_22
REMARK   11  A    between atoms: C_25  and  O_28
REMARK   12  A    between atoms: O_28  and  C_29
REMARK   13  A    between atoms: N_30  and  C_31
REMARK   14  A    between atoms: N_30  and  C_32
REMARK                            x       y       z     vdW  Elec       q    Type
REMARK                         _______ _______ _______ _____ _____    ______ ____
ROOT
ATOM      1  N   UNL     1      -1.584   3.214  -0.736  0.00  0.00    -0.316 N 
ATOM      2  C   UNL     1      -2.547   3.679  -1.556  0.00  0.00    +0.223 C 
ATOM      3  O   UNL     1      -3.058   2.940  -2.371  0.00  0.00    -0.275 OA
ATOM      4  H   UNL     1      -1.121   3.885   0.003  0.00  0.00    +0.149 HD
ENDROOT
BRANCH   1   5
ATOM      5  C   UNL     1      -1.155   1.817  -0.828  0.00  0.00    +0.093 C 
BRANCH   5   6
ATOM      6  C   UNL     1       0.017   1.579   0.127  0.00  0.00    -0.021 C 
BRANCH   6  10
ATOM      7  C   UNL     1       1.193  -2.523  -0.053  0.00  0.00    -0.048 A 
ATOM      8  C   UNL     1       2.020  -1.544  -0.572  0.00  0.00    +0.004 A 
ATOM      9  C   UNL     1       1.639  -0.216  -0.514  0.00  0.00    +0.002 A 
ATOM     10  C   UNL     1       0.432   0.132   0.063  0.00  0.00    -0.059 A 
ATOM     11  C   UNL     1      -0.392  -0.847   0.586  0.00  0.00    +0.002 A 
ATOM     12  C   UNL     1      -0.014  -2.175   0.523  0.00  0.00    +0.004 A 
BRANCH   7  14
ATOM     13  C   UNL     1       2.398  -4.330   1.144  0.00  0.00    +0.009 C 
ATOM     14  C   UNL     1       1.609  -3.970  -0.117  0.00  0.00    +0.032 C 
ENDBRANCH   7  14
ENDBRANCH   6  10
BRANCH   6  15
ATOM     15  N   UNL     1      -0.393   1.911   1.498  0.00  0.00    +0.382 N 
ATOM     16  C   UNL     1      -1.838   1.715   1.677  0.00  0.00    -0.096 C 
ATOM     17  C   UNL     1       0.370   1.129   2.480  0.00  0.00    -0.096 C 
ATOM     18  H   UNL     1      -0.172   2.975   1.669  0.00  0.00    -0.082 HD
ENDBRANCH   6  15
ENDBRANCH   5   6
ENDBRANCH   1   5
BRANCH   2  19
ATOM     19  C   UNL     1      -2.989   5.117  -1.461  0.00  0.00    +0.174 C 
BRANCH  19  20
ATOM     20  S   UNL     1      -4.285   5.431  -2.685  0.00  0.00    -0.056 S 
BRANCH  20  21
ATOM     21  C   UNL     1      -4.604   7.134  -2.361  0.00  0.00    +0.278 A 
ATOM     22  N   UNL     1      -4.010   7.878  -1.458  0.00  0.00    -0.101 NA
ATOM     23  N   UNL     1      -4.492   9.069  -1.500  0.00  0.00    -0.106 NA
ATOM     24  C   UNL     1      -5.413   9.135  -2.430  0.00  0.00    +0.249 A 
ATOM     25  O   UNL     1      -5.500   7.912  -2.999  0.00  0.00    -0.411 OA
BRANCH  24  26
ATOM     26  C   UNL     1      -6.206  10.327  -2.793  0.00  0.00    +0.039 A 
ATOM     27  C   UNL     1      -7.155  10.252  -3.816  0.00  0.00    +0.017 A 
ATOM     28  C   UNL     1      -7.897  11.365  -4.148  0.00  0.00    +0.046 A 
ATOM     29  C   UNL     1      -7.694  12.563  -3.475  0.00  0.00    +0.120 A 
ATOM     30  C   UNL     1      -6.747  12.643  -2.462  0.00  0.00    +0.046 A 
ATOM     31  C   UNL     1      -6.005  11.533  -2.120  0.00  0.00    +0.017 A 
BRANCH  29  32
ATOM     32  O   UNL     1      -8.423  13.659  -3.810  0.00  0.00    -0.495 OA
ATOM     33  C   UNL     1      -9.380  13.507  -4.861  0.00  0.00    +0.277 C 
ENDBRANCH  29  32
ENDBRANCH  24  26
ENDBRANCH  20  21
ENDBRANCH  19  20
ENDBRANCH   2  19
TORSDOF 10
