REMARK  Name = ZINC03414651
REMARK  9 active torsions:
REMARK  status: ('A' for Active; 'I' for Inactive)
REMARK    1  A    between atoms: C_7  and  C_11
REMARK    2  A    between atoms: C_11  and  C_12
REMARK    3  A    between atoms: C_12  and  C_14
REMARK    4  A    between atoms: C_12  and  N_31
REMARK    5  A    between atoms: C_14  and  O_16
REMARK    6  A    between atoms: O_16  and  C_17
REMARK    7  A    between atoms: C_17  and  C_18
REMARK    8  A    between atoms: N_20  and  C_21
REMARK    9  A    between atoms: C_32  and  C_34
REMARK                            x       y       z     vdW  Elec       q    Type
REMARK                         _______ _______ _______ _____ _____    ______ ____
ROOT
ATOM      1  C   UNL     1       5.603  -6.460   0.419  0.00  0.00    +0.186 C 
ENDROOT
BRANCH   1   2
ATOM      2  N   UNL     1       6.848  -7.127   0.031  0.00  0.00    -0.298 N 
ATOM      3  C   UNL     1       7.983  -6.888   0.719  0.00  0.00    +0.251 C 
ATOM      4  O   UNL     1       7.972  -6.119   1.662  0.00  0.00    -0.270 OA
ATOM      5  H   UNL     1       6.857  -7.740  -0.721  0.00  0.00    +0.150 HD
BRANCH   3   6
ATOM      6  C   UNL     1       9.229  -7.555   0.331  0.00  0.00    +0.074 A 
ATOM      7  C   UNL     1      10.489  -7.450   0.898  0.00  0.00    +0.021 A 
ATOM      8  C   UNL     1      11.494  -8.195   0.332  0.00  0.00    +0.008 A 
ATOM      9  C   UNL     1      11.212  -8.985  -0.737  0.00  0.00    +0.046 A 
ATOM     10  S   UNL     1       9.517  -8.720  -0.990  0.00  0.00    -0.092 S 
ENDBRANCH   3   6
ENDBRANCH   1   2
BRANCH   1  11
ATOM     11  C   UNL     1       5.781  -4.967   0.321  0.00  0.00    +0.328 C 
ATOM     12  O   UNL     1       6.891  -4.489   0.324  0.00  0.00    -0.249 OA
BRANCH  11  13
ATOM     13  O   UNL     1       4.706  -4.167   0.231  0.00  0.00    -0.454 OA
BRANCH  13  14
ATOM     14  C   UNL     1       4.953  -2.739   0.140  0.00  0.00    +0.328 C 
BRANCH  14  15
ATOM     15  C   UNL     1       3.639  -2.007   0.048  0.00  0.00    +0.255 C 
ATOM     16  O   UNL     1       2.597  -2.628   0.057  0.00  0.00    -0.272 OA
ATOM     17  N   UNL     1       3.621  -0.663  -0.046  0.00  0.00    -0.283 N 
ATOM     18  H   UNL     1       4.453  -0.172  -0.131  0.00  0.00    +0.155 HD
BRANCH  17  19
ATOM     19  C   UNL     1       2.401   0.025  -0.021  0.00  0.00    +0.037 A 
ATOM     20  C   UNL     1       1.346  -0.460   0.740  0.00  0.00    +0.027 A 
ATOM     21  C   UNL     1       0.142   0.217   0.764  0.00  0.00    +0.051 A 
ATOM     22  C   UNL     1      -0.016   1.384   0.030  0.00  0.00    +0.162 A 
ATOM     23  C   UNL     1       1.040   1.873  -0.730  0.00  0.00    +0.164 A 
ATOM     24  C   UNL     1       2.247   1.192  -0.756  0.00  0.00    +0.072 A 
ATOM     25  O   UNL     1       0.906   3.021  -1.451  0.00  0.00    -0.485 OA
ATOM     26  C   UNL     1      -0.429   3.473  -1.699  0.00  0.00    +0.270 C 
ATOM     27  C   UNL     1      -1.216   3.395  -0.384  0.00  0.00    +0.270 C 
ATOM     28  O   UNL     1      -1.213   2.033   0.059  0.00  0.00    -0.485 OA
ENDBRANCH  17  19
ENDBRANCH  14  15
ENDBRANCH  13  14
ENDBRANCH  11  13
ENDBRANCH   1  11
BRANCH   1  29
ATOM     29  C   UNL     1       5.249  -6.838   1.859  0.00  0.00    +0.071 C 
BRANCH  29  36
ATOM     30  C   UNL     1       7.953 -10.636   2.345  0.00  0.00    +0.001 A 
ATOM     31  C   UNL     1       7.226 -11.819   2.361  0.00  0.00    +0.002 A 
ATOM     32  C   UNL     1       5.854 -11.802   2.249  0.00  0.00    +0.026 A 
ATOM     33  C   UNL     1       5.187 -10.589   2.106  0.00  0.00    +0.047 A 
ATOM     34  C   UNL     1       5.928  -9.393   2.088  0.00  0.00    +0.003 A 
ATOM     35  C   UNL     1       7.318  -9.434   2.211  0.00  0.00    +0.010 A 
ATOM     36  C   UNL     1       4.951  -8.314   1.931  0.00  0.00    -0.020 A 
ATOM     37  C   UNL     1       3.740  -8.888   1.859  0.00  0.00    +0.087 A 
ATOM     38  N   UNL     1       3.861 -10.247   1.962  0.00  0.00    -0.360 N 
ATOM     39  H   UNL     1       3.123 -10.876   1.937  0.00  0.00    +0.165 HD
ENDBRANCH  29  36
ENDBRANCH   1  29
TORSDOF 9
