REMARK  Name = ZINC37061048
REMARK  3 active torsions:
REMARK  status: ('A' for Active; 'I' for Inactive)
REMARK    1  A    between atoms: C_4  and  N_18
REMARK    2  A    between atoms: C_6  and  N_7
REMARK    3  A    between atoms: N_7  and  C_8
REMARK                            x       y       z     vdW  Elec       q    Type
REMARK                         _______ _______ _______ _____ _____    ______ ____
ROOT
ATOM      1  N   UNL     1      -1.198  -0.721   0.010  0.00  0.00    -0.341 N 
ATOM      2  H   UNL     1      -1.183  -1.690   0.005  0.00  0.00    +0.146 HD
ENDROOT
BRANCH   1   3
ATOM      3  C   UNL     1      -2.477  -0.007   0.027  0.00  0.00    +0.071 C 
ATOM      4  C   UNL     1      -2.875   0.360  -1.405  0.00  0.00    +0.027 C 
ATOM      5  C   UNL     1      -4.209   1.109  -1.387  0.00  0.00    +0.067 C 
ATOM      6  C   UNL     1      -5.285   0.217  -0.766  0.00  0.00    +0.170 C 
ATOM      7  C   UNL     1      -4.888  -0.156   0.663  0.00  0.00    +0.067 C 
ATOM      8  C   UNL     1      -3.553  -0.903   0.642  0.00  0.00    +0.027 C 
ATOM      9  O   UNL     1      -6.537   0.922  -0.746  0.00  0.00    -0.346 OA
ATOM     10  C   UNL     1      -7.224   0.489  -1.945  0.00  0.00    +0.191 C 
ATOM     11  C   UNL     1      -6.793  -0.996  -2.036  0.00  0.00    +0.191 C 
ATOM     12  O   UNL     1      -5.436  -0.972  -1.551  0.00  0.00    -0.346 OA
ENDBRANCH   1   3
BRANCH   1  18
ATOM     13  C   UNL     1      -0.017   1.385   0.010  0.00  0.00    +0.024 A 
ATOM     14  C   UNL     1       1.171   2.090   0.002  0.00  0.00    +0.024 A 
ATOM     15  C   UNL     1       2.378   1.415  -0.013  0.00  0.00    +0.071 A 
ATOM     16  C   UNL     1       2.400   0.031  -0.021  0.00  0.00    +0.146 A 
ATOM     17  C   UNL     1       1.216  -0.680  -0.013  0.00  0.00    +0.057 A 
ATOM     18  C   UNL     1       0.002  -0.004   0.002  0.00  0.00    +0.030 A 
ATOM     19 CL   UNL     1       3.869   2.305  -0.024  0.00  0.00    -0.081 Cl
BRANCH  16  20
ATOM     20  N   UNL     1       3.693  -0.688  -0.038  0.00  0.00    +0.058 N 
ATOM     21  O   UNL     1       3.713  -1.897  -0.045  0.00  0.00    -0.126 OA
ATOM     22  O   UNL     1       4.730  -0.067  -0.046  0.00  0.00    -0.126 OA
ENDBRANCH  16  20
ENDBRANCH   1  18
TORSDOF 3
