REMARK  Name = ZINC66704544
REMARK  7 active torsions:
REMARK  status: ('A' for Active; 'I' for Inactive)
REMARK    1  A    between atoms: C_1  and  C_2
REMARK    2  A    between atoms: C_7  and  N_10
REMARK    3  A    between atoms: C_11  and  C_13
REMARK    4  A    between atoms: C_13  and  N_14
REMARK    5  A    between atoms: N_22  and  C_23
REMARK    6  A    between atoms: C_23  and  C_24
REMARK    7  A    between atoms: N_29  and  C_31
REMARK                            x       y       z     vdW  Elec       q    Type
REMARK                         _______ _______ _______ _____ _____    ______ ____
ROOT
ATOM      1  N   UNL     1       3.325  -5.578   3.358  0.00  0.00    -0.291 NA
ATOM      2  C   UNL     1       2.249  -6.558   3.158  0.00  0.00    +0.104 C 
ATOM      3  C   UNL     1       2.854  -7.891   2.707  0.00  0.00    +0.124 C 
ATOM      4  N   UNL     1       3.885  -8.289   3.678  0.00  0.00    -0.283 N 
ATOM      5  C   UNL     1       4.921  -7.308   4.034  0.00  0.00    +0.124 C 
ATOM      6  C   UNL     1       4.235  -5.998   4.433  0.00  0.00    +0.104 C 
ATOM      7  C   UNL     1       3.880  -9.520   4.227  0.00  0.00    +0.302 C 
ATOM      8  O   UNL     1       2.964 -10.285   3.995  0.00  0.00    -0.253 OA
ATOM      9  N   UNL     1       4.889  -9.903   5.033  0.00  0.00    -0.299 N 
ATOM     10  H   UNL     1       5.582  -9.269   5.277  0.00  0.00    +0.150 HD
ENDROOT
BRANCH   1  11
ATOM     11  C   UNL     1       2.778  -4.241   3.624  0.00  0.00    +0.180 C 
BRANCH  11  13
ATOM     12  N   UNL     1       1.465  -2.530   2.413  0.00  0.00    -0.311 N 
ATOM     13  C   UNL     1       2.053  -3.743   2.401  0.00  0.00    +0.227 C 
ATOM     14  O   UNL     1       1.997  -4.434   1.406  0.00  0.00    -0.274 OA
ATOM     15  H   UNL     1       1.509  -1.978   3.209  0.00  0.00    +0.149 HD
BRANCH  12  21
ATOM     16  C   UNL     1      -0.023   1.520  -0.001  0.00  0.00    +0.007 C 
ATOM     17  C   UNL     1       0.000  -0.010  -0.009  0.00  0.00    -0.012 C 
ATOM     18  C   UNL     1      -1.434  -0.542  -0.004  0.00  0.00    +0.003 C 
ATOM     19  C   UNL     1      -1.411  -2.072  -0.013  0.00  0.00    +0.002 C 
ATOM     20  C   UNL     1      -0.674  -2.578   1.229  0.00  0.00    +0.022 C 
ATOM     21  C   UNL     1       0.760  -2.046   1.224  0.00  0.00    +0.073 C 
ATOM     22  C   UNL     1       0.737  -0.516   1.233  0.00  0.00    +0.025 C 
ENDBRANCH  12  21
ENDBRANCH  11  13
ENDBRANCH   1  11
BRANCH   9  23
ATOM     23  C   UNL     1       4.941 -11.276   5.542  0.00  0.00    +0.107 C 
BRANCH  23  24
ATOM     24  C   UNL     1       6.178 -11.446   6.426  0.00  0.00    -0.011 C 
ATOM     25  C   UNL     1       7.441 -11.285   5.575  0.00  0.00    +0.001 C 
ATOM     26  C   UNL     1       8.671 -11.534   6.453  0.00  0.00    -0.018 C 
ATOM     27  C   UNL     1       8.569 -12.926   7.081  0.00  0.00    -0.079 C 
ATOM     28  N   UNL     1       7.355 -13.008   7.902  0.00  0.00    +0.378 N 
ATOM     29  C   UNL     1       6.167 -12.841   7.056  0.00  0.00    -0.074 C 
ATOM     30  C   UNL     1       7.301 -14.318   8.565  0.00  0.00    -0.096 C 
ATOM     31  H   UNL     1       7.373 -12.281   8.601  0.00  0.00    -0.082 HD
ENDBRANCH  23  24
ENDBRANCH   9  23
TORSDOF 5
