REMARK  Name = ZINC13032363
REMARK  14 active torsions:
REMARK  status: ('A' for Active; 'I' for Inactive)
REMARK    1  A    between atoms: C_1  and  C_2
REMARK    2  A    between atoms: C_2  and  C_3
REMARK    3  A    between atoms: C_3  and  C_4
REMARK    4  A    between atoms: C_3  and  C_5
REMARK    5  A    between atoms: C_3  and  N_6
REMARK    6  A    between atoms: C_7  and  C_9
REMARK    7  A    between atoms: C_9  and  C_11
REMARK    8  A    between atoms: C_9  and  N_18
REMARK    9  A    between atoms: C_14  and  O_17
REMARK   10  A    between atoms: N_18  and  C_19
REMARK   11  A    between atoms: C_21  and  C_26
REMARK   12  A    between atoms: C_23  and  C_25
REMARK   13  A    between atoms: C_27  and  C_29
REMARK   14  A    between atoms: C_29  and  N_30
REMARK                            x       y       z     vdW  Elec       q    Type
REMARK                         _______ _______ _______ _____ _____    ______ ____
ROOT
ATOM      1  N   UNL     1       1.178   1.844  -0.379  0.00  0.00    -0.254 N 
ATOM      2  C   UNL     1       0.140   1.167  -0.909  0.00  0.00    +0.242 C 
ATOM      3  O   UNL     1       0.089  -0.041  -0.806  0.00  0.00    -0.273 OA
ENDROOT
BRANCH   1   4
ATOM      4  C   UNL     1       1.297   3.222  -0.595  0.00  0.00    +0.038 A 
ATOM      5  C   UNL     1       0.442   4.104   0.052  0.00  0.00    +0.027 A 
ATOM      6  C   UNL     1       0.566   5.463  -0.158  0.00  0.00    -0.048 A 
ATOM      7  C   UNL     1       1.533   5.946  -1.020  0.00  0.00    +0.006 A 
ATOM      8  C   UNL     1       2.382   5.069  -1.671  0.00  0.00    -0.048 A 
ATOM      9  C   UNL     1       2.267   3.709  -1.460  0.00  0.00    +0.027 A 
ATOM     10  C   UNL     1       3.434   5.599  -2.611  0.00  0.00    +0.044 C 
ATOM     11  C   UNL     1      -0.358   6.422   0.549  0.00  0.00    +0.044 C 
ENDBRANCH   1   4
BRANCH   1  12
ATOM     12  C   UNL     1       2.181   1.139   0.422  0.00  0.00    +0.197 C 
BRANCH  12  13
ATOM     13  C   UNL     1       3.297   2.087   0.778  0.00  0.00    -0.018 A 
ATOM     14  C   UNL     1       3.019   3.251   1.472  0.00  0.00    +0.009 A 
ATOM     15  C   UNL     1       4.041   4.119   1.804  0.00  0.00    +0.046 A 
ATOM     16  C   UNL     1       5.345   3.828   1.432  0.00  0.00    +0.117 A 
ATOM     17  C   UNL     1       5.620   2.663   0.731  0.00  0.00    +0.046 A 
ATOM     18  C   UNL     1       4.596   1.795   0.406  0.00  0.00    +0.009 A 
BRANCH  16  19
ATOM     19  O   UNL     1       6.351   4.683   1.752  0.00  0.00    -0.507 OA
ATOM     20  H   UNL     1       6.520   5.360   1.083  0.00  0.00    +0.292 HD
ENDBRANCH  16  19
ENDBRANCH  12  13
BRANCH  12  22
ATOM     21  N   UNL     1       2.278  -0.067   2.580  0.00  0.00    -0.308 N 
ATOM     22  C   UNL     1       1.541   0.619   1.684  0.00  0.00    +0.239 C 
ATOM     23  O   UNL     1       0.363   0.819   1.893  0.00  0.00    -0.273 OA
ATOM     24  H   UNL     1       3.220  -0.226   2.412  0.00  0.00    +0.149 HD
BRANCH  21  25
ATOM     25  C   UNL     1       1.656  -0.572   3.806  0.00  0.00    +0.029 C 
ATOM     26  C   UNL     1       1.092   0.600   4.612  0.00  0.00    +0.031 C 
ATOM     27  C   UNL     1       0.523  -1.535   3.445  0.00  0.00    +0.031 C 
BRANCH  25  29
ATOM     28  C   UNL     1       2.055  -1.837   5.924  0.00  0.00    +0.006 C 
ATOM     29  C   UNL     1       2.704  -1.309   4.643  0.00  0.00    +0.022 C 
ENDBRANCH  25  29
ENDBRANCH  21  25
ENDBRANCH  12  22
ENDBRANCH   1  12
BRANCH   2  30
ATOM     30  C   UNL     1      -0.953   1.909  -1.633  0.00  0.00    +0.242 C 
BRANCH  30  31
ATOM     31  N   UNL     1      -1.985   0.961  -2.063  0.00  0.00    -0.235 N 
ATOM     32  C   UNL     1      -3.096   0.576  -1.351  0.00  0.00    +0.090 A 
ATOM     33  C   UNL     1      -3.602   0.903  -0.097  0.00  0.00    +0.029 A 
ATOM     34  C   UNL     1      -4.765   0.332   0.336  0.00  0.00    +0.002 A 
ATOM     35  C   UNL     1      -5.448  -0.575  -0.464  0.00  0.00    +0.002 A 
ATOM     36  C   UNL     1      -4.973  -0.913  -1.698  0.00  0.00    +0.032 A 
ATOM     37  C   UNL     1      -3.782  -0.341  -2.166  0.00  0.00    +0.113 A 
ATOM     38  N   UNL     1      -3.083  -0.475  -3.310  0.00  0.00    -0.129 NA
ATOM     39  N   UNL     1      -2.036   0.273  -3.284  0.00  0.00    -0.064 NA
ENDBRANCH  30  31
ENDBRANCH   2  30
TORSDOF 9
