REMARK  Name = ZINC59506807
REMARK  3 active torsions:
REMARK  status: ('A' for Active; 'I' for Inactive)
REMARK    1  A    between atoms: C_1  and  C_2
REMARK    2  A    between atoms: C_5  and  N_9
REMARK    3  A    between atoms: C_10  and  C_21
REMARK                            x       y       z     vdW  Elec       q    Type
REMARK                         _______ _______ _______ _____ _____    ______ ____
ROOT
ATOM      1  N   UNL     1       0.059  -4.170  -0.022  0.00  0.00    -0.244 N 
ATOM      2  C   UNL     1       0.181  -4.895   1.243  0.00  0.00    +0.198 C 
ATOM      3  N   UNL     1      -0.554  -6.163   1.176  0.00  0.00    -0.321 N 
ATOM      4  C   UNL     1      -0.445  -6.939   0.027  0.00  0.00    +0.041 A 
ATOM      5  C   UNL     1      -0.576  -8.317   0.064  0.00  0.00    +0.024 A 
ATOM      6  C   UNL     1      -0.472  -9.046  -1.106  0.00  0.00    +0.002 A 
ATOM      7  C   UNL     1      -0.237  -8.408  -2.314  0.00  0.00    +0.001 A 
ATOM      8  C   UNL     1      -0.100  -7.037  -2.368  0.00  0.00    +0.015 A 
ATOM      9  C   UNL     1      -0.198  -6.290  -1.195  0.00  0.00    +0.058 A 
ATOM     10  C   UNL     1      -0.040  -4.826  -1.195  0.00  0.00    +0.254 C 
ATOM     11  O   UNL     1       0.005  -4.215  -2.246  0.00  0.00    -0.270 OA
ATOM     12  H   UNL     1      -1.105  -6.455   1.919  0.00  0.00    +0.148 HD
ENDROOT
BRANCH   1  17
ATOM     13  C   UNL     1      -0.019   1.503   0.015  0.00  0.00    +0.045 C 
ATOM     14  C   UNL     1       0.002  -0.004   0.005  0.00  0.00    -0.032 A 
ATOM     15  C   UNL     1      -0.945  -0.712   0.722  0.00  0.00    +0.006 A 
ATOM     16  C   UNL     1      -0.929  -2.093   0.715  0.00  0.00    +0.024 A 
ATOM     17  C   UNL     1       0.041  -2.772  -0.013  0.00  0.00    +0.040 A 
ATOM     18  C   UNL     1       0.991  -2.058  -0.732  0.00  0.00    +0.043 A 
ATOM     19  C   UNL     1       0.966  -0.676  -0.725  0.00  0.00    +0.046 A 
ATOM     20 CL   UNL     1       2.149   0.217  -1.629  0.00  0.00    -0.083 Cl
ENDBRANCH   1  17
BRANCH   2  21
ATOM     21  C   UNL     1       1.635  -5.178   1.518  0.00  0.00    -0.009 A 
ATOM     22  C   UNL     1       2.607  -4.309   1.059  0.00  0.00    +0.008 A 
ATOM     23  C   UNL     1       3.941  -4.569   1.310  0.00  0.00    +0.020 A 
ATOM     24  C   UNL     1       4.304  -5.698   2.023  0.00  0.00    +0.041 A 
ATOM     25  C   UNL     1       3.330  -6.567   2.482  0.00  0.00    +0.020 A 
ATOM     26  C   UNL     1       1.996  -6.304   2.235  0.00  0.00    +0.008 A 
ATOM     27 CL   UNL     1       5.979  -6.025   2.339  0.00  0.00    -0.084 Cl
ENDBRANCH   2  21
TORSDOF 2
