REMARK  Name = ZINC16247577
REMARK  5 active torsions:
REMARK  status: ('A' for Active; 'I' for Inactive)
REMARK    1  A    between atoms: C_3  and  C_15
REMARK    2  A    between atoms: C_5  and  O_7
REMARK    3  A    between atoms: O_7  and  C_8
REMARK    4  A    between atoms: C_8  and  C_10
REMARK    5  A    between atoms: C_25  and  C_27
REMARK                            x       y       z     vdW  Elec       q    Type
REMARK                         _______ _______ _______ _____ _____    ______ ____
ROOT
ATOM      1  C   UNL     1      -2.929  -2.396   0.176  0.00  0.00    +0.024 C 
ATOM      2  C   UNL     1      -3.129  -3.743   0.269  0.00  0.00    +0.081 C 
ATOM      3  C   UNL     1      -4.487  -4.324   0.477  0.00  0.00    +0.152 C 
ATOM      4  N   UNL     1      -5.576  -3.790  -0.004  0.00  0.00    -0.283 NA
ATOM      5  N   UNL     1      -4.482  -5.508   1.241  0.00  0.00    -0.152 N 
ATOM      6  C   UNL     1      -3.309  -6.229   1.292  0.00  0.00    +0.181 C 
ATOM      7  N   UNL     1      -2.150  -5.908   0.773  0.00  0.00    -0.152 NA
ATOM      8  C   UNL     1      -2.005  -4.709   0.175  0.00  0.00    +0.273 C 
ATOM      9  O   UNL     1      -0.981  -4.426  -0.425  0.00  0.00    -0.268 OA
ATOM     10  S   UNL     1      -3.788  -7.652   2.236  0.00  0.00    -0.038 S 
ATOM     11  C   UNL     1      -5.481  -7.170   2.544  0.00  0.00    +0.103 C 
ATOM     12  N   UNL     1      -5.561  -6.029   1.923  0.00  0.00    -0.169 NA
ATOM     13  H   UNL     1      -6.436  -4.208   0.161  0.00  0.00    +0.188 HD
ENDROOT
BRANCH   1  16
ATOM     14  C   UNL     1       0.722  -1.946   0.899  0.00  0.00    +0.004 A 
ATOM     15  C   UNL     1      -0.559  -2.458   0.922  0.00  0.00    +0.008 A 
ATOM     16  C   UNL     1      -1.565  -1.856   0.156  0.00  0.00    -0.021 A 
ATOM     17  C   UNL     1      -1.264  -0.733  -0.625  0.00  0.00    +0.054 A 
ATOM     18  C   UNL     1       0.026  -0.234  -0.641  0.00  0.00    +0.133 A 
ATOM     19  C   UNL     1       1.016  -0.840   0.123  0.00  0.00    +0.046 A 
BRANCH  18  20
ATOM     20  O   UNL     1       0.324   0.852  -1.401  0.00  0.00    -0.422 OA
BRANCH  20  21
ATOM     21  C   UNL     1       0.987   0.653  -2.559  0.00  0.00    +0.351 C 
ATOM     22  O   UNL     1       1.331  -0.469  -2.877  0.00  0.00    -0.244 OA
BRANCH  21  23
ATOM     23  C   UNL     1       1.292   1.788  -3.432  0.00  0.00    +0.097 A 
ATOM     24  C   UNL     1       1.960   1.800  -4.648  0.00  0.00    +0.022 A 
ATOM     25  C   UNL     1       2.108   3.016  -5.266  0.00  0.00    +0.008 A 
ATOM     26  C   UNL     1       1.612   4.131  -4.667  0.00  0.00    +0.046 A 
ATOM     27  S   UNL     1       0.907   3.515  -3.208  0.00  0.00    -0.090 S 
ENDBRANCH  21  23
ENDBRANCH  20  21
ENDBRANCH  18  20
ENDBRANCH   1  16
BRANCH  11  28
ATOM     28  C   UNL     1      -6.544  -7.899   3.325  0.00  0.00    +0.046 C 
ATOM     29  C   UNL     1      -7.926  -7.472   2.825  0.00  0.00    +0.010 C 
ATOM     30  C   UNL     1      -9.006  -8.212   3.618  0.00  0.00    +0.001 C 
ATOM     31  C   UNL     1      -8.873  -7.870   5.103  0.00  0.00    +0.000 C 
ATOM     32  C   UNL     1      -7.491  -8.298   5.602  0.00  0.00    +0.001 C 
ATOM     33  C   UNL     1      -6.411  -7.558   4.810  0.00  0.00    +0.010 C 
ENDBRANCH  11  28
TORSDOF 5
