REMARK  Name = ZINC58159933
REMARK  8 active torsions:
REMARK  status: ('A' for Active; 'I' for Inactive)
REMARK    1  A    between atoms: C_1  and  C_2
REMARK    2  A    between atoms: C_6  and  N_9
REMARK    3  A    between atoms: C_7  and  C_8
REMARK    4  A    between atoms: C_10  and  C_12
REMARK    5  A    between atoms: C_12  and  N_13
REMARK    6  A    between atoms: N_13  and  C_14
REMARK    7  A    between atoms: C_19  and  C_20
REMARK    8  A    between atoms: C_26  and  O_29
REMARK                            x       y       z     vdW  Elec       q    Type
REMARK                         _______ _______ _______ _____ _____    ______ ____
ROOT
ATOM      1  C   UNL     1      -0.291  -7.247   4.470  0.00  0.00    +0.040 A 
ATOM      2  C   UNL     1      -0.420  -6.795   5.778  0.00  0.00    +0.024 A 
ATOM      3  C   UNL     1      -0.520  -7.700   6.815  0.00  0.00    +0.002 A 
ATOM      4  C   UNL     1      -0.494  -9.062   6.562  0.00  0.00    +0.001 A 
ATOM      5  C   UNL     1      -0.367  -9.529   5.272  0.00  0.00    +0.015 A 
ATOM      6  C   UNL     1      -0.270  -8.626   4.211  0.00  0.00    +0.058 A 
ENDROOT
BRANCH   6   7
ATOM      7  C   UNL     1      -0.140  -9.118   2.827  0.00  0.00    +0.248 C 
ATOM      8  O   UNL     1       0.785  -8.743   2.132  0.00  0.00    -0.270 OA
ATOM      9  N   UNL     1      -1.047  -9.984   2.332  0.00  0.00    -0.295 N 
ATOM     10  C   UNL     1      -2.236 -10.350   3.113  0.00  0.00    +0.108 C 
ATOM     11  C   UNL     1      -3.483 -10.100   2.260  0.00  0.00    +0.021 C 
ATOM     12  C   UNL     1      -3.348 -10.850   0.933  0.00  0.00    +0.034 C 
ATOM     13  C   UNL     1      -2.128 -10.326   0.171  0.00  0.00    +0.132 C 
ATOM     14  C   UNL     1      -0.868 -10.574   0.999  0.00  0.00    +0.139 C 
BRANCH  13  15
ATOM     15  O   UNL     1      -2.020 -11.004  -1.082  0.00  0.00    -0.390 OA
ATOM     16  H   UNL     1      -1.267 -10.722  -1.619  0.00  0.00    +0.210 HD
ENDBRANCH  13  15
ENDBRANCH   6   7
BRANCH   1  17
ATOM     17  N   UNL     1      -0.191  -6.338   3.425  0.00  0.00    -0.335 N 
ATOM     18  H   UNL     1      -0.179  -6.653   2.508  0.00  0.00    +0.147 HD
BRANCH  17  19
ATOM     19  C   UNL     1      -0.102  -4.903   3.708  0.00  0.00    +0.198 C 
BRANCH  19  21
ATOM     20  N   UNL     1       0.089  -2.796   2.425  0.00  0.00    -0.284 N 
ATOM     21  C   UNL     1      -0.003  -4.141   2.411  0.00  0.00    +0.234 C 
ATOM     22  O   UNL     1      -0.005  -4.738   1.355  0.00  0.00    -0.274 OA
ATOM     23  H   UNL     1       0.174  -2.325   3.269  0.00  0.00    +0.155 HD
BRANCH  20  29
ATOM     24  C   UNL     1       1.256   1.244  -0.121  0.00  0.00    +0.044 C 
ATOM     25  C   UNL     1       0.619  -0.120  -0.039  0.00  0.00    -0.046 A 
ATOM     26  C   UNL     1       0.008  -0.665  -1.153  0.00  0.00    +0.004 A 
ATOM     27  C   UNL     1      -0.577  -1.916  -1.082  0.00  0.00    +0.002 A 
ATOM     28  C   UNL     1      -0.551  -2.625   0.103  0.00  0.00    +0.023 A 
ATOM     29  C   UNL     1       0.062  -2.081   1.223  0.00  0.00    +0.037 A 
ATOM     30  C   UNL     1       0.653  -0.826   1.147  0.00  0.00    -0.026 A 
ATOM     31  C   UNL     1       1.325  -0.234   2.359  0.00  0.00    +0.046 C 
ENDBRANCH  20  29
ENDBRANCH  19  21
ENDBRANCH  17  19
ENDBRANCH   1  17
TORSDOF 6
