REMARK  Name = ZINC21124237
REMARK  12 active torsions:
REMARK  status: ('A' for Active; 'I' for Inactive)
REMARK    1  A    between atoms: C_1  and  C_2
REMARK    2  A    between atoms: C_2  and  C_3
REMARK    3  A    between atoms: C_2  and  C_4
REMARK    4  A    between atoms: C_9  and  N_10
REMARK    5  A    between atoms: C_11  and  C_27
REMARK    6  A    between atoms: C_14  and  S_15
REMARK    7  A    between atoms: S_15  and  C_16
REMARK    8  A    between atoms: C_16  and  C_17
REMARK    9  A    between atoms: N_22  and  C_23
REMARK   10  A    between atoms: C_23  and  C_24
REMARK   11  A    between atoms: C_24  and  O_25
REMARK   12  A    between atoms: O_25  and  C_26
REMARK                            x       y       z     vdW  Elec       q    Type
REMARK                         _______ _______ _______ _____ _____    ______ ____
ROOT
ATOM      1  N   UNL     1       2.057   0.674  -0.014  0.00  0.00    -0.270 N 
ATOM      2  C   UNL     1       1.242  -0.437  -0.012  0.00  0.00    +0.169 A 
ATOM      3  N   UNL     1       0.002  -0.004   0.002  0.00  0.00    -0.128 NA
ATOM      4  N   UNL     1      -0.015   1.281   0.009  0.00  0.00    -0.122 NA
ATOM      5  C   UNL     1       1.212   1.750  -0.000  0.00  0.00    +0.197 A 
ENDROOT
BRANCH   2   6
ATOM      6  C   UNL     1       1.679  -1.848  -0.025  0.00  0.00    +0.020 A 
ATOM      7  C   UNL     1       3.005  -2.174   0.268  0.00  0.00    +0.013 A 
ATOM      8  C   UNL     1       3.407  -3.493   0.259  0.00  0.00    +0.021 A 
ATOM      9  C   UNL     1       2.500  -4.494  -0.048  0.00  0.00    +0.041 A 
ATOM     10  C   UNL     1       1.185  -4.177  -0.344  0.00  0.00    +0.021 A 
ATOM     11  C   UNL     1       0.770  -2.861  -0.334  0.00  0.00    +0.013 A 
ATOM     12 CL   UNL     1       3.014  -6.152  -0.064  0.00  0.00    -0.084 Cl
ENDBRANCH   2   6
BRANCH   1  18
ATOM     13  C   UNL     1       4.165   0.707   1.167  0.00  0.00    -0.021 A 
ATOM     14  C   UNL     1       5.546   0.725   1.151  0.00  0.00    +0.006 A 
ATOM     15  C   UNL     1       6.225   0.742  -0.053  0.00  0.00    +0.000 A 
ATOM     16  C   UNL     1       5.523   0.737  -1.245  0.00  0.00    +0.002 A 
ATOM     17  C   UNL     1       4.143   0.714  -1.235  0.00  0.00    +0.026 A 
ATOM     18  C   UNL     1       3.458   0.696  -0.027  0.00  0.00    +0.054 A 
BRANCH  13  20
ATOM     19  C   UNL     1       3.825  -0.550   3.278  0.00  0.00    +0.012 C 
ATOM     20  C   UNL     1       3.426   0.694   2.481  0.00  0.00    +0.015 C 
ATOM     21  C   UNL     1       3.784   1.948   3.280  0.00  0.00    +0.012 C 
ENDBRANCH  13  20
ENDBRANCH   1  18
BRANCH   5  22
ATOM     22  S   UNL     1       1.683   3.448   0.003  0.00  0.00    -0.076 S 
BRANCH  22  23
ATOM     23  C   UNL     1       0.049   4.227   0.023  0.00  0.00    +0.173 C 
BRANCH  23  24
ATOM     24  C   UNL     1       0.206   5.725   0.029  0.00  0.00    +0.231 C 
ATOM     25  O   UNL     1       1.314   6.218   0.020  0.00  0.00    -0.274 OA
ATOM     26  N   UNL     1      -0.884   6.518   0.043  0.00  0.00    -0.240 N 
ATOM     27  C   UNL     1      -0.743   7.858   0.048  0.00  0.00    +0.306 C 
ATOM     28  O   UNL     1       0.367   8.352   0.039  0.00  0.00    -0.252 OA
ATOM     29  N   UNL     1      -1.833   8.650   0.062  0.00  0.00    -0.297 N 
ATOM     30  H   UNL     1      -1.889   6.070   0.050  0.00  0.00    +0.159 HD
ATOM     31  H   UNL     1      -2.838   8.203   0.070  0.00  0.00    +0.150 HD
BRANCH  29  32
ATOM     32  C   UNL     1      -1.680  10.107   0.068  0.00  0.00    +0.133 C 
BRANCH  32  33
ATOM     33  C   UNL     1      -3.061  10.765   0.084  0.00  0.00    +0.178 C 
BRANCH  33  34
ATOM     34  O   UNL     1      -3.724  10.450   1.310  0.00  0.00    -0.381 OA
ATOM     35  C   UNL     1      -5.030  11.020   1.428  0.00  0.00    +0.194 C 
ENDBRANCH  33  34
ENDBRANCH  32  33
ENDBRANCH  29  32
ENDBRANCH  23  24
ENDBRANCH  22  23
ENDBRANCH   5  22
TORSDOF 9
