REMARK  Name = ZINC03404588
REMARK  11 active torsions:
REMARK  status: ('A' for Active; 'I' for Inactive)
REMARK    1  A    between atoms: C_1  and  N_2
REMARK    2  A    between atoms: N_2  and  C_3
REMARK    3  A    between atoms: N_2  and  C_4
REMARK    4  A    between atoms: C_7  and  C_10
REMARK    5  A    between atoms: C_10  and  C_12
REMARK    6  A    between atoms: C_10  and  C_30
REMARK    7  A    between atoms: C_12  and  N_13
REMARK    8  A    between atoms: C_14  and  C_16
REMARK    9  A    between atoms: C_16  and  S_17
REMARK   10  A    between atoms: S_17  and  C_18
REMARK   11  A    between atoms: C_21  and  C_23
REMARK                            x       y       z     vdW  Elec       q    Type
REMARK                         _______ _______ _______ _____ _____    ______ ____
ROOT
ATOM      1  C   UNL     1      -2.527  -0.809   0.023  0.00  0.00    +0.068 C 
ENDROOT
BRANCH   1   2
ATOM      2  C   UNL     1      -1.037  -1.036   0.007  0.00  0.00    -0.013 A 
ATOM      3  C   UNL     1      -0.411  -2.224  -0.005  0.00  0.00    +0.088 A 
ATOM      4  N   UNL     1       0.945  -2.036  -0.017  0.00  0.00    -0.360 N 
ATOM      5  H   UNL     1       1.605  -2.746  -0.028  0.00  0.00    +0.165 HD
ATOM      6  C   UNL     1       1.231  -0.689  -0.013  0.00  0.00    +0.047 A 
ATOM      7  C   UNL     1       0.002  -0.004   0.002  0.00  0.00    +0.003 A 
ATOM      8  C   UNL     1      -0.017   1.392   0.010  0.00  0.00    +0.010 A 
ATOM      9  C   UNL     1       1.160   2.086   0.002  0.00  0.00    +0.001 A 
ATOM     10  C   UNL     1       2.375   1.415  -0.014  0.00  0.00    +0.002 A 
ATOM     11  C   UNL     1       2.417   0.038  -0.021  0.00  0.00    +0.026 A 
ENDBRANCH   1   2
BRANCH   1  15
ATOM     12  C   UNL     1      -4.205  -2.604   3.520  0.00  0.00    +0.029 A 
ATOM     13  C   UNL     1      -4.337  -1.238   3.307  0.00  0.00    +0.023 A 
ATOM     14  C   UNL     1      -3.793  -0.661   2.176  0.00  0.00    +0.006 A 
ATOM     15  C   UNL     1      -3.118  -1.442   1.256  0.00  0.00    -0.038 A 
ATOM     16  C   UNL     1      -2.990  -2.803   1.462  0.00  0.00    +0.006 A 
ATOM     17  C   UNL     1      -3.526  -3.386   2.594  0.00  0.00    +0.023 A 
BRANCH  12  19
ATOM     18  C   UNL     1      -5.469  -2.365   5.638  0.00  0.00    +0.129 C 
ATOM     19  N   UNL     1      -4.753  -3.191   4.663  0.00  0.00    -0.336 N 
ATOM     20  C   UNL     1      -4.613  -4.632   4.885  0.00  0.00    +0.129 C 
ENDBRANCH  12  19
ENDBRANCH   1  15
BRANCH   1  21
ATOM     21  C   UNL     1      -3.152  -1.438  -1.224  0.00  0.00    +0.117 C 
BRANCH  21  22
ATOM     22  N   UNL     1      -2.667  -0.743  -2.418  0.00  0.00    -0.314 N 
ATOM     23  C   UNL     1      -3.086  -1.128  -3.639  0.00  0.00    +0.223 C 
ATOM     24  O   UNL     1      -3.866  -2.050  -3.750  0.00  0.00    -0.275 OA
ATOM     25  H   UNL     1      -2.043  -0.005  -2.329  0.00  0.00    +0.149 HD
BRANCH  23  26
ATOM     26  C   UNL     1      -2.587  -0.412  -4.868  0.00  0.00    +0.174 C 
BRANCH  26  27
ATOM     27  S   UNL     1      -3.327  -1.156  -6.343  0.00  0.00    -0.056 S 
BRANCH  27  28
ATOM     28  C   UNL     1      -2.591  -0.156  -7.593  0.00  0.00    +0.278 A 
ATOM     29  N   UNL     1      -1.749   0.833  -7.401  0.00  0.00    -0.101 NA
ATOM     30  N   UNL     1      -1.417   1.339  -8.536  0.00  0.00    -0.106 NA
ATOM     31  C   UNL     1      -2.033   0.695  -9.497  0.00  0.00    +0.249 A 
ATOM     32  O   UNL     1      -2.785  -0.269  -8.921  0.00  0.00    -0.411 OA
BRANCH  31  33
ATOM     33  C   UNL     1      -1.920   0.968 -10.945  0.00  0.00    +0.039 A 
ATOM     34  C   UNL     1      -2.633   0.193 -11.861  0.00  0.00    +0.016 A 
ATOM     35  C   UNL     1      -2.529   0.455 -13.211  0.00  0.00    +0.039 A 
ATOM     36  C   UNL     1      -1.709   1.479 -13.659  0.00  0.00    +0.123 A 
ATOM     37  C   UNL     1      -0.995   2.248 -12.754  0.00  0.00    +0.039 A 
ATOM     38  C   UNL     1      -1.096   1.998 -11.402  0.00  0.00    +0.016 A 
ATOM     39  F   UNL     1      -1.606   1.728 -14.983  0.00  0.00    -0.205 F 
ENDBRANCH  31  33
ENDBRANCH  27  28
ENDBRANCH  26  27
ENDBRANCH  23  26
ENDBRANCH  21  22
ENDBRANCH   1  21
TORSDOF 9
