REMARK  Name = ZINC42015381
REMARK  5 active torsions:
REMARK  status: ('A' for Active; 'I' for Inactive)
REMARK    1  A    between atoms: C_1  and  C_2
REMARK    2  A    between atoms: C_5  and  N_21
REMARK    3  A    between atoms: C_7  and  C_8
REMARK    4  A    between atoms: N_12  and  C_13
REMARK    5  A    between atoms: C_18  and  C_19
REMARK                            x       y       z     vdW  Elec       q    Type
REMARK                         _______ _______ _______ _____ _____    ______ ____
ROOT
ATOM      1  C   UNL     1       0.197   0.011   2.504  0.00  0.00    +0.187 A 
ATOM      2  N   UNL     1       0.187   1.319   2.651  0.00  0.00    -0.108 NA
ATOM      3  N   UNL     1      -0.049   1.633   3.873  0.00  0.00    -0.022 NA
ATOM      4  N   UNL     1      -0.206   0.575   4.591  0.00  0.00    -0.039 NA
ATOM      5  N   UNL     1      -0.058  -0.528   3.731  0.00  0.00    -0.192 N 
ENDROOT
BRANCH   5   6
ATOM      6  C   UNL     1      -0.150  -1.887   4.064  0.00  0.00    +0.072 A 
ATOM      7  C   UNL     1       0.739  -2.800   3.511  0.00  0.00    +0.029 A 
ATOM      8  C   UNL     1       0.646  -4.137   3.840  0.00  0.00    +0.017 A 
ATOM      9  C   UNL     1      -0.332  -4.569   4.719  0.00  0.00    +0.018 A 
ATOM     10  C   UNL     1      -1.219  -3.661   5.271  0.00  0.00    +0.020 A 
ATOM     11  C   UNL     1      -1.127  -2.321   4.950  0.00  0.00    -0.024 A 
ATOM     12  C   UNL     1      -2.088  -1.332   5.556  0.00  0.00    +0.046 C 
ATOM     13 BR   UNL     1      -0.457  -6.402   5.167  0.00  0.00    -0.050 Br
ENDBRANCH   5   6
BRANCH   1  20
ATOM     14  C   UNL     1       2.206   0.946   0.648  0.00  0.00    +0.044 C 
ATOM     15  C   UNL     1       1.401  -0.291   0.344  0.00  0.00    -0.040 A 
ATOM     16  C   UNL     1       1.624  -0.990  -0.826  0.00  0.00    +0.006 A 
ATOM     17  C   UNL     1       0.888  -2.124  -1.109  0.00  0.00    +0.023 A 
ATOM     18  C   UNL     1      -0.082  -2.570  -0.218  0.00  0.00    +0.025 A 
ATOM     19  C   UNL     1      -0.313  -1.875   0.959  0.00  0.00    +0.034 A 
ATOM     20  C   UNL     1       0.434  -0.733   1.247  0.00  0.00    +0.026 A 
BRANCH  18  21
ATOM     21  N   UNL     1      -0.824  -3.717  -0.510  0.00  0.00    -0.358 N 
ATOM     22  H   UNL     1      -0.663  -4.202  -1.333  0.00  0.00    +0.142 HD
ATOM     23  H   UNL     1      -1.501  -4.027   0.112  0.00  0.00    +0.142 HD
ENDBRANCH  18  21
ENDBRANCH   1  20
TORSDOF 3
