REMARK  Name = ZINC08920527
REMARK  16 active torsions:
REMARK  status: ('A' for Active; 'I' for Inactive)
REMARK    1  A    between atoms: C_1  and  C_2
REMARK    2  A    between atoms: C_2  and  N_68
REMARK    3  A    between atoms: C_3  and  C_4
REMARK    4  A    between atoms: C_3  and  N_68
REMARK    5  A    between atoms: C_5  and  C_6
REMARK    6  A    between atoms: C_5  and  N_68
REMARK    7  A    between atoms: C_6  and  N_7
REMARK    8  A    between atoms: C_8  and  C_25
REMARK    9  A    between atoms: C_11  and  C_12
REMARK   10  A    between atoms: C_11  and  O_20
REMARK   11  A    between atoms: C_15  and  O_18
REMARK   12  A    between atoms: O_18  and  C_19
REMARK   13  A    between atoms: C_28  and  O_31
REMARK   14  A    between atoms: O_31  and  C_32
REMARK   15  A    between atoms: C_32  and  C_33
REMARK   16  A    between atoms: C_32  and  C_34
REMARK                            x       y       z     vdW  Elec       q    Type
REMARK                         _______ _______ _______ _____ _____    ______ ____
ROOT
ATOM      1  N   UNL     1      -0.598   1.691   5.408  0.00  0.00    -0.285 N 
ATOM      2  C   UNL     1      -1.017   0.831   6.519  0.00  0.00    +0.144 C 
ATOM      3  C   UNL     1      -1.452   1.750   7.637  0.00  0.00    +0.071 C 
ATOM      4  C   UNL     1      -1.926   1.378   8.880  0.00  0.00    +0.133 C 
ATOM      5  C   UNL     1      -1.279   3.057   7.158  0.00  0.00    +0.249 C 
ATOM      6  O   UNL     1      -1.521   4.081   7.771  0.00  0.00    -0.282 OA
ATOM      7  C   UNL     1      -0.742   2.976   5.772  0.00  0.00    +0.288 C 
ATOM      8  O   UNL     1      -0.476   3.932   5.072  0.00  0.00    -0.266 OA
ENDROOT
BRANCH   4   9
ATOM      9  C   UNL     1      -2.168   2.399   9.911  0.00  0.00    +0.017 A 
ATOM     10  C   UNL     1      -1.168   3.327  10.229  0.00  0.00    +0.015 A 
ATOM     11  C   UNL     1      -1.402   4.284  11.190  0.00  0.00    +0.046 A 
ATOM     12  C   UNL     1      -2.624   4.324  11.853  0.00  0.00    +0.120 A 
ATOM     13  C   UNL     1      -3.618   3.401  11.545  0.00  0.00    +0.046 A 
ATOM     14  C   UNL     1      -3.396   2.443  10.582  0.00  0.00    +0.015 A 
BRANCH  12  15
ATOM     15  O   UNL     1      -2.847   5.266  12.803  0.00  0.00    -0.495 OA
ATOM     16  C   UNL     1      -1.784   6.183  13.070  0.00  0.00    +0.277 C 
ENDBRANCH  12  15
ENDBRANCH   4   9
BRANCH   2  17
ATOM     17  C   UNL     1       0.138  -0.024   6.974  0.00  0.00    -0.022 A 
ATOM     18  C   UNL     1       1.411   0.513   7.038  0.00  0.00    +0.009 A 
ATOM     19  C   UNL     1       2.470  -0.267   7.460  0.00  0.00    +0.046 A 
ATOM     20  C   UNL     1       2.258  -1.593   7.808  0.00  0.00    +0.121 A 
ATOM     21  C   UNL     1       0.981  -2.131   7.737  0.00  0.00    +0.046 A 
ATOM     22  C   UNL     1      -0.076  -1.345   7.320  0.00  0.00    +0.009 A 
BRANCH  20  23
ATOM     23  O   UNL     1       3.299  -2.363   8.219  0.00  0.00    -0.489 OA
BRANCH  23  24
ATOM     24  C   UNL     1       2.989  -3.676   8.691  0.00  0.00    +0.167 C 
ATOM     25  C   UNL     1       3.113  -4.675   7.538  0.00  0.00    +0.051 C 
ATOM     26  C   UNL     1       3.963  -4.061   9.806  0.00  0.00    +0.051 C 
ENDBRANCH  23  24
ENDBRANCH  20  23
ENDBRANCH   2  17
BRANCH   4  27
ATOM     27  O   UNL     1      -2.167   0.077   9.149  0.00  0.00    -0.506 OA
ATOM     28  H   UNL     1      -2.503  -0.013  10.087  0.00  0.00    +0.292 HD
ENDBRANCH   4  27
BRANCH   1  29
ATOM     29  C   UNL     1      -0.098   1.224   4.113  0.00  0.00    +0.090 C 
BRANCH  29  30
ATOM     30  C   UNL     1      -1.270   1.051   3.145  0.00  0.00    -0.060 C 
BRANCH  30  31
ATOM     31  N   UNL     1      -0.747   0.601   1.838  0.00  0.00    +0.380 N 
ATOM     32  H   UNL     1       0.005   1.234   1.544  0.00  0.00    -0.082 HD
BRANCH  31  34
ATOM     33  C   UNL     1      -2.052   2.081   0.395  0.00  0.00    -0.017 C 
ATOM     34  C   UNL     1      -1.824   0.630   0.826  0.00  0.00    -0.082 C 
ENDBRANCH  31  34
BRANCH  31  35
ATOM     35  C   UNL     1      -0.203  -0.768   1.956  0.00  0.00    -0.082 C 
ATOM     36  C   UNL     1       0.718  -1.034   0.764  0.00  0.00    -0.017 C 
ENDBRANCH  31  35
ENDBRANCH  30  31
ENDBRANCH  29  30
ENDBRANCH   1  29
TORSDOF 11
