REMARK  Name = ZINC20974567
REMARK  7 active torsions:
REMARK  status: ('A' for Active; 'I' for Inactive)
REMARK    1  A    between atoms: C_4  and  C_7
REMARK    2  A    between atoms: C_12  and  N_13
REMARK    3  A    between atoms: N_13  and  C_14
REMARK    4  A    between atoms: C_14  and  N_16
REMARK    5  A    between atoms: C_17  and  C_19
REMARK    6  A    between atoms: C_21  and  N_31
REMARK    7  A    between atoms: C_24  and  N_25
REMARK                            x       y       z     vdW  Elec       q    Type
REMARK                         _______ _______ _______ _____ _____    ______ ____
ROOT
ATOM      1  N   UNL     1      -0.035   1.367   0.395  0.00  0.00    -0.264 N 
ATOM      2  C   UNL     1      -0.016   0.074   0.777  0.00  0.00    +0.251 C 
ATOM      3  O   UNL     1      -1.042  -0.468   1.138  0.00  0.00    -0.270 OA
ATOM      4  H   UNL     1       0.895   1.858   0.072  0.00  0.00    +0.157 HD
ENDROOT
BRANCH   2   5
ATOM      5  C   UNL     1       1.249  -0.682   0.756  0.00  0.00    +0.060 A 
ATOM      6  C   UNL     1       2.430  -0.065   0.336  0.00  0.00    +0.047 A 
ATOM      7  C   UNL     1       3.610  -0.776   0.325  0.00  0.00    +0.127 A 
ATOM      8  C   UNL     1       3.631  -2.105   0.718  0.00  0.00    +0.034 A 
ATOM      9  C   UNL     1       2.472  -2.730   1.130  0.00  0.00    +0.026 A 
ATOM     10  C   UNL     1       1.273  -2.028   1.153  0.00  0.00    +0.042 A 
BRANCH  10  11
ATOM     11  N   UNL     1       0.105  -2.655   1.568  0.00  0.00    -0.325 N 
ATOM     12  C   UNL     1       0.198  -3.063   2.977  0.00  0.00    +0.133 C 
ATOM     13  C   UNL     1      -1.128  -3.695   3.409  0.00  0.00    +0.178 C 
ATOM     14  O   UNL     1      -1.430  -4.794   2.545  0.00  0.00    -0.377 OA
ATOM     15  C   UNL     1      -1.529  -4.432   1.165  0.00  0.00    +0.178 C 
ATOM     16  C   UNL     1      -0.206  -3.808   0.711  0.00  0.00    +0.133 C 
ENDBRANCH  10  11
BRANCH   7  17
ATOM     17  N   UNL     1       4.861  -0.119  -0.115  0.00  0.00    +0.056 N 
ATOM     18  O   UNL     1       5.905  -0.746  -0.132  0.00  0.00    -0.126 OA
ATOM     19  O   UNL     1       4.847   1.049  -0.461  0.00  0.00    -0.126 OA
ENDBRANCH   7  17
ENDBRANCH   2   5
BRANCH   1  20
ATOM     20  C   UNL     1      -1.192   2.057   0.408  0.00  0.00    +0.141 C 
ATOM     21  S   UNL     1      -2.639   1.292   0.910  0.00  0.00    -0.018 S 
BRANCH  20  22
ATOM     22  N   UNL     1      -1.211   3.349   0.026  0.00  0.00    -0.296 N 
ATOM     23  H   UNL     1      -0.269   3.866  -0.210  0.00  0.00    +0.154 HD
BRANCH  22  29
ATOM     24  C   UNL     1      -2.547   5.326   0.447  0.00  0.00    +0.003 A 
ATOM     25  C   UNL     1      -3.761   6.000   0.341  0.00  0.00    +0.010 A 
ATOM     26  C   UNL     1      -4.840   5.386  -0.262  0.00  0.00    +0.001 A 
ATOM     27  C   UNL     1      -4.719   4.103  -0.768  0.00  0.00    +0.002 A 
ATOM     28  C   UNL     1      -3.519   3.426  -0.673  0.00  0.00    +0.024 A 
ATOM     29  C   UNL     1      -2.426   4.032  -0.070  0.00  0.00    +0.040 A 
BRANCH  24  33
ATOM     30  C   UNL     1       0.779   7.200   2.318  0.00  0.00    +0.000 A 
ATOM     31  C   UNL     1       0.072   7.872   1.337  0.00  0.00    +0.001 A 
ATOM     32  C   UNL     1      -1.008   7.269   0.726  0.00  0.00    +0.008 A 
ATOM     33  C   UNL     1      -1.386   5.980   1.099  0.00  0.00    -0.016 A 
ATOM     34  C   UNL     1      -0.673   5.310   2.092  0.00  0.00    +0.008 A 
ATOM     35  C   UNL     1       0.409   5.921   2.692  0.00  0.00    +0.001 A 
ENDBRANCH  24  33
ENDBRANCH  22  29
ENDBRANCH  20  22
ENDBRANCH   1  20
TORSDOF 7
