REMARK  Name = ZINC63805112
REMARK  9 active torsions:
REMARK  status: ('A' for Active; 'I' for Inactive)
REMARK    1  A    between atoms: C_1  and  C_2
REMARK    2  A    between atoms: C_3  and  N_9
REMARK    3  A    between atoms: C_10  and  C_12
REMARK    4  A    between atoms: C_12  and  S_13
REMARK    5  A    between atoms: S_13  and  C_14
REMARK    6  A    between atoms: C_18  and  C_21
REMARK    7  A    between atoms: C_21  and  C_23
REMARK    8  A    between atoms: C_21  and  N_33
REMARK    9  A    between atoms: C_23  and  C_24
REMARK                            x       y       z     vdW  Elec       q    Type
REMARK                         _______ _______ _______ _____ _____    ______ ____
ROOT
ATOM      1  C   UNL     1       0.428   0.008  -7.724  0.00  0.00    +0.263 C 
ATOM      2  N   UNL     1      -0.750   0.911  -7.795  0.00  0.00    -0.218 NA
ATOM      3  N   UNL     1      -0.239   2.031  -8.604  0.00  0.00    -0.228 NA
ATOM      4  C   UNL     1       1.171   2.160  -8.171  0.00  0.00    +0.188 C 
ATOM      5  O   UNL     1       1.560   0.890  -7.621  0.00  0.00    -0.334 OA
ATOM      6  H   UNL     1      -1.526   0.458  -8.254  0.00  0.00    +0.144 HD
ATOM      7  H   UNL     1      -0.297   1.821  -9.589  0.00  0.00    +0.143 HD
ENDROOT
BRANCH   1   8
ATOM      8  S   UNL     1       0.322  -1.057  -6.259  0.00  0.00    -0.104 S 
BRANCH   8   9
ATOM      9  C   UNL     1       0.192   0.111  -4.876  0.00  0.00    +0.169 C 
BRANCH   9  11
ATOM     10  N   UNL     1      -0.010   0.011  -2.413  0.00  0.00    -0.285 N 
ATOM     11  C   UNL     1       0.095  -0.653  -3.581  0.00  0.00    +0.227 C 
ATOM     12  O   UNL     1       0.112  -1.866  -3.590  0.00  0.00    -0.275 OA
ATOM     13  H   UNL     1      -0.104   0.977  -2.411  0.00  0.00    +0.155 HD
BRANCH  10  16
ATOM     14  C   UNL     1      -1.263   1.190  -0.146  0.00  0.00    +0.047 C 
ATOM     15  C   UNL     1      -0.583  -0.153  -0.073  0.00  0.00    -0.011 A 
ATOM     16  C   UNL     1       0.017  -0.692  -1.204  0.00  0.00    +0.038 A 
ATOM     17  C   UNL     1       0.642  -1.929  -1.132  0.00  0.00    +0.023 A 
ATOM     18  C   UNL     1       0.667  -2.621   0.064  0.00  0.00    +0.003 A 
ATOM     19  C   UNL     1       0.069  -2.084   1.188  0.00  0.00    +0.020 A 
ATOM     20  C   UNL     1      -0.550  -0.848   1.122  0.00  0.00    +0.046 A 
ATOM     21 CL   UNL     1      -1.293  -0.173   2.538  0.00  0.00    -0.083 Cl
ENDBRANCH  10  16
ENDBRANCH   9  11
ENDBRANCH   8   9
ENDBRANCH   1   8
BRANCH   4  22
ATOM     22  C   UNL     1       2.056   2.504  -9.371  0.00  0.00    -0.025 C 
BRANCH  22  23
ATOM     23  N   UNL     1       1.611   3.775  -9.959  0.00  0.00    +0.383 N 
ATOM     24  H   UNL     1       2.195   4.001 -10.751  0.00  0.00    -0.089 HD
ATOM     25  H   UNL     1       0.652   3.688 -10.261  0.00  0.00    -0.089 HD
ATOM     26  H   UNL     1       1.682   4.507  -9.269  0.00  0.00    -0.089 HD
ENDBRANCH  22  23
BRANCH  22  27
ATOM     27  C   UNL     1       3.510   2.634  -8.913  0.00  0.00    +0.021 C 
BRANCH  27  28
ATOM     28  C   UNL     1       4.397   2.851 -10.112  0.00  0.00    -0.043 C 
ATOM     29  C   UNL     1       4.828   4.036 -10.600  0.00  0.00    -0.001 A 
ATOM     30  C   UNL     1       4.608   5.425 -10.179  0.00  0.00    +0.010 A 
ATOM     31  C   UNL     1       5.186   6.424 -10.884  0.00  0.00    +0.001 A 
ATOM     32  C   UNL     1       5.986   6.167 -12.006  0.00  0.00    +0.002 A 
ATOM     33  C   UNL     1       6.234   4.918 -12.454  0.00  0.00    +0.026 A 
ATOM     34  C   UNL     1       5.678   3.792 -11.788  0.00  0.00    +0.043 A 
ATOM     35  N   UNL     1       5.768   2.505 -12.024  0.00  0.00    -0.380 N 
ATOM     36  C   UNL     1       4.990   1.788 -11.008  0.00  0.00    +0.144 C 
ATOM     37  H   UNL     1       6.269   2.096 -12.747  0.00  0.00    +0.160 HD
ENDBRANCH  27  28
ENDBRANCH  22  27
ENDBRANCH   4  22
TORSDOF 8
