REMARK  Name = ZINC58164494
REMARK  7 active torsions:
REMARK  status: ('A' for Active; 'I' for Inactive)
REMARK    1  A    between atoms: C_4  and  C_7
REMARK    2  A    between atoms: C_7  and  C_9
REMARK    3  A    between atoms: C_7  and  N_22
REMARK    4  A    between atoms: N_11  and  C_12
REMARK    5  A    between atoms: C_15  and  N_19
REMARK    6  A    between atoms: N_22  and  C_23
REMARK    7  A    between atoms: C_23  and  C_24
REMARK                            x       y       z     vdW  Elec       q    Type
REMARK                         _______ _______ _______ _____ _____    ______ ____
ROOT
ATOM      1  C   UNL     1       3.696  -0.708  -0.034  0.00  0.00    +0.171 C 
ENDROOT
BRANCH   1   5
ATOM      2  C   UNL     1      -0.040   1.363   0.041  0.00  0.00    +0.000 A 
ATOM      3  C   UNL     1       1.145   2.075   0.025  0.00  0.00    +0.000 A 
ATOM      4  C   UNL     1       2.354   1.405   0.001  0.00  0.00    +0.005 A 
ATOM      5  C   UNL     1       2.378   0.023  -0.007  0.00  0.00    -0.022 A 
ATOM      6  C   UNL     1       1.193  -0.689   0.009  0.00  0.00    +0.005 A 
ATOM      7  C   UNL     1      -0.016  -0.019   0.032  0.00  0.00    +0.000 A 
ENDBRANCH   1   5
BRANCH   1   8
ATOM      8  C   UNL     1       4.040  -1.175   1.357  0.00  0.00    +0.239 C 
ATOM      9  O   UNL     1       4.186  -2.358   1.580  0.00  0.00    -0.273 OA
ATOM     10  N   UNL     1       4.186  -0.278   2.352  0.00  0.00    -0.283 N 
ATOM     11  H   UNL     1       4.148   0.672   2.158  0.00  0.00    +0.155 HD
BRANCH  10  12
ATOM     12  C   UNL     1       4.391  -0.717   3.665  0.00  0.00    +0.052 A 
ATOM     13  C   UNL     1       3.950  -1.974   4.055  0.00  0.00    +0.027 A 
ATOM     14  C   UNL     1       4.154  -2.405   5.352  0.00  0.00    +0.034 A 
ATOM     15  C   UNL     1       4.797  -1.585   6.261  0.00  0.00    +0.128 A 
ATOM     16  C   UNL     1       5.237  -0.332   5.877  0.00  0.00    +0.054 A 
ATOM     17  C   UNL     1       5.040   0.103   4.580  0.00  0.00    +0.064 A 
ATOM     18 CL   UNL     1       5.599   1.674   4.096  0.00  0.00    -0.082 Cl
BRANCH  15  19
ATOM     19  N   UNL     1       5.013  -2.050   7.650  0.00  0.00    +0.056 N 
ATOM     20  O   UNL     1       4.628  -3.145   7.988  0.00  0.00    -0.126 OA
ATOM     21  O   UNL     1       5.574  -1.334   8.447  0.00  0.00    -0.126 OA
ENDBRANCH  15  19
ENDBRANCH  10  12
ENDBRANCH   1   8
BRANCH   1  22
ATOM     22  N   UNL     1       3.594  -1.868  -0.929  0.00  0.00    -0.298 NA
ATOM     23  H   UNL     1       4.218  -2.606  -0.637  0.00  0.00    +0.123 HD
BRANCH  22  24
ATOM     24  C   UNL     1       3.851  -1.482  -2.323  0.00  0.00    +0.130 C 
BRANCH  24  25
ATOM     25  C   UNL     1       3.736  -2.714  -3.223  0.00  0.00    +0.224 C 
ATOM     26  C   UNL     1       4.018  -2.320  -4.679  0.00  0.00    +0.275 C 
ATOM     27  O   UNL     1       3.917  -3.495  -5.490  0.00  0.00    -0.485 OA
ATOM     28  C   UNL     1       4.546  -4.611  -5.030  0.00  0.00    +0.162 A 
ATOM     29  C   UNL     1       4.801  -5.658  -5.904  0.00  0.00    +0.049 A 
ATOM     30  C   UNL     1       5.436  -6.798  -5.452  0.00  0.00    +0.004 A 
ATOM     31  C   UNL     1       5.821  -6.899  -4.128  0.00  0.00    +0.004 A 
ATOM     32  C   UNL     1       5.572  -5.860  -3.252  0.00  0.00    +0.049 A 
ATOM     33  C   UNL     1       4.935  -4.712  -3.700  0.00  0.00    +0.163 A 
ATOM     34  O   UNL     1       4.704  -3.693  -2.827  0.00  0.00    -0.481 OA
ENDBRANCH  24  25
ENDBRANCH  22  24
ENDBRANCH   1  22
TORSDOF 7
