REMARK  Name = ZINC20418487
REMARK  8 active torsions:
REMARK  status: ('A' for Active; 'I' for Inactive)
REMARK    1  A    between atoms: C_1  and  C_2
REMARK    2  A    between atoms: C_7  and  C_8
REMARK    3  A    between atoms: C_8  and  N_9
REMARK    4  A    between atoms: C_10  and  C_31
REMARK    5  A    between atoms: C_11  and  N_16
REMARK    6  A    between atoms: C_12  and  C_15
REMARK    7  A    between atoms: C_17  and  C_19
REMARK    8  A    between atoms: C_21  and  C_24
REMARK                            x       y       z     vdW  Elec       q    Type
REMARK                         _______ _______ _______ _____ _____    ______ ____
ROOT
ATOM      1  N   UNL     1       8.142   8.493   0.147  0.00  0.00    -0.265 N 
ATOM      2  C   UNL     1       7.223   7.454   0.101  0.00  0.00    +0.038 C 
ATOM      3  C   UNL     1       7.825   6.278   0.014  0.00  0.00    +0.047 C 
ATOM      4  C   UNL     1       9.314   6.549   0.006  0.00  0.00    +0.115 C 
ATOM      5  N   UNL     1       9.421   8.018   0.090  0.00  0.00    -0.232 NA
ATOM      6  C   UNL     1       9.942   6.043  -1.294  0.00  0.00    +0.032 C 
ATOM      7  C   UNL     1       5.728   7.640   0.144  0.00  0.00    +0.063 C 
ATOM      8  H   UNL     1       9.946   8.293   0.907  0.00  0.00    +0.145 HD
ENDROOT
BRANCH   3   9
ATOM      9  N   UNL     1       7.204   5.026  -0.052  0.00  0.00    -0.281 N 
ATOM     10  C   UNL     1       7.501   4.078   0.859  0.00  0.00    +0.270 C 
ATOM     11  O   UNL     1       8.371   4.279   1.684  0.00  0.00    -0.268 OA
ATOM     12  H   UNL     1       6.474   4.815  -0.847  0.00  0.00    +0.155 HD
BRANCH  10  13
ATOM     13  C   UNL     1       6.765   2.790   0.856  0.00  0.00    +0.168 A 
ATOM     14  C   UNL     1       6.957   1.698   1.742  0.00  0.00    +0.086 A 
ATOM     15  C   UNL     1       6.043   0.772   1.321  0.00  0.00    +0.168 A 
ATOM     16  O   UNL     1       5.403   1.321   0.274  0.00  0.00    -0.354 OA
ATOM     17  N   UNL     1       5.808   2.434   0.034  0.00  0.00    -0.073 NA
BRANCH  15  18
ATOM     18  C   UNL     1       5.810  -0.568   1.899  0.00  0.00    +0.020 A 
ATOM     19  C   UNL     1       6.566  -1.002   2.990  0.00  0.00    +0.013 A 
ATOM     20  C   UNL     1       6.345  -2.254   3.525  0.00  0.00    +0.021 A 
ATOM     21  C   UNL     1       5.375  -3.080   2.981  0.00  0.00    +0.041 A 
ATOM     22  C   UNL     1       4.622  -2.655   1.899  0.00  0.00    +0.021 A 
ATOM     23  C   UNL     1       4.835  -1.405   1.356  0.00  0.00    +0.013 A 
ATOM     24 CL   UNL     1       5.102  -4.655   3.659  0.00  0.00    -0.084 Cl
ENDBRANCH  15  18
ENDBRANCH  10  13
ENDBRANCH   3   9
BRANCH   1  25
ATOM     25  C   UNL     1       7.787   9.912   0.245  0.00  0.00    +0.159 C 
BRANCH  25  32
ATOM     26  C   UNL     1       6.852  12.553   0.946  0.00  0.00    +0.044 C 
ATOM     27  C   UNL     1       7.141  11.545   2.027  0.00  0.00    -0.046 A 
ATOM     28  C   UNL     1       6.954  11.883   3.355  0.00  0.00    +0.003 A 
ATOM     29  C   UNL     1       7.223  10.959   4.348  0.00  0.00    +0.000 A 
ATOM     30  C   UNL     1       7.676   9.696   4.012  0.00  0.00    +0.000 A 
ATOM     31  C   UNL     1       7.859   9.357   2.685  0.00  0.00    +0.005 A 
ATOM     32  C   UNL     1       7.588  10.281   1.692  0.00  0.00    -0.026 A 
ENDBRANCH  25  32
ENDBRANCH   1  25
TORSDOF 5
