REMARK  Name = ZINC34757785
REMARK  7 active torsions:
REMARK  status: ('A' for Active; 'I' for Inactive)
REMARK    1  A    between atoms: C_1  and  N_2
REMARK    2  A    between atoms: C_12  and  O_14
REMARK    3  A    between atoms: O_14  and  C_15
REMARK    4  A    between atoms: C_20  and  O_21
REMARK    5  A    between atoms: O_21  and  C_22
REMARK    6  A    between atoms: C_27  and  C_29
REMARK    7  A    between atoms: C_32  and  C_35
REMARK                            x       y       z     vdW  Elec       q    Type
REMARK                         _______ _______ _______ _____ _____    ______ ____
ROOT
ATOM      1  C   UNL     1      -0.938   1.218   0.702  0.00  0.00    -0.096 C 
ATOM      2  N   UNL     1      -0.774  -0.231   0.520  0.00  0.00    +0.380 N 
ATOM      3  C   UNL     1      -0.013  -0.484  -0.710  0.00  0.00    -0.060 C 
ATOM      4  C   UNL     1       0.061  -1.994  -0.962  0.00  0.00    +0.089 C 
ATOM      5  N   UNL     1       0.613  -2.641   0.238  0.00  0.00    -0.303 N 
ATOM      6  C   UNL     1       0.011  -2.314   1.540  0.00  0.00    +0.089 C 
ATOM      7  C   UNL     1      -0.060  -0.790   1.675  0.00  0.00    -0.060 C 
ATOM      8  C   UNL     1       1.669  -3.530   0.145  0.00  0.00    +0.221 A 
ATOM      9  N   UNL     1       2.181  -4.043   1.252  0.00  0.00    -0.219 NA
ATOM     10  C   UNL     1       3.194  -4.904   1.209  0.00  0.00    +0.056 A 
ATOM     11  C   UNL     1       3.705  -5.266  -0.015  0.00  0.00    +0.053 A 
ATOM     12  C   UNL     1       3.150  -4.704  -1.167  0.00  0.00    +0.230 A 
ATOM     13  N   UNL     1       2.139  -3.853  -1.050  0.00  0.00    -0.179 NA
ATOM     14  C   UNL     1       4.831  -6.255  -0.163  0.00  0.00    +0.150 C 
ATOM     15  N   UNL     1       5.433  -6.513   1.150  0.00  0.00    -0.293 N 
ATOM     16  C   UNL     1       4.519  -6.726   2.284  0.00  0.00    +0.114 C 
ATOM     17  C   UNL     1       3.735  -5.433   2.509  0.00  0.00    +0.075 C 
ATOM     18  C   UNL     1       6.771  -6.554   1.311  0.00  0.00    +0.247 C 
ATOM     19  O   UNL     1       7.245  -6.691   2.422  0.00  0.00    -0.270 OA
ATOM     20  H   UNL     1      -1.682  -0.664   0.446  0.00  0.00    -0.082 HD
ENDROOT
BRANCH  18  21
ATOM     21  C   UNL     1       7.661  -6.434   0.137  0.00  0.00    +0.037 A 
ATOM     22  C   UNL     1       8.916  -5.839   0.267  0.00  0.00    +0.013 A 
ATOM     23  C   UNL     1       9.742  -5.730  -0.833  0.00  0.00    +0.013 A 
ATOM     24  C   UNL     1       9.328  -6.210  -2.063  0.00  0.00    +0.055 A 
ATOM     25  C   UNL     1       8.085  -6.801  -2.199  0.00  0.00    +0.013 A 
ATOM     26  C   UNL     1       7.252  -6.922  -1.105  0.00  0.00    +0.013 A 
BRANCH  24  27
ATOM     27  C   UNL     1      10.236  -6.088  -3.260  0.00  0.00    +0.417 C 
ATOM     28  F   UNL     1      11.045  -7.225  -3.349  0.00  0.00    -0.166 F 
ATOM     29  F   UNL     1       9.463  -5.972  -4.420  0.00  0.00    -0.166 F 
ATOM     30  F   UNL     1      11.041  -4.952  -3.120  0.00  0.00    -0.166 F 
ENDBRANCH  24  27
ENDBRANCH  18  21
BRANCH  12  31
ATOM     31  O   UNL     1       3.635  -5.028  -2.390  0.00  0.00    -0.434 OA
BRANCH  31  32
ATOM     32  C   UNL     1       3.152  -4.354  -3.468  0.00  0.00    +0.172 A 
ATOM     33  C   UNL     1       2.478  -3.156  -3.292  0.00  0.00    +0.050 A 
ATOM     34  C   UNL     1       1.989  -2.471  -4.389  0.00  0.00    +0.004 A 
ATOM     35  C   UNL     1       2.170  -2.979  -5.662  0.00  0.00    +0.004 A 
ATOM     36  C   UNL     1       2.841  -4.174  -5.844  0.00  0.00    +0.049 A 
ATOM     37  C   UNL     1       3.339  -4.862  -4.750  0.00  0.00    +0.162 A 
BRANCH  37  38
ATOM     38  O   UNL     1       4.005  -6.035  -4.928  0.00  0.00    -0.491 OA
ATOM     39  C   UNL     1       4.159  -6.496  -6.271  0.00  0.00    +0.277 C 
ENDBRANCH  37  38
ENDBRANCH  31  32
ENDBRANCH  12  31
TORSDOF 5
