REMARK  Name = ZINC33625926
REMARK  18 active torsions:
REMARK  status: ('A' for Active; 'I' for Inactive)
REMARK    1  A    between atoms: C_1  and  C_2
REMARK    2  A    between atoms: C_2  and  C_3
REMARK    3  A    between atoms: C_3  and  C_4
REMARK    4  A    between atoms: C_3  and  C_5
REMARK    5  A    between atoms: C_3  and  C_6
REMARK    6  A    between atoms: C_9  and  O_17
REMARK    7  A    between atoms: C_10  and  C_12
REMARK    8  A    between atoms: C_12  and  C_13
REMARK    9  A    between atoms: C_12  and  C_14
REMARK   10  A    between atoms: C_12  and  C_15
REMARK   11  A    between atoms: C_15  and  C_16
REMARK   12  A    between atoms: O_17  and  C_18
REMARK   13  A    between atoms: C_18  and  C_19
REMARK   14  A    between atoms: C_19  and  C_20
REMARK   15  A    between atoms: C_20  and  C_21
REMARK   16  A    between atoms: C_21  and  N_22
REMARK   17  A    between atoms: C_23  and  C_25
REMARK   18  A    between atoms: C_28  and  C_30
REMARK                            x       y       z     vdW  Elec       q    Type
REMARK                         _______ _______ _______ _____ _____    ______ ____
ROOT
ATOM      1  C   UNL     1      -3.261   3.326   5.188  0.00  0.00    +0.042 C 
ENDROOT
BRANCH   1   2
ATOM      2  C   UNL     1      -2.001   2.459   5.229  0.00  0.00    +0.229 C 
BRANCH   2   3
ATOM      3  O   UNL     1      -1.579   2.168   3.896  0.00  0.00    -0.492 OA
BRANCH   3   7
ATOM      4  C   UNL     1       1.801  -0.158   3.466  0.00  0.00    -0.041 A 
ATOM      5  C   UNL     1       1.339   0.162   4.730  0.00  0.00    +0.008 A 
ATOM      6  C   UNL     1       0.207   0.940   4.876  0.00  0.00    +0.046 A 
ATOM      7  C   UNL     1      -0.466   1.401   3.754  0.00  0.00    +0.124 A 
ATOM      8  C   UNL     1       0.000   1.080   2.488  0.00  0.00    +0.000 A 
ATOM      9  C   UNL     1       1.130   0.297   2.347  0.00  0.00    +0.012 A 
BRANCH   4  10
ATOM     10  C   UNL     1       3.036  -1.007   3.309  0.00  0.00    -0.010 C 
ATOM     11  C   UNL     1       2.684  -2.282   2.541  0.00  0.00    +0.016 C 
ATOM     12  C   UNL     1       4.099  -0.223   2.538  0.00  0.00    +0.016 C 
BRANCH  10  14
ATOM     13  C   UNL     1       4.833  -2.240   4.532  0.00  0.00    +0.005 C 
ATOM     14  C   UNL     1       3.579  -1.378   4.691  0.00  0.00    +0.007 C 
ENDBRANCH  10  14
ENDBRANCH   4  10
BRANCH   8  15
ATOM     15  C   UNL     1      -0.729   1.579   1.267  0.00  0.00    -0.007 C 
ATOM     16  C   UNL     1      -0.013   1.086   0.008  0.00  0.00    +0.016 C 
ATOM     17  C   UNL     1      -2.164   1.050   1.278  0.00  0.00    +0.016 C 
BRANCH  15  18
ATOM     18  C   UNL     1      -0.750   3.109   1.275  0.00  0.00    +0.008 C 
ATOM     19  C   UNL     1      -1.490   3.616   0.036  0.00  0.00    +0.005 C 
ENDBRANCH  15  18
ENDBRANCH   8  15
ENDBRANCH   3   7
ENDBRANCH   2   3
ENDBRANCH   1   2
BRANCH   1  20
ATOM     20  C   UNL     1      -3.713   3.638   6.616  0.00  0.00    +0.022 C 
BRANCH  20  21
ATOM     21  C   UNL     1      -4.973   4.505   6.574  0.00  0.00    +0.104 C 
BRANCH  21  22
ATOM     22  N   UNL     1      -5.406   4.803   7.942  0.00  0.00    -0.310 N 
ATOM     23  C   UNL     1      -6.502   5.558   8.152  0.00  0.00    +0.266 C 
ATOM     24  O   UNL     1      -7.133   5.991   7.207  0.00  0.00    -0.268 OA
ATOM     25  H   UNL     1      -4.835   4.412   8.797  0.00  0.00    +0.149 HD
BRANCH  23  26
ATOM     26  C   UNL     1      -6.938   5.859   9.528  0.00  0.00    +0.163 A 
ATOM     27  C   UNL     1      -8.019   6.602   9.890  0.00  0.00    +0.230 A 
ATOM     28  O   UNL     1      -8.047   6.623  11.232  0.00  0.00    -0.449 OA
ATOM     29  C   UNL     1      -7.008   5.909  11.685  0.00  0.00    +0.182 A 
ATOM     30  N   UNL     1      -6.338   5.440  10.675  0.00  0.00    -0.210 NA
BRANCH  29  31
ATOM     31  C   UNL     1      -6.672   5.680  13.136  0.00  0.00    +0.016 C 
ATOM     32  C   UNL     1      -7.660   4.665  13.750  0.00  0.00    -0.008 C 
ATOM     33  C   UNL     1      -7.900   5.228  15.175  0.00  0.00    -0.020 C 
ATOM     34  C   UNL     1      -7.862   6.755  14.919  0.00  0.00    -0.082 C 
ATOM     35  N   UNL     1      -6.817   6.939  13.889  0.00  0.00    +0.387 N 
ATOM     36  H   UNL     1      -5.859   7.192  14.368  0.00  0.00    -0.085 HD
ATOM     37  H   UNL     1      -7.107   7.747  13.201  0.00  0.00    -0.085 HD
ENDBRANCH  29  31
ENDBRANCH  23  26
ENDBRANCH  21  22
ENDBRANCH  20  21
ENDBRANCH   1  20
TORSDOF 12
