REMARK  Name = ZINC12544572
REMARK  12 active torsions:
REMARK  status: ('A' for Active; 'I' for Inactive)
REMARK    1  A    between atoms: C_1  and  C_2
REMARK    2  A    between atoms: C_2  and  N_3
REMARK    3  A    between atoms: C_7  and  S_28
REMARK    4  A    between atoms: C_11  and  C_12
REMARK    5  A    between atoms: C_12  and  C_13
REMARK    6  A    between atoms: C_13  and  C_14
REMARK    7  A    between atoms: N_16  and  C_17
REMARK    8  A    between atoms: C_22  and  C_27
REMARK    9  A    between atoms: C_24  and  C_26
REMARK   10  A    between atoms: S_28  and  N_31
REMARK   11  A    between atoms: N_31  and  C_32
REMARK   12  A    between atoms: N_31  and  C_33
REMARK                            x       y       z     vdW  Elec       q    Type
REMARK                         _______ _______ _______ _____ _____    ______ ____
ROOT
ATOM      1  N   UNL     1      -1.349   1.764   0.030  0.00  0.00    -0.328 N 
ATOM      2  C   UNL     1      -0.017   1.401   0.010  0.00  0.00    +0.069 A 
ATOM      3  C   UNL     1       1.178   2.108   0.002  0.00  0.00    +0.030 A 
ATOM      4  C   UNL     1       2.375   1.425  -0.014  0.00  0.00    +0.030 A 
ATOM      5  C   UNL     1       2.393   0.037  -0.022  0.00  0.00    +0.108 A 
ATOM      6  C   UNL     1       1.228  -0.675  -0.014  0.00  0.00    +0.058 A 
ATOM      7  C   UNL     1       0.002  -0.004   0.002  0.00  0.00    +0.091 A 
ATOM      8  N   UNL     1      -1.291  -0.417   0.013  0.00  0.00    -0.232 NA
ATOM      9  C   UNL     1      -2.081   0.617   0.026  0.00  0.00    +0.111 A 
ENDROOT
BRANCH   5  10
ATOM     10  S   UNL     1       3.936  -0.814  -0.042  0.00  0.00    +0.060 S 
ATOM     11  O   UNL     1       4.899   0.077   0.504  0.00  0.00    -0.153 OA
ATOM     12  O   UNL     1       3.695  -2.103   0.505  0.00  0.00    -0.153 OA
BRANCH  10  13
ATOM     13  N   UNL     1       4.349  -1.043  -1.629  0.00  0.00    -0.183 NA
ATOM     14  C   UNL     1       5.145  -0.033  -2.332  0.00  0.00    +0.131 C 
ATOM     15  C   UNL     1       3.918  -2.255  -2.330  0.00  0.00    +0.131 C 
ENDBRANCH  10  13
ENDBRANCH   5  10
BRANCH   1  17
ATOM     16  C   UNL     1      -2.080   3.614  -1.392  0.00  0.00    +0.027 C 
ATOM     17  C   UNL     1      -1.876   3.131   0.045  0.00  0.00    +0.120 C 
ENDBRANCH   1  17
BRANCH   9  18
ATOM     18  C   UNL     1      -3.586   0.554   0.041  0.00  0.00    +0.083 C 
BRANCH  18  19
ATOM     19  C   UNL     1      -4.081   0.525   1.489  0.00  0.00    +0.103 C 
BRANCH  19  20
ATOM     20  C   UNL     1      -5.587   0.462   1.504  0.00  0.00    +0.214 C 
ATOM     21  O   UNL     1      -6.203   0.442   0.459  0.00  0.00    -0.276 OA
ATOM     22  N   UNL     1      -6.248   0.428   2.678  0.00  0.00    -0.312 N 
ATOM     23  H   UNL     1      -5.755   0.444   3.513  0.00  0.00    +0.149 HD
BRANCH  22  24
ATOM     24  C   UNL     1      -7.712   0.367   2.692  0.00  0.00    +0.076 C 
ATOM     25  C   UNL     1      -8.162  -1.090   2.564  0.00  0.00    +0.022 C 
ATOM     26  C   UNL     1      -9.691  -1.154   2.579  0.00  0.00    +0.002 C 
ATOM     27  C   UNL     1     -10.213  -0.573   3.894  0.00  0.00    +0.003 C 
ATOM     28  C   UNL     1      -9.762   0.884   4.023  0.00  0.00    -0.009 C 
ATOM     29  C   UNL     1      -8.234   0.948   4.008  0.00  0.00    +0.009 C 
ATOM     30  C   UNL     1      -7.783   2.404   4.136  0.00  0.00    +0.009 C 
ATOM     31  C   UNL     1     -10.319   1.695   2.851  0.00  0.00    +0.008 C 
ENDBRANCH  22  24
ENDBRANCH  19  20
ENDBRANCH  18  19
ENDBRANCH   9  18
TORSDOF 7
