REMARK  Name = ZINC20235675
REMARK  13 active torsions:
REMARK  status: ('A' for Active; 'I' for Inactive)
REMARK    1  A    between atoms: C_1  and  C_2
REMARK    2  A    between atoms: C_2  and  O_3
REMARK    3  A    between atoms: O_3  and  C_4
REMARK    4  A    between atoms: C_9  and  N_10
REMARK    5  A    between atoms: N_10  and  C_11
REMARK    6  A    between atoms: N_10  and  S_25
REMARK    7  A    between atoms: C_11  and  C_12
REMARK    8  A    between atoms: N_14  and  C_15
REMARK    9  A    between atoms: C_15  and  C_16
REMARK   10  A    between atoms: C_16  and  S_17
REMARK   11  A    between atoms: S_17  and  C_18
REMARK   12  A    between atoms: S_25  and  C_28
REMARK   13  A    between atoms: C_31  and  C_34
REMARK                            x       y       z     vdW  Elec       q    Type
REMARK                         _______ _______ _______ _____ _____    ______ ____
ROOT
ATOM      1  N   UNL     1       6.398   9.342  -0.010  0.00  0.00    -0.191 N 
ENDROOT
BRANCH   1   7
ATOM      2  C   UNL     1       5.164  10.584   1.661  0.00  0.00    +0.143 A 
ATOM      3  C   UNL     1       5.135  11.275   2.860  0.00  0.00    +0.047 A 
ATOM      4  C   UNL     1       6.294  11.428   3.599  0.00  0.00    +0.004 A 
ATOM      5  C   UNL     1       7.484  10.890   3.144  0.00  0.00    +0.002 A 
ATOM      6  C   UNL     1       7.520  10.194   1.950  0.00  0.00    +0.028 A 
ATOM      7  C   UNL     1       6.363  10.042   1.201  0.00  0.00    +0.093 A 
BRANCH   2   8
ATOM      8  O   UNL     1       4.024  10.432   0.933  0.00  0.00    -0.490 OA
BRANCH   8  10
ATOM      9  C   UNL     1       1.664  10.742   0.517  0.00  0.00    +0.048 C 
ATOM     10  C   UNL     1       2.833  11.014   1.466  0.00  0.00    +0.226 C 
ENDBRANCH   8  10
ENDBRANCH   2   8
ENDBRANCH   1   7
BRANCH   1  11
ATOM     11  S   UNL     1       6.579  10.164  -1.437  0.00  0.00    +0.075 S 
ATOM     12  O   UNL     1       7.213  11.395  -1.118  0.00  0.00    -0.150 OA
ATOM     13  O   UNL     1       7.128   9.243  -2.369  0.00  0.00    -0.150 OA
BRANCH  11  14
ATOM     14  C   UNL     1       4.963  10.564  -2.016  0.00  0.00    +0.109 A 
ATOM     15  C   UNL     1       4.291   9.690  -2.849  0.00  0.00    +0.029 A 
ATOM     16  C   UNL     1       3.022  10.002  -3.299  0.00  0.00    +0.005 A 
ATOM     17  C   UNL     1       2.429  11.193  -2.925  0.00  0.00    -0.050 A 
ATOM     18  C   UNL     1       3.103  12.070  -2.096  0.00  0.00    +0.005 A 
ATOM     19  C   UNL     1       4.370  11.756  -1.642  0.00  0.00    +0.029 A 
ATOM     20  C   UNL     1       1.048  11.535  -3.420  0.00  0.00    +0.044 C 
ENDBRANCH  11  14
ENDBRANCH   1  11
BRANCH   1  21
ATOM     21  C   UNL     1       6.274   7.883  -0.016  0.00  0.00    +0.227 C 
BRANCH  21  22
ATOM     22  C   UNL     1       4.816   7.501  -0.005  0.00  0.00    +0.232 C 
ATOM     23  O   UNL     1       3.964   8.364   0.008  0.00  0.00    -0.274 OA
ATOM     24  N   UNL     1       4.459   6.202  -0.008  0.00  0.00    -0.313 N 
ATOM     25  H   UNL     1       5.232   5.419  -0.019  0.00  0.00    +0.149 HD
BRANCH  24  26
ATOM     26  C   UNL     1       3.042   5.831   0.004  0.00  0.00    +0.115 C 
BRANCH  26  27
ATOM     27  C   UNL     1       2.913   4.307  -0.003  0.00  0.00    +0.093 C 
BRANCH  27  28
ATOM     28  S   UNL     1       1.158   3.848   0.011  0.00  0.00    -0.124 S 
BRANCH  28  29
ATOM     29  C   UNL     1       1.178   2.086   0.002  0.00  0.00    +0.008 A 
ATOM     30  C   UNL     1      -0.017   1.377   0.010  0.00  0.00    +0.016 A 
ATOM     31  C   UNL     1       0.002  -0.004   0.002  0.00  0.00    +0.021 A 
ATOM     32  C   UNL     1       1.209  -0.681  -0.013  0.00  0.00    +0.041 A 
ATOM     33  C   UNL     1       2.401   0.023  -0.020  0.00  0.00    +0.021 A 
ATOM     34  C   UNL     1       2.388   1.404  -0.013  0.00  0.00    +0.016 A 
ATOM     35 CL   UNL     1       1.228  -2.417  -0.021  0.00  0.00    -0.084 Cl
ENDBRANCH  28  29
ENDBRANCH  27  28
ENDBRANCH  26  27
ENDBRANCH  24  26
ENDBRANCH  21  22
ENDBRANCH   1  21
TORSDOF 11
