REMARK  Name = ZINC59832574
REMARK  7 active torsions:
REMARK  status: ('A' for Active; 'I' for Inactive)
REMARK    1  A    between atoms: C_1  and  C_2
REMARK    2  A    between atoms: C_2  and  C_4
REMARK    3  A    between atoms: C_2  and  S_11
REMARK    4  A    between atoms: S_11  and  C_12
REMARK    5  A    between atoms: C_15  and  C_20
REMARK    6  A    between atoms: N_16  and  C_17
REMARK    7  A    between atoms: C_17  and  C_18
REMARK                            x       y       z     vdW  Elec       q    Type
REMARK                         _______ _______ _______ _____ _____    ______ ____
ROOT
ATOM      1  C   UNL     1      -2.335  -0.110   1.573  0.00  0.00    +0.193 A 
ATOM      2  N   UNL     1      -1.692   0.581   2.486  0.00  0.00    -0.122 NA
ATOM      3  N   UNL     1      -2.458   0.785   3.498  0.00  0.00    -0.129 NA
ATOM      4  C   UNL     1      -3.625   0.243   3.293  0.00  0.00    +0.179 A 
ATOM      5  N   UNL     1      -3.590  -0.342   2.057  0.00  0.00    -0.299 N 
ENDROOT
BRANCH   4   6
ATOM      6  C   UNL     1      -4.797   0.261   4.240  0.00  0.00    +0.278 C 
ATOM      7  C   UNL     1      -5.440   1.655   4.240  0.00  0.00    +0.281 C 
ATOM      8  O   UNL     1      -6.539   1.642   5.158  0.00  0.00    -0.484 OA
ATOM      9  C   UNL     1      -6.311   1.078   6.376  0.00  0.00    +0.162 A 
ATOM     10  C   UNL     1      -7.181   1.344   7.423  0.00  0.00    +0.049 A 
ATOM     11  C   UNL     1      -6.966   0.776   8.664  0.00  0.00    +0.004 A 
ATOM     12  C   UNL     1      -5.883  -0.059   8.866  0.00  0.00    +0.004 A 
ATOM     13  C   UNL     1      -5.011  -0.327   7.827  0.00  0.00    +0.049 A 
ATOM     14  C   UNL     1      -5.221   0.240   6.580  0.00  0.00    +0.163 A 
ATOM     15  O   UNL     1      -4.349  -0.028   5.569  0.00  0.00    -0.474 OA
ENDBRANCH   4   6
BRANCH   1  16
ATOM     16  S   UNL     1      -1.700  -0.632   0.015  0.00  0.00    -0.078 S 
BRANCH  16  18
ATOM     17  C   UNL     1      -0.019   1.526   0.010  0.00  0.00    +0.024 C 
ATOM     18  C   UNL     1       0.002  -0.004   0.002  0.00  0.00    +0.081 C 
BRANCH  18  19
ATOM     19  C   UNL     1       0.707  -0.490  -1.238  0.00  0.00    -0.032 A 
ATOM     20  C   UNL     1       0.222  -0.151  -2.487  0.00  0.00    +0.005 A 
ATOM     21  C   UNL     1       0.868  -0.596  -3.625  0.00  0.00    +0.003 A 
ATOM     22  C   UNL     1       2.000  -1.381  -3.516  0.00  0.00    +0.038 A 
ATOM     23  C   UNL     1       2.487  -1.721  -2.265  0.00  0.00    +0.124 A 
ATOM     24  C   UNL     1       1.843  -1.270  -1.126  0.00  0.00    +0.043 A 
ATOM     25  F   UNL     1       3.594  -2.489  -2.157  0.00  0.00    -0.205 F 
ENDBRANCH  18  19
ENDBRANCH  16  18
ENDBRANCH   1  16
BRANCH   5  26
ATOM     26  C   UNL     1      -4.674  -1.070   1.392  0.00  0.00    +0.152 C 
BRANCH  26  27
ATOM     27  C   UNL     1      -4.595  -2.530   1.755  0.00  0.00    -0.013 C 
ATOM     28  C   UNL     1      -5.634  -3.133   2.276  0.00  0.00    +0.005 C 
ENDBRANCH  26  27
ENDBRANCH   5  26
TORSDOF 6
