REMARK  Name = ZINC66554081
REMARK  6 active torsions:
REMARK  status: ('A' for Active; 'I' for Inactive)
REMARK    1  A    between atoms: C_1  and  C_2
REMARK    2  A    between atoms: C_3  and  C_13
REMARK    3  A    between atoms: C_5  and  C_7
REMARK    4  A    between atoms: C_13  and  N_14
REMARK    5  A    between atoms: C_15  and  C_17
REMARK    6  A    between atoms: C_19  and  N_24
REMARK                            x       y       z     vdW  Elec       q    Type
REMARK                         _______ _______ _______ _____ _____    ______ ____
ROOT
ATOM      1  N   UNL     1       1.367   0.042  -3.054  0.00  0.00    -0.307 N 
ATOM      2  C   UNL     1       1.600   0.510  -4.296  0.00  0.00    +0.246 C 
ATOM      3  O   UNL     1       0.668   0.775  -5.030  0.00  0.00    -0.270 OA
ATOM      4  H   UNL     1       2.110  -0.170  -2.468  0.00  0.00    +0.149 HD
ENDROOT
BRANCH   2   5
ATOM      5  C   UNL     1       2.988   0.703  -4.764  0.00  0.00    +0.057 A 
ATOM      6  C   UNL     1       4.061   0.394  -3.925  0.00  0.00    +0.047 A 
ATOM      7  C   UNL     1       5.354   0.576  -4.369  0.00  0.00    +0.127 A 
ATOM      8  C   UNL     1       5.591   1.063  -5.643  0.00  0.00    +0.034 A 
ATOM      9  C   UNL     1       4.534   1.371  -6.479  0.00  0.00    +0.023 A 
ATOM     10  C   UNL     1       3.233   1.189  -6.051  0.00  0.00    +0.053 A 
ATOM     11 CL   UNL     1       1.908   1.569  -7.105  0.00  0.00    -0.083 Cl
BRANCH   7  12
ATOM     12  N   UNL     1       6.491   0.249  -3.480  0.00  0.00    +0.056 N 
ATOM     13  O   UNL     1       6.286  -0.176  -2.367  0.00  0.00    -0.126 OA
ATOM     14  O   UNL     1       7.626   0.407  -3.867  0.00  0.00    -0.126 OA
ENDBRANCH   7  12
ENDBRANCH   2   5
BRANCH   1  15
ATOM     15  C   UNL     1      -0.010  -0.149  -2.589  0.00  0.00    +0.149 C 
BRANCH  15  18
ATOM     16  C   UNL     1      -0.018   1.503   0.010  0.00  0.00    +0.066 C 
ATOM     17  C   UNL     1       0.002  -0.004   0.002  0.00  0.00    +0.051 A 
ATOM     18  C   UNL     1       0.005  -0.679  -1.179  0.00  0.00    +0.030 A 
ATOM     19  S   UNL     1       0.031  -2.368  -0.593  0.00  0.00    -0.070 S 
ATOM     20  C   UNL     1       0.035  -1.993   1.155  0.00  0.00    +0.109 A 
ATOM     21  N   UNL     1       0.022  -0.667   1.134  0.00  0.00    -0.244 NA
BRANCH  20  22
ATOM     22  C   UNL     1       0.053  -2.913   2.313  0.00  0.00    +0.007 A 
ATOM     23  C   UNL     1       0.076  -4.293   2.110  0.00  0.00    +0.010 A 
ATOM     24  C   UNL     1       0.092  -5.146   3.194  0.00  0.00    +0.001 A 
ATOM     25  C   UNL     1       0.086  -4.636   4.480  0.00  0.00    +0.000 A 
ATOM     26  C   UNL     1       0.063  -3.268   4.688  0.00  0.00    +0.001 A 
ATOM     27  C   UNL     1       0.053  -2.404   3.612  0.00  0.00    +0.010 A 
ENDBRANCH  20  22
ENDBRANCH  15  18
ENDBRANCH   1  15
TORSDOF 5
