REMARK  Name = ZINC18954754
REMARK  10 active torsions:
REMARK  status: ('A' for Active; 'I' for Inactive)
REMARK    1  A    between atoms: C_1  and  C_2
REMARK    2  A    between atoms: C_2  and  C_3
REMARK    3  A    between atoms: C_3  and  C_4
REMARK    4  A    between atoms: C_4  and  N_5
REMARK    5  A    between atoms: C_6  and  N_33
REMARK    6  A    between atoms: C_7  and  N_14
REMARK    7  A    between atoms: N_14  and  C_15
REMARK    8  A    between atoms: C_15  and  C_16
REMARK    9  A    between atoms: C_17  and  C_19
REMARK   10  A    between atoms: C_19  and  N_20
REMARK                            x       y       z     vdW  Elec       q    Type
REMARK                         _______ _______ _______ _____ _____    ______ ____
ROOT
ATOM      1  N   UNL     1      -0.680   1.568   1.123  0.00  0.00    -0.263 N 
ATOM      2  C   UNL     1      -1.508   0.798   1.861  0.00  0.00    +0.238 C 
ATOM      3  O   UNL     1      -1.859   1.168   2.962  0.00  0.00    -0.274 OA
ENDROOT
BRANCH   1   6
ATOM      4  N   UNL     1      -0.401   4.943   2.548  0.00  0.00    -0.280 N 
ATOM      5  C   UNL     1      -0.958   3.807   2.010  0.00  0.00    +0.127 A 
ATOM      6  C   UNL     1      -0.138   2.749   1.672  0.00  0.00    +0.140 A 
ATOM      7  C   UNL     1       1.248   2.871   1.880  0.00  0.00    +0.277 A 
ATOM      8  O   UNL     1       1.996   1.954   1.586  0.00  0.00    -0.266 OA
ATOM      9  N   UNL     1       1.744   4.009   2.405  0.00  0.00    -0.273 N 
ATOM     10  H   UNL     1       2.729   4.096   2.553  0.00  0.00    +0.173 HD
ATOM     11  C   UNL     1       0.929   5.027   2.733  0.00  0.00    +0.331 A 
ATOM     12  O   UNL     1       1.403   6.042   3.207  0.00  0.00    -0.246 OA
BRANCH   5  13
ATOM     13  N   UNL     1      -2.316   3.723   1.815  0.00  0.00    -0.343 N 
ATOM     14  H   UNL     1      -2.699   2.934   1.401  0.00  0.00    +0.144 HD
ATOM     15  H   UNL     1      -2.891   4.453   2.092  0.00  0.00    +0.144 HD
ENDBRANCH   5  13
BRANCH   4  16
ATOM     16  C   UNL     1      -1.260   6.071   2.916  0.00  0.00    +0.128 C 
BRANCH  16  17
ATOM     17  C   UNL     1      -1.409   7.011   1.718  0.00  0.00    +0.021 C 
BRANCH  17  19
ATOM     18  C   UNL     1      -2.454   9.129   0.904  0.00  0.00    +0.004 C 
ATOM     19  C   UNL     1      -2.306   8.189   2.102  0.00  0.00    -0.002 C 
ENDBRANCH  17  19
ENDBRANCH  16  17
ENDBRANCH   4  16
ENDBRANCH   1   6
BRANCH   1  20
ATOM     20  C   UNL     1      -0.345   1.177  -0.248  0.00  0.00    +0.110 C 
ATOM     21  C   UNL     1      -1.378   1.764  -1.213  0.00  0.00    +0.025 C 
ENDBRANCH   1  20
BRANCH   2  22
ATOM     22  C   UNL     1      -1.995  -0.520   1.318  0.00  0.00    +0.213 C 
BRANCH  22  23
ATOM     23  N   UNL     1      -2.872  -1.159   2.302  0.00  0.00    -0.225 N 
ATOM     24  C   UNL     1      -2.453  -2.005   3.260  0.00  0.00    +0.254 C 
ATOM     25  O   UNL     1      -1.304  -2.354   3.445  0.00  0.00    -0.270 OA
ATOM     26  C   UNL     1      -3.623  -2.435   4.053  0.00  0.00    +0.051 A 
ATOM     27  C   UNL     1      -3.798  -3.277   5.140  0.00  0.00    +0.035 A 
ATOM     28  C   UNL     1      -5.070  -3.476   5.657  0.00  0.00    +0.060 A 
ATOM     29  C   UNL     1      -6.164  -2.840   5.095  0.00  0.00    +0.060 A 
ATOM     30  C   UNL     1      -6.002  -1.996   4.006  0.00  0.00    +0.035 A 
ATOM     31  C   UNL     1      -4.737  -1.788   3.480  0.00  0.00    +0.051 A 
ATOM     32  C   UNL     1      -4.204  -0.982   2.362  0.00  0.00    +0.254 C 
ATOM     33  O   UNL     1      -4.860  -0.278   1.621  0.00  0.00    -0.270 OA
ATOM     34 CL   UNL     1      -7.747  -3.102   5.755  0.00  0.00    -0.082 Cl
ATOM     35 CL   UNL     1      -5.291  -4.531   7.019  0.00  0.00    -0.082 Cl
ENDBRANCH  22  23
ENDBRANCH   2  22
TORSDOF 8
