REMARK  Name = ZINC11762991
REMARK  7 active torsions:
REMARK  status: ('A' for Active; 'I' for Inactive)
REMARK    1  A    between atoms: C_1  and  C_2
REMARK    2  A    between atoms: C_5  and  C_8
REMARK    3  A    between atoms: C_8  and  C_34
REMARK    4  A    between atoms: N_11  and  C_15
REMARK    5  A    between atoms: C_15  and  C_16
REMARK    6  A    between atoms: C_27  and  C_28
REMARK    7  A    between atoms: C_27  and  N_62
REMARK                            x       y       z     vdW  Elec       q    Type
REMARK                         _______ _______ _______ _____ _____    ______ ____
ROOT
ATOM      1  C   UNL     1       3.767   3.166  -0.018  0.00  0.00    +0.237 C 
ATOM      2  O   UNL     1       4.353   2.103  -0.028  0.00  0.00    -0.274 OA
ATOM      3  N   UNL     1       2.420   3.192  -0.005  0.00  0.00    -0.263 N 
ATOM      4  C   UNL     1       1.701   2.002  -0.003  0.00  0.00    +0.165 A 
ATOM      5  N   UNL     1       2.150   0.763  -0.014  0.00  0.00    -0.229 NA
ATOM      6  C   UNL     1       1.333  -0.284  -0.012  0.00  0.00    +0.050 A 
ATOM      7  C   UNL     1       0.002  -0.004   0.002  0.00  0.00    -0.002 A 
ATOM      8  S   UNL     1      -0.022   1.766   0.012  0.00  0.00    -0.059 S 
ATOM      9  C   UNL     1      -1.123  -0.981   0.005  0.00  0.00    -0.033 C 
ATOM     10  C   UNL     1       0.618  -2.611   0.432  0.00  0.00    -0.072 C 
ATOM     11  C   UNL     1       1.791  -1.738  -0.022  0.00  0.00    +0.038 C 
ATOM     12  H   UNL     1       1.951   4.042   0.004  0.00  0.00    +0.157 HD
ATOM     13  N   UNL     1      -0.574  -2.304  -0.385  0.00  0.00    +0.386 N 
ATOM     14  H   UNL     1      -0.303  -2.274  -1.375  0.00  0.00    -0.081 HD
ENDROOT
BRANCH   1  15
ATOM     15  C   UNL     1       4.546   4.455  -0.019  0.00  0.00    +0.214 C 
BRANCH  15  19
ATOM     16  C   UNL     1       8.124   3.720  -0.690  0.00  0.00    +0.135 C 
ATOM     17  C   UNL     1       6.712   4.011  -1.157  0.00  0.00    +0.251 C 
ATOM     18  O   UNL     1       6.321   4.094  -2.301  0.00  0.00    -0.272 OA
ATOM     19  N   UNL     1       5.981   4.159  -0.034  0.00  0.00    -0.215 N 
ATOM     20  C   UNL     1       6.729   4.008   1.065  0.00  0.00    +0.310 C 
ATOM     21  O   UNL     1       6.293   4.100   2.196  0.00  0.00    -0.252 OA
ATOM     22  N   UNL     1       8.015   3.739   0.779  0.00  0.00    -0.281 N 
ATOM     23  C   UNL     1       8.580   2.344  -1.182  0.00  0.00    +0.047 C 
ATOM     24  H   UNL     1       8.732   3.590   1.415  0.00  0.00    +0.152 HD
BRANCH  16  29
ATOM     25  C   UNL     1      11.757   7.827  -2.513  0.00  0.00    +0.044 C 
ATOM     26  C   UNL     1      10.810   6.756  -2.038  0.00  0.00    -0.050 A 
ATOM     27  C   UNL     1      11.061   6.086  -0.855  0.00  0.00    +0.004 A 
ATOM     28  C   UNL     1      10.192   5.104  -0.419  0.00  0.00    +0.006 A 
ATOM     29  C   UNL     1       9.072   4.791  -1.166  0.00  0.00    -0.015 A 
ATOM     30  C   UNL     1       8.823   5.457  -2.351  0.00  0.00    +0.006 A 
ATOM     31  C   UNL     1       9.689   6.443  -2.785  0.00  0.00    +0.004 A 
ENDBRANCH  16  29
ENDBRANCH  15  19
ENDBRANCH   1  15
BRANCH  13  32
ATOM     32  C   UNL     1      -1.600  -3.352  -0.199  0.00  0.00    -0.043 C 
BRANCH  32  33
ATOM     33  C   UNL     1      -2.710  -3.131  -1.194  0.00  0.00    -0.064 A 
ATOM     34  C   UNL     1      -3.799  -2.351  -0.854  0.00  0.00    +0.002 A 
ATOM     35  C   UNL     1      -4.814  -2.144  -1.769  0.00  0.00    +0.000 A 
ATOM     36  C   UNL     1      -4.746  -2.727  -3.021  0.00  0.00    +0.000 A 
ATOM     37  C   UNL     1      -3.659  -3.511  -3.359  0.00  0.00    +0.000 A 
ATOM     38  C   UNL     1      -2.641  -3.714  -2.446  0.00  0.00    +0.002 A 
ENDBRANCH  32  33
ENDBRANCH  13  32
TORSDOF 5
