REMARK  Name = ZINC04390526
REMARK  9 active torsions:
REMARK  status: ('A' for Active; 'I' for Inactive)
REMARK    1  A    between atoms: C_1  and  C_2
REMARK    2  A    between atoms: C_2  and  C_3
REMARK    3  A    between atoms: C_2  and  C_4
REMARK    4  A    between atoms: C_2  and  S_5
REMARK    5  A    between atoms: S_5  and  C_6
REMARK    6  A    between atoms: C_6  and  C_7
REMARK    7  A    between atoms: C_7  and  C_8
REMARK    8  A    between atoms: N_13  and  C_16
REMARK    9  A    between atoms: C_19  and  C_21
REMARK                            x       y       z     vdW  Elec       q    Type
REMARK                         _______ _______ _______ _____ _____    ______ ____
ROOT
ATOM      1  C   UNL     1      -0.874   0.450   2.001  0.00  0.00    +0.216 C 
ATOM      2  O   UNL     1      -0.403  -0.656   1.839  0.00  0.00    -0.276 OA
ATOM      3  N   UNL     1      -0.615   1.429   1.110  0.00  0.00    -0.298 N 
ATOM      4  C   UNL     1       0.235   1.176  -0.063  0.00  0.00    +0.126 C 
ATOM      5  C   UNL     1      -0.505   1.656  -1.317  0.00  0.00    +0.125 C 
ATOM      6  N   UNL     1      -0.913   3.056  -1.135  0.00  0.00    -0.313 N 
ATOM      7  C   UNL     1      -1.863   3.193  -0.024  0.00  0.00    +0.125 C 
ATOM      8  C   UNL     1      -1.180   2.777   1.283  0.00  0.00    +0.126 C 
ENDROOT
BRANCH   6   9
ATOM      9  C   UNL     1      -1.442   3.577  -2.311  0.00  0.00    +0.118 A 
ATOM     10  C   UNL     1      -1.198   4.906  -2.648  0.00  0.00    +0.079 A 
ATOM     11  C   UNL     1      -1.726   5.409  -3.824  0.00  0.00    +0.037 A 
ATOM     12  C   UNL     1      -2.492   4.568  -4.620  0.00  0.00    +0.072 A 
ATOM     13  C   UNL     1      -2.699   3.263  -4.221  0.00  0.00    +0.096 A 
ATOM     14 CL   UNL     1      -0.239   5.915  -1.611  0.00  0.00    -0.080 Cl
ATOM     15  N   UNL     1      -2.191   2.732  -3.076  0.00  0.00    -0.348 N 
ATOM     16  H   UNL     1      -2.361   1.756  -2.805  0.00  0.00    +0.167 HD
BRANCH  12  17
ATOM     17  C   UNL     1      -3.092   5.074  -5.906  0.00  0.00    +0.419 C 
ATOM     18  F   UNL     1      -3.813   4.046  -6.521  0.00  0.00    -0.166 F 
ATOM     19  F   UNL     1      -3.950   6.145  -5.630  0.00  0.00    -0.166 F 
ATOM     20  F   UNL     1      -2.071   5.503  -6.760  0.00  0.00    -0.166 F 
ENDBRANCH  12  17
ENDBRANCH   6   9
BRANCH   1  21
ATOM     21  C   UNL     1      -1.747   0.731   3.196  0.00  0.00    +0.106 C 
BRANCH  21  22
ATOM     22  C   UNL     1      -1.880  -0.538   4.040  0.00  0.00    +0.079 C 
BRANCH  22  23
ATOM     23  S   UNL     1      -2.931  -0.201   5.479  0.00  0.00    -0.154 S 
BRANCH  23  25
ATOM     24  C   UNL     1      -1.568  -2.191   6.769  0.00  0.00    +0.022 C 
ATOM     25  C   UNL     1      -2.986  -1.783   6.364  0.00  0.00    +0.008 C 
ATOM     26  C   UNL     1      -3.853  -1.638   7.616  0.00  0.00    +0.022 C 
ATOM     27  C   UNL     1      -3.584  -2.857   5.452  0.00  0.00    +0.022 C 
ENDBRANCH  23  25
ENDBRANCH  22  23
ENDBRANCH  21  22
ENDBRANCH   1  21
TORSDOF 6
