REMARK  Name = ZINC12528726
REMARK  7 active torsions:
REMARK  status: ('A' for Active; 'I' for Inactive)
REMARK    1  A    between atoms: C_3  and  C_6
REMARK    2  A    between atoms: C_7  and  C_17
REMARK    3  A    between atoms: N_18  and  N_19
REMARK    4  A    between atoms: N_19  and  C_20
REMARK    5  A    between atoms: C_23  and  S_29
REMARK    6  A    between atoms: C_25  and  N_26
REMARK    7  A    between atoms: S_29  and  N_32
REMARK                            x       y       z     vdW  Elec       q    Type
REMARK                         _______ _______ _______ _____ _____    ______ ____
ROOT
ATOM      1  C   UNL     1      -1.093   2.362   0.013  0.00  0.00    +0.147 C 
ATOM      2  N   UNL     1      -0.888   3.671   0.070  0.00  0.00    -0.189 NA
ENDROOT
BRANCH   1   4
ATOM      3  C   UNL     1      -0.008  -0.006   0.141  0.00  0.00    +0.095 A 
ATOM      4  C   UNL     1      -0.030   1.486   0.166  0.00  0.00    +0.061 A 
ATOM      5  S   UNL     1       1.705   1.826   0.441  0.00  0.00    -0.051 S 
ATOM      6  C   UNL     1       2.272   0.134   0.497  0.00  0.00    +0.162 A 
ATOM      7  N   UNL     1       1.161  -0.569   0.311  0.00  0.00    -0.224 NA
ATOM      8  N   UNL     1       3.541  -0.326   0.685  0.00  0.00    -0.310 N 
ATOM      9  C   UNL     1       3.602  -1.250   1.825  0.00  0.00    +0.107 C 
ATOM     10  C   UNL     1       5.004  -1.857   1.916  0.00  0.00    +0.019 C 
ATOM     11  C   UNL     1       6.030  -0.734   2.090  0.00  0.00    +0.003 C 
ATOM     12  C   UNL     1       5.913   0.240   0.914  0.00  0.00    +0.019 C 
ATOM     13  C   UNL     1       4.484   0.786   0.852  0.00  0.00    +0.107 C 
BRANCH   3  16
ATOM     14  C   UNL     1      -2.596  -2.506  -0.774  0.00  0.00    +0.008 A 
ATOM     15  C   UNL     1      -1.339  -1.981  -0.735  0.00  0.00    +0.018 A 
ATOM     16  C   UNL     1      -1.178  -0.764  -0.054  0.00  0.00    +0.039 A 
ATOM     17  S   UNL     1      -2.839  -0.431   0.507  0.00  0.00    -0.095 S 
ATOM     18  C   UNL     1      -3.625  -1.827  -0.154  0.00  0.00    +0.046 A 
ENDBRANCH   3  16
ENDBRANCH   1   4
BRANCH   2  19
ATOM     19  N   UNL     1      -1.878   4.486  -0.072  0.00  0.00    -0.236 N 
ATOM     20  H   UNL     1      -2.772   4.142  -0.221  0.00  0.00    +0.174 HD
BRANCH  19  21
ATOM     21  C   UNL     1      -1.663   5.856  -0.012  0.00  0.00    +0.079 A 
ATOM     22  C   UNL     1      -0.367   6.357   0.090  0.00  0.00    +0.029 A 
ATOM     23  C   UNL     1      -0.158   7.719   0.149  0.00  0.00    +0.030 A 
ATOM     24  C   UNL     1      -1.234   8.589   0.107  0.00  0.00    +0.107 A 
ATOM     25  C   UNL     1      -2.523   8.097   0.006  0.00  0.00    +0.063 A 
ATOM     26  C   UNL     1      -2.742   6.735  -0.059  0.00  0.00    +0.150 A 
BRANCH  26  27
ATOM     27  N   UNL     1      -4.121   6.210  -0.172  0.00  0.00    +0.058 N 
ATOM     28  O   UNL     1      -5.009   6.847  -0.908  0.00  0.00    -0.126 OA
ATOM     29  O   UNL     1      -4.460   5.107   0.462  0.00  0.00    -0.126 OA
ENDBRANCH  26  27
BRANCH  24  30
ATOM     30  S   UNL     1      -0.962  10.328   0.183  0.00  0.00    +0.056 S 
ATOM     31  O   UNL     1      -2.162  10.906   0.675  0.00  0.00    -0.153 OA
ATOM     32  O   UNL     1       0.293  10.514   0.824  0.00  0.00    -0.153 OA
BRANCH  30  33
ATOM     33  N   UNL     1      -0.782  10.863  -1.374  0.00  0.00    -0.204 NA
ATOM     34  H   UNL     1      -0.837  10.236  -2.112  0.00  0.00    +0.144 HD
ATOM     35  H   UNL     1      -0.621  11.804  -1.548  0.00  0.00    +0.144 HD
ENDBRANCH  30  33
ENDBRANCH  24  30
ENDBRANCH  19  21
ENDBRANCH   2  19
TORSDOF 7
