REMARK  Name = ZINC05516253
REMARK  3 active torsions:
REMARK  status: ('A' for Active; 'I' for Inactive)
REMARK    1  A    between atoms: C_1  and  C_2
REMARK    2  A    between atoms: C_5  and  C_8
REMARK    3  A    between atoms: C_25  and  C_27
REMARK                            x       y       z     vdW  Elec       q    Type
REMARK                         _______ _______ _______ _____ _____    ______ ____
ROOT
ATOM      1  C   UNL     1       0.016  -4.237   0.052  0.00  0.00    +0.234 C 
ATOM      2  C   UNL     1      -1.369  -4.779   0.249  0.00  0.00    +0.027 C 
ATOM      3  C   UNL     1      -1.839  -5.030   1.488  0.00  0.00    +0.083 C 
ATOM      4  C   UNL     1      -0.931  -4.761   2.632  0.00  0.00    +0.042 A 
ATOM      5  C   UNL     1      -1.409  -4.672   3.932  0.00  0.00    +0.013 A 
ATOM      6  C   UNL     1      -0.529  -4.419   4.966  0.00  0.00    +0.001 A 
ATOM      7  C   UNL     1       0.821  -4.254   4.708  0.00  0.00    +0.004 A 
ATOM      8  C   UNL     1       1.305  -4.342   3.416  0.00  0.00    +0.046 A 
ATOM      9  C   UNL     1       0.435  -4.597   2.370  0.00  0.00    +0.131 A 
ATOM     10  O   UNL     1       0.879  -4.692   1.096  0.00  0.00    -0.479 OA
ATOM     11  N   UNL     1      -3.091  -5.512   1.687  0.00  0.00    -0.213 NA
ATOM     12  C   UNL     1      -3.942  -5.782   0.725  0.00  0.00    +0.237 C 
ATOM     13  N   UNL     1      -5.205  -6.261   0.746  0.00  0.00    -0.205 NA
ATOM     14  C   UNL     1      -5.669  -6.373  -0.468  0.00  0.00    +0.203 C 
ATOM     15  N   UNL     1      -4.720  -5.966  -1.356  0.00  0.00    -0.251 N 
ATOM     16  N   UNL     1      -3.609  -5.584  -0.601  0.00  0.00    -0.208 N 
ATOM     17  C   UNL     1      -2.278  -5.059  -0.928  0.00  0.00    +0.160 C 
ATOM     18  H   UNL     1      -4.799  -5.947  -2.323  0.00  0.00    +0.171 HD
ENDROOT
BRANCH   1  23
ATOM     19  C   UNL     1      -0.168   1.538   0.103  0.00  0.00    +0.044 C 
ATOM     20  C   UNL     1      -0.120   0.032   0.090  0.00  0.00    -0.050 A 
ATOM     21  C   UNL     1       0.095  -0.642  -1.098  0.00  0.00    +0.004 A 
ATOM     22  C   UNL     1       0.139  -2.023  -1.110  0.00  0.00    +0.008 A 
ATOM     23  C   UNL     1      -0.031  -2.731   0.065  0.00  0.00    -0.003 A 
ATOM     24  C   UNL     1      -0.245  -2.057   1.253  0.00  0.00    +0.008 A 
ATOM     25  C   UNL     1      -0.284  -0.675   1.266  0.00  0.00    +0.004 A 
ENDBRANCH   1  23
BRANCH  17  26
ATOM     26  C   UNL     1      -2.455  -3.777  -1.700  0.00  0.00    -0.003 A 
ATOM     27  C   UNL     1      -1.840  -3.609  -2.932  0.00  0.00    +0.009 A 
ATOM     28  C   UNL     1      -2.031  -2.413  -3.607  0.00  0.00    +0.020 A 
ATOM     29  C   UNL     1      -2.822  -1.435  -3.034  0.00  0.00    +0.111 A 
ATOM     30  N   UNL     1      -3.391  -1.629  -1.861  0.00  0.00    -0.263 NA
ATOM     31  C   UNL     1      -3.237  -2.756  -1.193  0.00  0.00    +0.116 A 
ENDBRANCH  17  26
TORSDOF 2
