REMARK  Name = ZINC19644282
REMARK  6 active torsions:
REMARK  status: ('A' for Active; 'I' for Inactive)
REMARK    1  A    between atoms: C_1  and  C_2
REMARK    2  A    between atoms: C_3  and  C_21
REMARK    3  A    between atoms: C_4  and  C_14
REMARK    4  A    between atoms: C_21  and  O_23
REMARK    5  A    between atoms: O_23  and  C_24
REMARK    6  A    between atoms: C_24  and  C_25
REMARK                            x       y       z     vdW  Elec       q    Type
REMARK                         _______ _______ _______ _____ _____    ______ ____
ROOT
ATOM      1  C   UNL     1       1.051  -3.812   3.057  0.00  0.00    +0.061 C 
ATOM      2  C   UNL     1       1.268  -2.369   2.678  0.00  0.00    +0.016 C 
ATOM      3  C   UNL     1       2.271  -1.675   3.242  0.00  0.00    +0.065 C 
ATOM      4  C   UNL     1       2.513  -0.235   2.896  0.00  0.00    +0.092 C 
ATOM      5  C   UNL     1       1.820   0.136   1.609  0.00  0.00    +0.024 C 
ATOM      6  C   UNL     1       0.831  -0.637   1.111  0.00  0.00    +0.015 C 
ATOM      7  N   UNL     1       0.443  -1.776   1.764  0.00  0.00    -0.321 N 
ATOM      8  C   UNL     1       0.131  -0.270  -0.174  0.00  0.00    +0.051 C 
ATOM      9  C   UNL     1       0.116   1.252  -0.335  0.00  0.00    +0.014 C 
ATOM     10  C   UNL     1       1.564   1.755  -0.326  0.00  0.00    +0.080 C 
ATOM     11  C   UNL     1       2.228   1.307   0.947  0.00  0.00    +0.162 C 
ATOM     12  O   UNL     1       3.135   1.969   1.412  0.00  0.00    -0.292 OA
ATOM     13  H   UNL     1      -0.542  -2.214   1.547  0.00  0.00    +0.152 HD
ENDROOT
BRANCH   4  14
ATOM     14  C   UNL     1       1.988   0.636   4.009  0.00  0.00    -0.034 A 
ATOM     15  C   UNL     1       0.643   0.617   4.326  0.00  0.00    +0.004 A 
ATOM     16  C   UNL     1       0.163   1.412   5.350  0.00  0.00    +0.001 A 
ATOM     17  C   UNL     1       1.026   2.234   6.050  0.00  0.00    +0.015 A 
ATOM     18  C   UNL     1       2.371   2.257   5.730  0.00  0.00    +0.018 A 
ATOM     19  C   UNL     1       2.852   1.457   4.708  0.00  0.00    +0.019 A 
ATOM     20 BR   UNL     1       3.552   3.381   6.687  0.00  0.00    -0.050 Br
ENDBRANCH   4  14
BRANCH   3  21
ATOM     21  C   UNL     1       3.115  -2.313   4.181  0.00  0.00    +0.338 C 
ATOM     22  O   UNL     1       4.246  -2.632   3.864  0.00  0.00    -0.245 OA
BRANCH  21  23
ATOM     23  O   UNL     1       2.667  -2.570   5.427  0.00  0.00    -0.459 OA
BRANCH  23  24
ATOM     24  C   UNL     1       3.573  -3.217   6.323  0.00  0.00    +0.264 C 
BRANCH  24  25
ATOM     25  C   UNL     1       2.892  -3.423   7.677  0.00  0.00    +0.156 C 
ATOM     26  C   UNL     1       3.817  -4.224   8.613  0.00  0.00    +0.037 C 
ATOM     27  C   UNL     1       4.020  -3.294   9.834  0.00  0.00    +0.031 C 
ATOM     28  C   UNL     1       2.801  -2.344   9.724  0.00  0.00    +0.160 C 
ATOM     29  O   UNL     1       2.648  -2.150   8.300  0.00  0.00    -0.373 OA
ENDBRANCH  24  25
ENDBRANCH  23  24
ENDBRANCH  21  23
ENDBRANCH   3  21
TORSDOF 5
