REMARK  Name = ZINC00866862
REMARK  7 active torsions:
REMARK  status: ('A' for Active; 'I' for Inactive)
REMARK    1  A    between atoms: C_1  and  C_2
REMARK    2  A    between atoms: C_2  and  C_3
REMARK    3  A    between atoms: C_2  and  C_4
REMARK    4  A    between atoms: C_4  and  N_5
REMARK    5  A    between atoms: C_6  and  C_8
REMARK    6  A    between atoms: C_13  and  C_24
REMARK    7  A    between atoms: C_16  and  C_19
REMARK                            x       y       z     vdW  Elec       q    Type
REMARK                         _______ _______ _______ _____ _____    ______ ____
ROOT
ATOM      1  C   UNL     1      -2.558  -4.153  -0.259  0.00  0.00    +0.167 A 
ATOM      2  C   UNL     1      -3.692  -4.995  -0.293  0.00  0.00    +0.112 A 
ATOM      3  C   UNL     1      -3.253  -6.264  -0.419  0.00  0.00    +0.137 A 
ATOM      4  N   UNL     1      -1.887  -6.239  -0.466  0.00  0.00    -0.237 N 
ATOM      5  N   UNL     1      -1.479  -4.909  -0.369  0.00  0.00    -0.163 NA
ATOM      6  C   UNL     1      -1.057  -7.439  -0.605  0.00  0.00    +0.215 C 
ATOM      7  C   UNL     1      -1.919  -8.578  -1.159  0.00  0.00    +0.066 C 
ATOM      8  C   UNL     1      -3.210  -8.701  -0.341  0.00  0.00    +0.140 C 
ATOM      9  N   UNL     1      -3.984  -7.454  -0.494  0.00  0.00    -0.318 N 
ATOM     10 CL   UNL     1      -5.349  -4.489  -0.191  0.00  0.00    -0.078 Cl
ATOM     11  H   UNL     1      -4.943  -7.460  -0.639  0.00  0.00    +0.148 HD
ENDROOT
BRANCH   8  12
ATOM     12  C   UNL     1      -2.870  -8.915   1.111  0.00  0.00    +0.125 A 
ATOM     13  C   UNL     1      -2.869 -10.097   1.754  0.00  0.00    +0.046 A 
ATOM     14  C   UNL     1      -2.493  -9.836   3.091  0.00  0.00    +0.041 A 
ATOM     15  C   UNL     1      -2.286  -8.511   3.187  0.00  0.00    +0.195 A 
ATOM     16  O   UNL     1      -2.510  -7.959   1.983  0.00  0.00    -0.466 OA
ENDBRANCH   8  12
BRANCH   1  18
ATOM     17  N   UNL     1      -1.416  -1.993  -0.116  0.00  0.00    -0.310 N 
ATOM     18  C   UNL     1      -2.575  -2.682  -0.130  0.00  0.00    +0.266 C 
ATOM     19  O   UNL     1      -3.634  -2.092  -0.036  0.00  0.00    -0.268 OA
ATOM     20  H   UNL     1      -0.572  -2.463  -0.190  0.00  0.00    +0.149 HD
BRANCH  17  21
ATOM     21  C   UNL     1      -1.433  -0.534   0.013  0.00  0.00    +0.107 C 
BRANCH  21  23
ATOM     22  C   UNL     1      -0.019   1.526   0.010  0.00  0.00    +0.009 C 
ATOM     23  C   UNL     1       0.002  -0.004   0.002  0.00  0.00    -0.000 C 
ATOM     24  C   UNL     1       0.742  -0.511   1.242  0.00  0.00    +0.009 C 
ENDBRANCH  21  23
ENDBRANCH  17  21
ENDBRANCH   1  18
BRANCH   6  25
ATOM     25  C   UNL     1       0.099  -7.153  -1.566  0.00  0.00    +0.412 C 
ATOM     26  F   UNL     1       0.876  -6.105  -1.063  0.00  0.00    -0.168 F 
ATOM     27  F   UNL     1       0.890  -8.299  -1.697  0.00  0.00    -0.168 F 
ATOM     28  F   UNL     1      -0.413  -6.795  -2.818  0.00  0.00    -0.168 F 
ENDBRANCH   6  25
TORSDOF 5
