REMARK  Name = ZINC39327275
REMARK  9 active torsions:
REMARK  status: ('A' for Active; 'I' for Inactive)
REMARK    1  A    between atoms: C_1  and  C_2
REMARK    2  A    between atoms: C_2  and  C_3
REMARK    3  A    between atoms: C_3  and  C_4
REMARK    4  A    between atoms: C_4  and  C_5
REMARK    5  A    between atoms: C_7  and  C_19
REMARK    6  A    between atoms: C_9  and  C_17
REMARK    7  A    between atoms: C_10  and  N_16
REMARK    8  A    between atoms: C_23  and  O_25
REMARK    9  A    between atoms: O_25  and  C_26
REMARK                            x       y       z     vdW  Elec       q    Type
REMARK                         _______ _______ _______ _____ _____    ______ ____
ROOT
ATOM      1  C   UNL     1      -2.826  -2.585   0.015  0.00  0.00    +0.069 C 
ATOM      2  C   UNL     1      -3.505  -2.932  -1.052  0.00  0.00    +0.030 C 
ATOM      3  C   UNL     1      -3.149  -3.073  -2.506  0.00  0.00    +0.098 C 
ATOM      4  C   UNL     1      -3.823  -4.352  -2.968  0.00  0.00    +0.097 C 
ATOM      5  C   UNL     1      -4.702  -5.013  -2.185  0.00  0.00    +0.195 C 
ATOM      6  O   UNL     1      -5.077  -4.678  -0.938  0.00  0.00    -0.448 OA
ATOM      7  C   UNL     1      -4.891  -3.319  -0.534  0.00  0.00    +0.343 C 
ATOM      8  N   UNL     1      -4.721  -3.189   0.917  0.00  0.00    -0.138 NA
ATOM      9  N   UNL     1      -3.577  -2.769   1.131  0.00  0.00    -0.155 NA
ENDROOT
BRANCH   3  10
ATOM     10  C   UNL     1      -1.655  -3.180  -2.669  0.00  0.00    -0.028 A 
ATOM     11  C   UNL     1      -0.973  -2.238  -3.417  0.00  0.00    +0.054 A 
ATOM     12  C   UNL     1       0.401  -2.333  -3.569  0.00  0.00    +0.170 A 
ATOM     13  C   UNL     1       1.095  -3.377  -2.967  0.00  0.00    +0.208 A 
ATOM     14  C   UNL     1       0.406  -4.322  -2.216  0.00  0.00    +0.166 A 
ATOM     15  C   UNL     1      -0.968  -4.217  -2.065  0.00  0.00    +0.054 A 
ATOM     16  O   UNL     1       2.422  -3.249  -3.264  0.00  0.00    -0.449 OA
ATOM     17  C   UNL     1       2.479  -2.350  -4.387  0.00  0.00    +0.467 C 
ATOM     18  O   UNL     1       1.292  -1.548  -4.243  0.00  0.00    -0.452 OA
BRANCH  14  19
ATOM     19  O   UNL     1       1.080  -5.345  -1.626  0.00  0.00    -0.491 OA
ATOM     20  C   UNL     1       0.307  -6.279  -0.869  0.00  0.00    +0.277 C 
ENDBRANCH  14  19
ENDBRANCH   3  10
BRANCH   5  21
ATOM     21  N   UNL     1      -5.272  -6.141  -2.717  0.00  0.00    -0.329 N 
ATOM     22  H   UNL     1      -5.037  -6.428  -3.614  0.00  0.00    +0.145 HD
ATOM     23  H   UNL     1      -5.911  -6.654  -2.197  0.00  0.00    +0.145 HD
ENDBRANCH   5  21
BRANCH   4  24
ATOM     24  C   UNL     1      -3.518  -4.872  -4.267  0.00  0.00    +0.101 C 
ATOM     25  N   UNL     1      -3.276  -5.284  -5.297  0.00  0.00    -0.191 NA
ENDBRANCH   4  24
BRANCH   1  26
ATOM     26  C   UNL     1      -1.413  -2.063   0.004  0.00  0.00    +0.057 C 
BRANCH  26  27
ATOM     27  C   UNL     1      -1.433  -0.534   0.013  0.00  0.00    +0.006 C 
BRANCH  27  29
ATOM     28  C   UNL     1      -0.019   1.526   0.010  0.00  0.00    +0.004 C 
ATOM     29  C   UNL     1       0.002  -0.004   0.002  0.00  0.00    -0.003 C 
ENDBRANCH  27  29
ENDBRANCH  26  27
ENDBRANCH   1  26
TORSDOF 7
