REMARK  Name = ZINC17701020
REMARK  7 active torsions:
REMARK  status: ('A' for Active; 'I' for Inactive)
REMARK    1  A    between atoms: C_1  and  C_2
REMARK    2  A    between atoms: C_5  and  C_7
REMARK    3  A    between atoms: C_7  and  C_9
REMARK    4  A    between atoms: C_7  and  N_23
REMARK    5  A    between atoms: C_9  and  N_10
REMARK    6  A    between atoms: C_11  and  C_12
REMARK    7  A    between atoms: C_21  and  O_22
REMARK                            x       y       z     vdW  Elec       q    Type
REMARK                         _______ _______ _______ _____ _____    ______ ____
ROOT
ATOM      1  N   UNL     1       2.777  -2.242  -1.940  0.00  0.00    -0.388 N 
ATOM      2  C   UNL     1       2.208  -1.493  -2.833  0.00  0.00    +0.090 C 
ATOM      3  H   UNL     1       3.651  -2.005  -1.595  0.00  0.00    +0.159 HD
ENDROOT
BRANCH   2   4
ATOM      4  C   UNL     1       2.838  -0.231  -3.244  0.00  0.00    +0.040 A 
ATOM      5  C   UNL     1       2.152   0.685  -4.154  0.00  0.00    -0.006 A 
ATOM      6  C   UNL     1       0.880   0.395  -4.661  0.00  0.00    +0.009 A 
ATOM      7  C   UNL     1       0.275   1.276  -5.506  0.00  0.00    +0.001 A 
ATOM      8  C   UNL     1       0.904   2.463  -5.873  0.00  0.00    +0.001 A 
ATOM      9  C   UNL     1       2.142   2.776  -5.398  0.00  0.00    +0.008 A 
ATOM     10  C   UNL     1       2.796   1.891  -4.524  0.00  0.00    -0.017 A 
ATOM     11  C   UNL     1       4.073   2.181  -4.013  0.00  0.00    +0.012 A 
ATOM     12  C   UNL     1       4.697   1.319  -3.169  0.00  0.00    +0.046 A 
ATOM     13  C   UNL     1       4.103   0.121  -2.770  0.00  0.00    +0.126 A 
BRANCH  13  14
ATOM     14  O   UNL     1       4.759  -0.707  -1.921  0.00  0.00    -0.506 OA
ATOM     15  H   UNL     1       5.381  -1.305  -2.357  0.00  0.00    +0.292 HD
ENDBRANCH  13  14
ENDBRANCH   2   4
BRANCH   1  16
ATOM     16  C   UNL     1       2.098  -3.445  -1.453  0.00  0.00    +0.139 C 
BRANCH  16  17
ATOM     17  C   UNL     1       1.819  -3.303   0.044  0.00  0.00    +0.142 C 
BRANCH  17  22
ATOM     18  C   UNL     1      -0.118   1.322   0.595  0.00  0.00    +0.086 C 
ATOM     19  C   UNL     1      -0.015  -0.179   0.506  0.00  0.00    +0.102 A 
ATOM     20  C   UNL     1      -1.034  -1.047   0.640  0.00  0.00    +0.045 A 
ATOM     21  C   UNL     1      -0.491  -2.343   0.486  0.00  0.00    +0.046 A 
ATOM     22  C   UNL     1       0.827  -2.190   0.267  0.00  0.00    +0.124 A 
ATOM     23  O   UNL     1       1.109  -0.876   0.274  0.00  0.00    -0.463 OA
ENDBRANCH  17  22
BRANCH  17  24
ATOM     24  N   UNL     1       3.070  -2.991   0.748  0.00  0.00    -0.287 NA
ATOM     25  C   UNL     1       4.120  -3.964   0.412  0.00  0.00    +0.113 C 
ATOM     26  C   UNL     1       5.419  -3.569   1.119  0.00  0.00    +0.175 C 
ATOM     27  O   UNL     1       5.185  -3.490   2.527  0.00  0.00    -0.377 OA
ATOM     28  C   UNL     1       4.169  -2.551   2.890  0.00  0.00    +0.175 C 
ATOM     29  C   UNL     1       2.857  -2.936   2.202  0.00  0.00    +0.113 C 
ENDBRANCH  17  24
ENDBRANCH  16  17
ENDBRANCH   1  16
TORSDOF 6
