REMARK  Name = ZINC05256177
REMARK  4 active torsions:
REMARK  status: ('A' for Active; 'I' for Inactive)
REMARK    1  A    between atoms: C_1  and  O_2
REMARK    2  A    between atoms: O_2  and  C_3
REMARK    3  A    between atoms: C_6  and  C_9
REMARK    4  A    between atoms: N_21  and  C_22
REMARK                            x       y       z     vdW  Elec       q    Type
REMARK                         _______ _______ _______ _____ _____    ______ ____
ROOT
ATOM      1  C   UNL     1      -2.900   2.156  -0.063  0.00  0.00    +0.155 C 
ATOM      2  C   UNL     1      -1.837   1.787  -1.072  0.00  0.00    +0.044 A 
ATOM      3  C   UNL     1      -1.894   1.915  -2.406  0.00  0.00    +0.025 A 
ATOM      4  C   UNL     1      -0.668   1.450  -2.925  0.00  0.00    +0.019 A 
ATOM      5  C   UNL     1       0.089   1.053  -1.881  0.00  0.00    +0.086 A 
ATOM      6  N   UNL     1      -0.622   1.253  -0.738  0.00  0.00    -0.347 N 
ATOM      7  C   UNL     1      -0.191   0.954   0.632  0.00  0.00    +0.140 C 
ATOM      8  C   UNL     1      -1.063   1.737   1.619  0.00  0.00    +0.132 C 
ATOM      9  N   UNL     1      -2.477   1.597   1.234  0.00  0.00    -0.271 N 
ATOM     10  C   UNL     1      -3.357   0.976   2.043  0.00  0.00    +0.308 C 
ATOM     11  O   UNL     1      -4.501   0.793   1.670  0.00  0.00    -0.252 OA
ATOM     12  N   UNL     1      -2.971   0.557   3.264  0.00  0.00    -0.264 N 
ATOM     13  H   UNL     1      -2.083   0.768   3.591  0.00  0.00    +0.157 HD
ENDROOT
BRANCH   1  17
ATOM     14  C   UNL     1      -6.654   0.474  -1.220  0.00  0.00    +0.120 A 
ATOM     15  C   UNL     1      -6.521   1.848  -1.083  0.00  0.00    +0.046 A 
ATOM     16  C   UNL     1      -5.307   2.390  -0.709  0.00  0.00    +0.009 A 
ATOM     17  C   UNL     1      -4.224   1.563  -0.471  0.00  0.00    -0.021 A 
ATOM     18  C   UNL     1      -4.353   0.194  -0.613  0.00  0.00    +0.009 A 
ATOM     19  C   UNL     1      -5.567  -0.353  -0.981  0.00  0.00    +0.046 A 
BRANCH  14  21
ATOM     20  C   UNL     1      -7.912  -1.483  -1.711  0.00  0.00    +0.277 C 
ATOM     21  O   UNL     1      -7.848  -0.060  -1.589  0.00  0.00    -0.495 OA
ENDBRANCH  14  21
ENDBRANCH   1  17
BRANCH  12  22
ATOM     22  C   UNL     1      -3.852  -0.183   4.060  0.00  0.00    +0.073 A 
ATOM     23  C   UNL     1      -3.657  -0.693   5.308  0.00  0.00    +0.031 A 
ATOM     24  C   UNL     1      -4.685  -1.399   5.906  0.00  0.00    +0.009 A 
ATOM     25  C   UNL     1      -5.851  -1.561   5.235  0.00  0.00    +0.047 A 
ATOM     26  S   UNL     1      -5.525  -0.696   3.708  0.00  0.00    -0.082 S 
ENDBRANCH  12  22
TORSDOF 3
