REMARK  Name = ZINC00914358
REMARK  7 active torsions:
REMARK  status: ('A' for Active; 'I' for Inactive)
REMARK    1  A    between atoms: C_1  and  C_2
REMARK    2  A    between atoms: C_7  and  C_15
REMARK    3  A    between atoms: C_13  and  C_14
REMARK    4  A    between atoms: C_15  and  N_16
REMARK    5  A    between atoms: N_16  and  C_17
REMARK    6  A    between atoms: N_16  and  S_22
REMARK    7  A    between atoms: S_22  and  C_25
REMARK                            x       y       z     vdW  Elec       q    Type
REMARK                         _______ _______ _______ _____ _____    ______ ____
ROOT
ATOM      1  N   UNL     1      -1.141   1.327   1.325  0.00  0.00    -0.169 NA
ENDROOT
BRANCH   1   2
ATOM      2  C   UNL     1      -1.363   2.531   2.128  0.00  0.00    +0.080 C 
ATOM      3  C   UNL     1      -1.835   3.689   1.224  0.00  0.00    +0.020 C 
ATOM      4  C   UNL     1      -1.150   4.942   1.824  0.00  0.00    +0.002 C 
ATOM      5  C   UNL     1       0.243   4.406   2.236  0.00  0.00    +0.002 C 
ATOM      6  C   UNL     1      -0.042   2.987   2.771  0.00  0.00    +0.020 C 
ENDBRANCH   1   2
BRANCH   1   7
ATOM      7  S   UNL     1      -2.098  -0.006   1.548  0.00  0.00    +0.063 S 
ATOM      8  O   UNL     1      -3.400   0.476   1.854  0.00  0.00    -0.153 OA
ATOM      9  O   UNL     1      -1.845  -0.876   0.454  0.00  0.00    -0.153 OA
BRANCH   7  10
ATOM     10  C   UNL     1      -1.514  -0.830   2.992  0.00  0.00    +0.124 A 
ATOM     11  C   UNL     1      -2.300  -0.873   4.129  0.00  0.00    +0.030 A 
ATOM     12  C   UNL     1      -1.841  -1.519   5.262  0.00  0.00    +0.002 A 
ATOM     13  C   UNL     1      -0.598  -2.124   5.258  0.00  0.00    +0.002 A 
ATOM     14  C   UNL     1       0.188  -2.082   4.122  0.00  0.00    +0.022 A 
ATOM     15  C   UNL     1      -0.273  -1.440   2.986  0.00  0.00    +0.067 A 
ATOM     16 CL   UNL     1       0.711  -1.393   1.556  0.00  0.00    -0.082 Cl
ENDBRANCH   7  10
ENDBRANCH   1   7
BRANCH   1  17
ATOM     17  C   UNL     1      -0.072   1.301   0.323  0.00  0.00    +0.150 C 
BRANCH  17  24
ATOM     18  C   UNL     1      -1.441   6.591  -5.487  0.00  0.00    +0.044 C 
ATOM     19  C   UNL     1      -1.029   5.747  -4.308  0.00  0.00    -0.046 A 
ATOM     20  C   UNL     1      -0.072   6.226  -3.423  0.00  0.00    +0.004 A 
ATOM     21  C   UNL     1       0.315   5.477  -2.348  0.00  0.00    +0.010 A 
ATOM     22  C   UNL     1      -0.257   4.218  -2.136  0.00  0.00    -0.001 A 
ATOM     23  C   UNL     1       0.135   3.390  -0.995  0.00  0.00    +0.020 A 
ATOM     24  C   UNL     1      -0.453   2.178  -0.841  0.00  0.00    +0.033 A 
ATOM     25  C   UNL     1      -1.417   1.733  -1.771  0.00  0.00    +0.254 A 
ATOM     26  O   UNL     1      -1.929   0.638  -1.617  0.00  0.00    -0.268 OA
ATOM     27  N   UNL     1      -1.787   2.489  -2.820  0.00  0.00    -0.322 N 
ATOM     28  H   UNL     1      -2.479   2.145  -3.455  0.00  0.00    +0.169 HD
ATOM     29  C   UNL     1      -1.227   3.730  -3.032  0.00  0.00    +0.052 A 
ATOM     30  C   UNL     1      -1.606   4.511  -4.120  0.00  0.00    -0.024 A 
ATOM     31  C   UNL     1      -2.644   4.005  -5.088  0.00  0.00    +0.046 C 
ENDBRANCH  17  24
ENDBRANCH   1  17
TORSDOF 5
