REMARK  Name = ZINC09043908
REMARK  14 active torsions:
REMARK  status: ('A' for Active; 'I' for Inactive)
REMARK    1  A    between atoms: C_1  and  C_2
REMARK    2  A    between atoms: C_2  and  C_3
REMARK    3  A    between atoms: C_2  and  C_4
REMARK    4  A    between atoms: C_7  and  S_10
REMARK    5  A    between atoms: S_10  and  C_13
REMARK    6  A    between atoms: C_13  and  C_15
REMARK    7  A    between atoms: C_13  and  C_32
REMARK    8  A    between atoms: C_15  and  N_16
REMARK    9  A    between atoms: C_17  and  C_19
REMARK   10  A    between atoms: N_21  and  C_22
REMARK   11  A    between atoms: C_22  and  C_23
REMARK   12  A    between atoms: C_23  and  C_24
REMARK   13  A    between atoms: C_27  and  O_30
REMARK   14  A    between atoms: O_30  and  C_31
REMARK                            x       y       z     vdW  Elec       q    Type
REMARK                         _______ _______ _______ _____ _____    ______ ____
ROOT
ATOM      1  C   UNL     1       1.254  -8.953  -5.275  0.00  0.00    +0.184 C 
ENDROOT
BRANCH   1   2
ATOM      2  C   UNL     1       1.271 -10.459  -5.283  0.00  0.00    -0.003 A 
ATOM      3  C   UNL     1       0.235 -11.171  -5.869  0.00  0.00    +0.008 A 
ATOM      4  C   UNL     1       0.296 -12.556  -5.857  0.00  0.00    +0.020 A 
ATOM      5  C   UNL     1       1.374 -13.177  -5.256  0.00  0.00    +0.111 A 
ATOM      6  N   UNL     1       2.339 -12.469  -4.703  0.00  0.00    -0.263 NA
ATOM      7  C   UNL     1       2.317 -11.150  -4.700  0.00  0.00    +0.116 A 
ENDBRANCH   1   2
BRANCH   1   8
ATOM      8  S   UNL     1       2.719  -8.326  -6.141  0.00  0.00    +0.005 S 
ATOM      9  O   UNL     1       2.630  -6.917  -6.299  0.00  0.00    -0.169 OA
ATOM     10  O   UNL     1       3.894  -8.922  -5.609  0.00  0.00    -0.169 OA
BRANCH   8  14
ATOM     11  C   UNL     1       2.385  -9.983 -10.341  0.00  0.00    -0.045 A 
ATOM     12  C   UNL     1       1.823  -8.758 -10.034  0.00  0.00    +0.006 A 
ATOM     13  C   UNL     1       1.925  -8.252  -8.752  0.00  0.00    +0.027 A 
ATOM     14  C   UNL     1       2.589  -8.971  -7.776  0.00  0.00    +0.089 A 
ATOM     15  C   UNL     1       3.156 -10.194  -8.084  0.00  0.00    +0.027 A 
ATOM     16  C   UNL     1       3.050 -10.702  -9.365  0.00  0.00    +0.006 A 
BRANCH  11  18
ATOM     17  C   UNL     1       3.673 -10.739 -12.320  0.00  0.00    +0.012 C 
ATOM     18  C   UNL     1       2.273 -10.535 -11.738  0.00  0.00    +0.013 C 
ATOM     19  C   UNL     1       1.536 -11.876 -11.700  0.00  0.00    +0.012 C 
ENDBRANCH  11  18
ENDBRANCH   8  14
ENDBRANCH   1   8
BRANCH   1  20
ATOM     20  C   UNL     1       1.262  -8.450  -3.830  0.00  0.00    +0.136 C 
BRANCH  20  21
ATOM     21  N   UNL     1       1.245  -6.985  -3.822  0.00  0.00    -0.305 N 
ATOM     22  C   UNL     1       1.248  -6.317  -2.652  0.00  0.00    +0.299 C 
ATOM     23  O   UNL     1       1.266  -6.929  -1.604  0.00  0.00    -0.265 OA
ATOM     24  H   UNL     1       1.231  -6.496  -4.660  0.00  0.00    +0.149 HD
BRANCH  22  25
ATOM     25  C   UNL     1       1.231  -4.823  -2.644  0.00  0.00    +0.299 C 
ATOM     26  O   UNL     1       1.214  -4.211  -3.692  0.00  0.00    -0.265 OA
ATOM     27  N   UNL     1       1.234  -4.155  -1.474  0.00  0.00    -0.307 N 
ATOM     28  H   UNL     1       1.248  -4.644  -0.636  0.00  0.00    +0.149 HD
BRANCH  27  29
ATOM     29  C   UNL     1       1.217  -2.690  -1.466  0.00  0.00    +0.109 C 
BRANCH  29  30
ATOM     30  C   UNL     1       1.226  -2.187  -0.021  0.00  0.00    +0.054 C 
BRANCH  30  31
ATOM     31  C   UNL     1       1.208  -0.680  -0.013  0.00  0.00    -0.046 A 
ATOM     32  C   UNL     1       0.002  -0.004   0.002  0.00  0.00    +0.007 A 
ATOM     33  C   UNL     1      -0.017   1.377   0.010  0.00  0.00    +0.046 A 
ATOM     34  C   UNL     1       1.176   2.086   0.002  0.00  0.00    +0.120 A 
ATOM     35  C   UNL     1       2.385   1.405  -0.013  0.00  0.00    +0.046 A 
ATOM     36  C   UNL     1       2.398   0.024  -0.021  0.00  0.00    +0.007 A 
BRANCH  34  37
ATOM     37  O   UNL     1       1.160   3.445   0.009  0.00  0.00    -0.495 OA
ATOM     38  C   UNL     1       2.426   4.108   0.001  0.00  0.00    +0.277 C 
ENDBRANCH  34  37
ENDBRANCH  30  31
ENDBRANCH  29  30
ENDBRANCH  27  29
ENDBRANCH  22  25
ENDBRANCH  20  21
ENDBRANCH   1  20
TORSDOF 11
