REMARK  Name = ZINC14840441
REMARK  9 active torsions:
REMARK  status: ('A' for Active; 'I' for Inactive)
REMARK    1  A    between atoms: C_1  and  C_2
REMARK    2  A    between atoms: C_2  and  C_3
REMARK    3  A    between atoms: C_2  and  C_4
REMARK    4  A    between atoms: C_2  and  C_5
REMARK    5  A    between atoms: C_12  and  C_14
REMARK    6  A    between atoms: N_16  and  N_17
REMARK    7  A    between atoms: N_17  and  C_18
REMARK    8  A    between atoms: C_18  and  N_20
REMARK    9  A    between atoms: N_20  and  C_21
REMARK                            x       y       z     vdW  Elec       q    Type
REMARK                         _______ _______ _______ _____ _____    ______ ____
ROOT
ATOM      1  C   UNL     1      -2.164   1.050   1.278  0.00  0.00    -0.001 C 
ATOM      2  C   UNL     1      -2.907   1.568   0.043  0.00  0.00    +0.009 C 
ATOM      3  C   UNL     1      -4.402   1.260   0.200  0.00  0.00    +0.043 C 
ATOM      4  C   UNL     1      -4.549  -0.171   0.619  0.00  0.00    -0.006 A 
ATOM      5  C   UNL     1      -3.570  -0.992   1.102  0.00  0.00    -0.036 A 
ATOM      6  C   UNL     1      -3.943  -2.286   1.424  0.00  0.00    +0.024 A 
ATOM      7  C   UNL     1      -5.264  -2.650   1.237  0.00  0.00    +0.076 A 
ATOM      8  S   UNL     1      -5.972  -1.141   0.599  0.00  0.00    -0.088 S 
ATOM      9  C   UNL     1      -2.141  -0.479   1.269  0.00  0.00    +0.040 C 
ENDROOT
BRANCH   1  11
ATOM     10  C   UNL     1      -0.013   1.086   0.008  0.00  0.00    +0.011 C 
ATOM     11  C   UNL     1      -0.729   1.579   1.267  0.00  0.00    -0.035 C 
ATOM     12  C   UNL     1       0.011   1.072   2.506  0.00  0.00    +0.011 C 
ATOM     13  C   UNL     1      -0.750   3.109   1.275  0.00  0.00    +0.011 C 
ENDBRANCH   1  11
BRANCH   7  14
ATOM     14  C   UNL     1      -5.913  -3.939   1.494  0.00  0.00    +0.267 C 
ATOM     15  O   UNL     1      -5.265  -4.870   1.935  0.00  0.00    -0.268 OA
ATOM     16  N   UNL     1      -7.228  -4.093   1.242  0.00  0.00    -0.231 N 
ATOM     17  H   UNL     1      -7.745  -3.352   0.890  0.00  0.00    +0.173 HD
BRANCH  16  18
ATOM     18  N   UNL     1      -7.848  -5.325   1.487  0.00  0.00    -0.246 N 
ATOM     19  H   UNL     1      -7.332  -6.067   1.839  0.00  0.00    +0.172 HD
BRANCH  18  20
ATOM     20  C   UNL     1      -9.163  -5.480   1.235  0.00  0.00    +0.147 C 
ATOM     21  S   UNL     1      -9.921  -6.985   1.535  0.00  0.00    -0.017 S 
BRANCH  20  22
ATOM     22  N   UNL     1      -9.882  -4.449   0.747  0.00  0.00    -0.323 N 
ATOM     23  H   UNL     1      -9.452  -3.596   0.576  0.00  0.00    +0.148 HD
BRANCH  22  24
ATOM     24  C   UNL     1     -11.311  -4.617   0.472  0.00  0.00    +0.072 C 
ATOM     25  C   UNL     1     -11.851  -4.040  -0.837  0.00  0.00    +0.024 C 
ATOM     26  C   UNL     1     -12.186  -3.362   0.493  0.00  0.00    +0.024 C 
ENDBRANCH  22  24
ENDBRANCH  20  22
ENDBRANCH  18  20
ENDBRANCH  16  18
ENDBRANCH   7  14
TORSDOF 6
