REMARK  Name = ZINC04918698
REMARK  4 active torsions:
REMARK  status: ('A' for Active; 'I' for Inactive)
REMARK    1  A    between atoms: C_1  and  C_2
REMARK    2  A    between atoms: C_7  and  N_8
REMARK    3  A    between atoms: C_9  and  N_19
REMARK    4  A    between atoms: N_19  and  C_20
REMARK                            x       y       z     vdW  Elec       q    Type
REMARK                         _______ _______ _______ _____ _____    ______ ____
ROOT
ATOM      1  N   UNL     1      -1.576   5.142   0.307  0.00  0.00    -0.244 N 
ATOM      2  C   UNL     1      -0.132   5.203   0.056  0.00  0.00    +0.198 C 
ATOM      3  C   UNL     1       0.328   3.776  -0.110  0.00  0.00    +0.003 A 
ATOM      4  C   UNL     1       1.554   3.204  -0.360  0.00  0.00    +0.008 A 
ATOM      5  C   UNL     1       1.667   1.828  -0.463  0.00  0.00    +0.000 A 
ATOM      6  C   UNL     1       0.550   1.025  -0.313  0.00  0.00    +0.001 A 
ATOM      7  C   UNL     1      -0.685   1.588  -0.068  0.00  0.00    +0.013 A 
ATOM      8  C   UNL     1      -0.806   2.975   0.042  0.00  0.00    +0.044 A 
ATOM      9  C   UNL     1      -1.962   3.854   0.298  0.00  0.00    +0.253 C 
ATOM     10  O   UNL     1      -3.102   3.470   0.476  0.00  0.00    -0.270 OA
ENDROOT
BRANCH   1  17
ATOM     11  C   UNL     1      -2.812   6.347  -1.955  0.00  0.00    +0.045 C 
ATOM     12  C   UNL     1      -3.037   6.860  -0.556  0.00  0.00    -0.029 A 
ATOM     13  C   UNL     1      -3.863   7.946  -0.342  0.00  0.00    +0.005 A 
ATOM     14  C   UNL     1      -4.070   8.418   0.941  0.00  0.00    +0.000 A 
ATOM     15  C   UNL     1      -3.450   7.804   2.015  0.00  0.00    +0.002 A 
ATOM     16  C   UNL     1      -2.627   6.715   1.808  0.00  0.00    +0.024 A 
ATOM     17  C   UNL     1      -2.413   6.242   0.520  0.00  0.00    +0.042 A 
ENDBRANCH   1  17
BRANCH   2  18
ATOM     18  N   UNL     1       0.135   5.964  -1.167  0.00  0.00    -0.322 N 
ATOM     19  H   UNL     1      -0.056   5.572  -2.034  0.00  0.00    +0.148 HD
BRANCH  18  20
ATOM     20  C   UNL     1       0.664   7.254  -1.086  0.00  0.00    +0.029 A 
ATOM     21  C   UNL     1       1.069   7.914  -2.239  0.00  0.00    +0.024 A 
ATOM     22  C   UNL     1       1.587   9.192  -2.156  0.00  0.00    +0.017 A 
ATOM     23  C   UNL     1       1.714   9.810  -0.924  0.00  0.00    +0.018 A 
ATOM     24  C   UNL     1       1.317   9.152   0.227  0.00  0.00    +0.017 A 
ATOM     25  C   UNL     1       0.793   7.877   0.149  0.00  0.00    +0.024 A 
ATOM     26 BR   UNL     1       2.430  11.556  -0.814  0.00  0.00    -0.050 Br
ENDBRANCH  18  20
ENDBRANCH   2  18
TORSDOF 3
