REMARK  Name = ZINC65621507
REMARK  9 active torsions:
REMARK  status: ('A' for Active; 'I' for Inactive)
REMARK    1  A    between atoms: C_1  and  C_2
REMARK    2  A    between atoms: C_5  and  O_25
REMARK    3  A    between atoms: C_6  and  N_8
REMARK    4  A    between atoms: C_11  and  C_13
REMARK    5  A    between atoms: N_15  and  N_16
REMARK    6  A    between atoms: N_16  and  C_17
REMARK    7  A    between atoms: C_17  and  N_19
REMARK    8  A    between atoms: N_19  and  C_20
REMARK    9  A    between atoms: O_25  and  C_26
REMARK                            x       y       z     vdW  Elec       q    Type
REMARK                         _______ _______ _______ _____ _____    ______ ____
ROOT
ATOM      1  C   UNL     1       0.110  -5.806   4.302  0.00  0.00    +0.280 C 
ATOM      2  O   UNL     1       0.116  -5.997   5.503  0.00  0.00    -0.267 OA
ATOM      3  N   UNL     1       0.126  -6.853   3.453  0.00  0.00    -0.230 N 
ATOM      4  H   UNL     1       0.120  -6.700   2.495  0.00  0.00    +0.173 HD
ENDROOT
BRANCH   1   8
ATOM      5  N   UNL     1       0.053  -2.795   2.400  0.00  0.00    -0.236 N 
ATOM      6  C   UNL     1       0.046  -2.227   3.634  0.00  0.00    +0.115 A 
ATOM      7  C   UNL     1       0.065  -3.235   4.537  0.00  0.00    +0.054 A 
ATOM      8  C   UNL     1       0.084  -4.427   3.774  0.00  0.00    +0.149 A 
ATOM      9  N   UNL     1       0.070  -4.075   2.503  0.00  0.00    -0.162 NA
BRANCH   5  15
ATOM     10  C   UNL     1      -0.018   1.503   0.010  0.00  0.00    +0.044 C 
ATOM     11  C   UNL     1       0.002  -0.004   0.002  0.00  0.00    -0.048 A 
ATOM     12  C   UNL     1       0.006  -0.687  -1.201  0.00  0.00    +0.007 A 
ATOM     13  C   UNL     1       0.025  -2.069  -1.215  0.00  0.00    +0.048 A 
ATOM     14  C   UNL     1       0.040  -2.774  -0.022  0.00  0.00    +0.145 A 
ATOM     15  C   UNL     1       0.037  -2.087   1.190  0.00  0.00    +0.107 A 
ATOM     16  C   UNL     1       0.023  -0.699   1.196  0.00  0.00    +0.034 A 
BRANCH  14  17
ATOM     17  O   UNL     1       0.058  -4.133  -0.034  0.00  0.00    -0.493 OA
ATOM     18  C   UNL     1       0.060  -4.771  -1.313  0.00  0.00    +0.277 C 
ENDBRANCH  14  17
ENDBRANCH   5  15
ENDBRANCH   1   8
BRANCH   3  19
ATOM     19  N   UNL     1       0.150  -8.161   3.954  0.00  0.00    -0.246 N 
ATOM     20  H   UNL     1       0.155  -8.313   4.912  0.00  0.00    +0.172 HD
BRANCH  19  21
ATOM     21  C   UNL     1       0.166  -9.207   3.105  0.00  0.00    +0.147 C 
ATOM     22  S   UNL     1       0.196 -10.806   3.717  0.00  0.00    -0.017 S 
BRANCH  21  23
ATOM     23  N   UNL     1       0.158  -8.995   1.774  0.00  0.00    -0.323 N 
ATOM     24  H   UNL     1       0.141  -8.090   1.427  0.00  0.00    +0.148 HD
BRANCH  23  25
ATOM     25  C   UNL     1       0.176 -10.133   0.851  0.00  0.00    +0.072 C 
ATOM     26  C   UNL     1       1.631 -10.552   0.556  0.00  0.00    +0.022 C 
ATOM     27  C   UNL     1       1.615 -10.956  -0.939  0.00  0.00    +0.002 C 
ATOM     28  C   UNL     1       0.653  -9.915  -1.563  0.00  0.00    +0.002 C 
ATOM     29  C   UNL     1      -0.446  -9.728  -0.497  0.00  0.00    +0.022 C 
ENDBRANCH  23  25
ENDBRANCH  21  23
ENDBRANCH  19  21
ENDBRANCH   3  19
TORSDOF 7
