REMARK  Name = ZINC05615593
REMARK  3 active torsions:
REMARK  status: ('A' for Active; 'I' for Inactive)
REMARK    1  A    between atoms: C_1  and  C_2
REMARK    2  A    between atoms: C_7  and  N_8
REMARK    3  A    between atoms: C_14  and  C_20
REMARK                            x       y       z     vdW  Elec       q    Type
REMARK                         _______ _______ _______ _____ _____    ______ ____
ROOT
ATOM      1  N   UNL     1      -0.650   3.059   1.269  0.00  0.00    -0.280 N 
ATOM      2  C   UNL     1      -1.722   3.837   1.385  0.00  0.00    +0.114 C 
ATOM      3  S   UNL     1      -1.758   5.540   1.562  0.00  0.00    -0.028 S 
ATOM      4  S   UNL     1      -3.119   2.734   1.308  0.00  0.00    -0.095 S 
ATOM      5  C   UNL     1      -2.224   1.147   1.118  0.00  0.00    +0.099 C 
ATOM      6  C   UNL     1      -0.766   1.616   1.186  0.00  0.00    +0.071 C 
ATOM      7  C   UNL     1       0.032   0.976   2.347  0.00  0.00    +0.193 C 
ATOM      8  S   UNL     1      -0.986  -0.515   2.728  0.00  0.00    -0.028 S 
ATOM      9  O   UNL     1      -0.647  -1.559   1.825  0.00  0.00    -0.174 OA
ATOM     10  O   UNL     1      -0.961  -0.756   4.128  0.00  0.00    -0.174 OA
ATOM     11  C   UNL     1      -2.625   0.192   2.258  0.00  0.00    +0.182 C 
ATOM     12  C   UNL     1      -0.089   1.185  -0.117  0.00  0.00    +0.035 C 
ENDROOT
BRANCH   1  19
ATOM     13  C   UNL     1       0.528   3.787   3.755  0.00  0.00    +0.045 C 
ATOM     14  C   UNL     1       1.228   4.024   2.441  0.00  0.00    -0.029 A 
ATOM     15  C   UNL     1       2.478   4.611   2.419  0.00  0.00    +0.005 A 
ATOM     16  C   UNL     1       3.120   4.828   1.214  0.00  0.00    +0.000 A 
ATOM     17  C   UNL     1       2.513   4.460   0.027  0.00  0.00    +0.002 A 
ATOM     18  C   UNL     1       1.266   3.868   0.042  0.00  0.00    +0.024 A 
ATOM     19  C   UNL     1       0.616   3.653   1.251  0.00  0.00    +0.038 A 
ENDBRANCH   1  19
TORSDOF 1
