REMARK  Name = ZINC09103849
REMARK  6 active torsions:
REMARK  status: ('A' for Active; 'I' for Inactive)
REMARK    1  A    between atoms: C_1  and  C_2
REMARK    2  A    between atoms: C_5  and  N_12
REMARK    3  A    between atoms: C_8  and  C_10
REMARK    4  A    between atoms: C_8  and  C_11
REMARK    5  A    between atoms: C_13  and  C_15
REMARK    6  A    between atoms: C_26  and  C_28
REMARK                            x       y       z     vdW  Elec       q    Type
REMARK                         _______ _______ _______ _____ _____    ______ ____
ROOT
ATOM      1  C   UNL     1      -7.404   1.876   0.046  0.00  0.00    +0.124 C 
ATOM      2  C   UNL     1      -8.341   2.997  -0.408  0.00  0.00    +0.019 C 
ATOM      3  C   UNL     1      -8.104   4.255   0.433  0.00  0.00    +0.006 C 
ATOM      4  C   UNL     1      -6.735   4.846   0.061  0.00  0.00    +0.044 C 
ATOM      5  C   UNL     1      -5.736   3.740   0.049  0.00  0.00    +0.015 A 
ATOM      6  C   UNL     1      -5.973   2.402   0.043  0.00  0.00    +0.066 A 
ATOM      7  N   UNL     1      -4.897   1.619   0.029  0.00  0.00    -0.229 NA
ATOM      8  C   UNL     1      -3.674   2.107   0.031  0.00  0.00    +0.165 A 
ATOM      9  S   UNL     1      -3.965   3.821   0.041  0.00  0.00    -0.057 S 
ATOM     10  N   UNL     1      -2.462   1.427   0.021  0.00  0.00    -0.261 N 
ATOM     11  C   UNL     1      -1.304   2.115   0.020  0.00  0.00    +0.250 C 
ATOM     12  O   UNL     1      -1.318   3.331   0.026  0.00  0.00    -0.270 OA
ATOM     13  H   UNL     1      -2.451   0.457   0.016  0.00  0.00    +0.157 HD
ENDROOT
BRANCH  11  14
ATOM     14  C   UNL     1      -0.017   1.393   0.010  0.00  0.00    +0.041 A 
ATOM     15  C   UNL     1       0.002  -0.004   0.002  0.00  0.00    +0.017 A 
ATOM     16  C   UNL     1       1.204  -0.677  -0.013  0.00  0.00    +0.050 A 
ATOM     17  C   UNL     1       2.400   0.029  -0.021  0.00  0.00    +0.166 A 
ATOM     18  C   UNL     1       2.388   1.425  -0.014  0.00  0.00    +0.167 A 
ATOM     19  C   UNL     1       1.186   2.104   0.002  0.00  0.00    +0.062 A 
ATOM     20  O   UNL     1       3.678   1.871  -0.024  0.00  0.00    -0.453 OA
ATOM     21  C   UNL     1       4.470   0.747  -0.451  0.00  0.00    +0.466 C 
ATOM     22  O   UNL     1       3.696  -0.394  -0.036  0.00  0.00    -0.453 OA
ENDBRANCH  11  14
BRANCH   1  24
ATOM     23  N   UNL     1      -6.763  -0.394  -0.699  0.00  0.00    -0.312 N 
ATOM     24  C   UNL     1      -7.514   0.708  -0.899  0.00  0.00    +0.222 C 
ATOM     25  O   UNL     1      -8.278   0.758  -1.840  0.00  0.00    -0.275 OA
ATOM     26  H   UNL     1      -6.152  -0.434   0.053  0.00  0.00    +0.149 HD
BRANCH  23  30
ATOM     27  C   UNL     1      -5.147  -2.261  -4.982  0.00  0.00    +0.007 C 
ATOM     28  C   UNL     1      -6.065  -2.489  -3.780  0.00  0.00    -0.012 C 
ATOM     29  C   UNL     1      -5.953  -1.302  -2.821  0.00  0.00    +0.025 C 
ATOM     30  C   UNL     1      -6.871  -1.530  -1.618  0.00  0.00    +0.074 C 
ATOM     31  C   UNL     1      -6.454  -2.812  -0.894  0.00  0.00    +0.028 C 
ATOM     32  C   UNL     1      -6.566  -3.999  -1.853  0.00  0.00    -0.033 C 
ATOM     33  C   UNL     1      -5.648  -3.771  -3.056  0.00  0.00    +0.009 C 
ATOM     34  C   UNL     1      -6.149  -5.281  -1.130  0.00  0.00    +0.011 C 
ATOM     35  C   UNL     1      -8.013  -4.131  -2.333  0.00  0.00    +0.011 C 
ENDBRANCH  23  30
ENDBRANCH   1  24
TORSDOF 3
