REMARK  Name = ZINC14475608
REMARK  9 active torsions:
REMARK  status: ('A' for Active; 'I' for Inactive)
REMARK    1  A    between atoms: C_1  and  C_2
REMARK    2  A    between atoms: C_2  and  N_66
REMARK    3  A    between atoms: C_3  and  C_4
REMARK    4  A    between atoms: C_3  and  N_66
REMARK    5  A    between atoms: C_5  and  C_6
REMARK    6  A    between atoms: C_5  and  N_66
REMARK    7  A    between atoms: C_6  and  N_7
REMARK    8  A    between atoms: C_8  and  C_10
REMARK    9  A    between atoms: C_23  and  C_26
REMARK                            x       y       z     vdW  Elec       q    Type
REMARK                         _______ _______ _______ _____ _____    ______ ____
ROOT
ATOM      1  C   UNL     1      -8.128   9.043  -1.227  0.00  0.00    +0.037 A 
ATOM      2  C   UNL     1      -7.332   8.819  -2.355  0.00  0.00    +0.015 A 
ATOM      3  C   UNL     1      -6.630   7.642  -2.466  0.00  0.00    +0.024 A 
ATOM      4  C   UNL     1      -6.710   6.679  -1.463  0.00  0.00    +0.031 A 
ATOM      5  C   UNL     1      -7.499   6.891  -0.339  0.00  0.00    -0.019 A 
ATOM      6  C   UNL     1      -8.206   8.075  -0.226  0.00  0.00    +0.019 A 
ATOM      7  C   UNL     1      -7.616   5.881   0.759  0.00  0.00    +0.049 C 
ATOM      8  C   UNL     1      -8.943   5.162   0.706  0.00  0.00    -0.023 C 
ATOM      9  C   UNL     1      -8.792   3.906   1.047  0.00  0.00    -0.030 C 
ATOM     10  C   UNL     1      -7.342   3.616   1.382  0.00  0.00    +0.033 C 
ATOM     11  C   UNL     1      -6.569   4.755   0.652  0.00  0.00    +0.029 C 
ATOM     12  C   UNL     1      -6.406   4.331  -0.810  0.00  0.00    +0.105 C 
ATOM     13  N   UNL     1      -5.990   5.495  -1.599  0.00  0.00    -0.336 N 
ATOM     14  H   UNL     1      -5.231   5.441  -2.201  0.00  0.00    +0.147 HD
ENDROOT
BRANCH  12  15
ATOM     15  C   UNL     1      -5.357   3.253  -0.909  0.00  0.00    -0.026 A 
ATOM     16  C   UNL     1      -4.008   3.603  -0.881  0.00  0.00    +0.006 A 
ATOM     17  C   UNL     1      -3.036   2.655  -0.967  0.00  0.00    +0.009 A 
ATOM     18  C   UNL     1      -3.394   1.301  -1.088  0.00  0.00    -0.018 A 
ATOM     19  C   UNL     1      -2.418   0.294  -1.180  0.00  0.00    +0.008 A 
ATOM     20  C   UNL     1      -2.802  -1.007  -1.295  0.00  0.00    +0.001 A 
ATOM     21  C   UNL     1      -4.151  -1.357  -1.324  0.00  0.00    +0.001 A 
ATOM     22  C   UNL     1      -5.123  -0.408  -1.242  0.00  0.00    +0.008 A 
ATOM     23  C   UNL     1      -4.766   0.945  -1.116  0.00  0.00    -0.018 A 
ATOM     24  C   UNL     1      -5.741   1.953  -1.024  0.00  0.00    +0.014 A 
ENDBRANCH  12  15
BRANCH   1  26
ATOM     25  N   UNL     1      -8.810  11.237  -2.064  0.00  0.00    -0.313 N 
ATOM     26  C   UNL     1      -8.886  10.302  -1.097  0.00  0.00    +0.244 C 
ATOM     27  O   UNL     1      -9.578  10.496  -0.116  0.00  0.00    -0.270 OA
ATOM     28  H   UNL     1      -8.258  11.082  -2.847  0.00  0.00    +0.149 HD
BRANCH  25  29
ATOM     29  C   UNL     1      -9.563  12.487  -1.935  0.00  0.00    +0.086 C 
BRANCH  29  30
ATOM     30  C   UNL     1      -9.304  13.367  -3.159  0.00  0.00    -0.060 C 
BRANCH  30  31
ATOM     31  N   UNL     1     -10.086  14.614  -3.024  0.00  0.00    +0.380 N 
ATOM     32  H   UNL     1     -11.064  14.375  -2.825  0.00  0.00    -0.082 HD
BRANCH  31  34
ATOM     33  C   UNL     1      -8.087  15.782  -2.157  0.00  0.00    -0.017 C 
ATOM     34  C   UNL     1      -9.554  15.425  -1.909  0.00  0.00    -0.082 C 
ENDBRANCH  31  34
BRANCH  31  35
ATOM     35  C   UNL     1     -10.027  15.387  -4.283  0.00  0.00    -0.082 C 
ATOM     36  C   UNL     1     -11.115  16.462  -4.251  0.00  0.00    -0.017 C 
ENDBRANCH  31  35
ENDBRANCH  30  31
ENDBRANCH  29  30
ENDBRANCH  25  29
ENDBRANCH   1  26
TORSDOF 7
