REMARK  Name = ZINC63598051
REMARK  6 active torsions:
REMARK  status: ('A' for Active; 'I' for Inactive)
REMARK    1  A    between atoms: C_1  and  C_2
REMARK    2  A    between atoms: C_2  and  C_4
REMARK    3  A    between atoms: C_2  and  N_14
REMARK    4  A    between atoms: C_15  and  C_17
REMARK    5  A    between atoms: C_17  and  C_18
REMARK    6  A    between atoms: C_18  and  C_19
REMARK                            x       y       z     vdW  Elec       q    Type
REMARK                         _______ _______ _______ _____ _____    ______ ____
ROOT
ATOM      1  C   UNL     1       0.712  -1.094  -3.598  0.00  0.00    +0.103 C 
ENDROOT
BRANCH   1   3
ATOM      2  N   UNL     1       0.688  -0.476  -1.203  0.00  0.00    -0.312 N 
ATOM      3  C   UNL     1       0.006  -0.608  -2.358  0.00  0.00    +0.214 C 
ATOM      4  O   UNL     1      -1.175  -0.336  -2.400  0.00  0.00    -0.276 OA
ATOM      5  H   UNL     1       1.632  -0.695  -1.170  0.00  0.00    +0.149 HD
BRANCH   2   7
ATOM      6  C   UNL     1      -0.019   1.526   0.010  0.00  0.00    +0.028 C 
ATOM      7  C   UNL     1       0.002  -0.004   0.002  0.00  0.00    +0.076 C 
BRANCH   7   8
ATOM      8  C   UNL     1       0.742  -0.511   1.242  0.00  0.00    -0.010 C 
ATOM      9  C   UNL     1       2.178   0.019   1.231  0.00  0.00    +0.012 C 
ATOM     10  C   UNL     1       2.917  -0.488   2.470  0.00  0.00    -0.010 C 
ATOM     11  C   UNL     1       2.201   0.005   3.729  0.00  0.00    +0.007 C 
ATOM     12  C   UNL     1       0.766  -0.524   3.740  0.00  0.00    -0.010 C 
ATOM     13  C   UNL     1       0.026  -0.018   2.500  0.00  0.00    +0.012 C 
ATOM     14  C   UNL     1       0.787  -2.054   3.732  0.00  0.00    +0.007 C 
ATOM     15  C   UNL     1       1.503  -2.548   2.473  0.00  0.00    -0.010 C 
ATOM     16  C   UNL     1       2.938  -2.018   2.462  0.00  0.00    +0.007 C 
ATOM     17  C   UNL     1       0.763  -2.041   1.233  0.00  0.00    +0.012 C 
ENDBRANCH   7   8
ENDBRANCH   2   7
ENDBRANCH   1   3
BRANCH   1  18
ATOM     18  C   UNL     1      -0.282  -1.153  -4.761  0.00  0.00    +0.083 C 
BRANCH  18  19
ATOM     19  C   UNL     1       0.423  -1.639  -6.000  0.00  0.00    +0.124 C 
ATOM     20  N   UNL     1       1.700  -1.929  -5.915  0.00  0.00    -0.161 NA
ATOM     21  C   UNL     1       2.415  -2.362  -6.960  0.00  0.00    +0.271 C 
ATOM     22  O   UNL     1       3.598  -2.632  -6.846  0.00  0.00    -0.268 OA
ATOM     23  C   UNL     1       1.713  -2.504  -8.272  0.00  0.00    +0.071 C 
ATOM     24  C   UNL     1       2.297  -2.809  -9.487  0.00  0.00    -0.042 C 
ATOM     25  C   UNL     1       3.788  -2.696  -9.519  0.00  0.00    +0.033 C 
ATOM     26  C   UNL     1       4.209  -1.277  -9.921  0.00  0.00    +0.004 C 
ATOM     27  C   UNL     1       3.703  -1.030 -11.310  0.00  0.00    +0.000 C 
ATOM     28  C   UNL     1       2.206  -0.984 -11.473  0.00  0.00    +0.001 C 
ATOM     29  C   UNL     1       1.667  -2.350 -11.861  0.00  0.00    +0.019 C 
ATOM     30  C   UNL     1       1.291  -3.083 -10.556  0.00  0.00    +0.079 C 
ATOM     31  S   UNL     1      -0.288  -2.460  -9.886  0.00  0.00    -0.097 S 
ATOM     32  C   UNL     1       0.281  -2.163  -8.231  0.00  0.00    +0.111 C 
ATOM     33  N   UNL     1      -0.280  -1.755  -7.117  0.00  0.00    -0.227 NA
ENDBRANCH  18  19
ENDBRANCH   1  18
TORSDOF 5
