REMARK  Name = ZINC49319953
REMARK  3 active torsions:
REMARK  status: ('A' for Active; 'I' for Inactive)
REMARK    1  A    between atoms: C_1  and  C_2
REMARK    2  A    between atoms: N_11  and  C_12
REMARK    3  A    between atoms: C_12  and  N_13
REMARK                            x       y       z     vdW  Elec       q    Type
REMARK                         _______ _______ _______ _____ _____    ______ ____
ROOT
ATOM      1  C   UNL     1      -0.019   1.526   0.010  0.00  0.00    +0.029 C 
ATOM      2  C   UNL     1       0.002  -0.004   0.002  0.00  0.00    +0.086 C 
ATOM      3  C   UNL     1       0.723  -0.500  -1.248  0.00  0.00    -0.020 A 
ATOM      4  C   UNL     1       0.555   0.057  -2.514  0.00  0.00    +0.013 A 
ATOM      5  C   UNL     1       1.237  -0.445  -3.570  0.00  0.00    +0.046 A 
ATOM      6  S   UNL     1       2.175  -1.763  -2.811  0.00  0.00    -0.101 S 
ATOM      7  C   UNL     1       1.590  -1.547  -1.154  0.00  0.00    -0.004 A 
ATOM      8  C   UNL     1       1.935  -2.311   0.083  0.00  0.00    +0.058 C 
ATOM      9  C   UNL     1       0.896  -1.954   1.159  0.00  0.00    +0.092 C 
ATOM     10  N   UNL     1       0.719  -0.494   1.186  0.00  0.00    -0.277 NA
ENDROOT
BRANCH  10  11
ATOM     11  C   UNL     1       0.050  -0.064   2.422  0.00  0.00    +0.230 C 
BRANCH  11  12
ATOM     12  N   UNL     1       0.909  -0.360   3.571  0.00  0.00    -0.256 N 
ATOM     13  C   UNL     1       1.766   0.499   4.163  0.00  0.00    +0.125 A 
ATOM     14  C   UNL     1       2.367  -0.158   5.184  0.00  0.00    +0.055 A 
ATOM     15  C   UNL     1       1.860  -1.461   5.215  0.00  0.00    +0.149 A 
ATOM     16  N   UNL     1       0.982  -1.582   4.252  0.00  0.00    -0.177 NA
ATOM     17 BR   UNL     1       3.664   0.560   6.358  0.00  0.00    -0.047 Br
ENDBRANCH  11  12
ENDBRANCH  10  11
TORSDOF 2
