REMARK  Name = ZINC14532763
REMARK  13 active torsions:
REMARK  status: ('A' for Active; 'I' for Inactive)
REMARK    1  A    between atoms: C_1  and  C_2
REMARK    2  A    between atoms: C_2  and  C_3
REMARK    3  A    between atoms: C_2  and  C_4
REMARK    4  A    between atoms: C_2  and  N_5
REMARK    5  A    between atoms: N_5  and  S_6
REMARK    6  A    between atoms: S_6  and  C_9
REMARK    7  A    between atoms: C_11  and  C_22
REMARK    8  A    between atoms: C_13  and  N_15
REMARK    9  A    between atoms: N_15  and  C_16
REMARK   10  A    between atoms: C_16  and  C_17
REMARK   11  A    between atoms: N_24  and  C_25
REMARK   12  A    between atoms: C_25  and  C_26
REMARK   13  A    between atoms: C_32  and  N_66
REMARK                            x       y       z     vdW  Elec       q    Type
REMARK                         _______ _______ _______ _____ _____    ______ ____
ROOT
ATOM      1  C   UNL     1      -4.797   3.861   3.136  0.00  0.00    +0.108 A 
ATOM      2  C   UNL     1      -5.333   4.919   2.430  0.00  0.00    +0.041 A 
ATOM      3  C   UNL     1      -5.277   4.928   1.036  0.00  0.00    +0.040 A 
ATOM      4  C   UNL     1      -4.677   3.865   0.360  0.00  0.00    +0.036 A 
ATOM      5  C   UNL     1      -4.141   2.807   1.078  0.00  0.00    +0.030 A 
ATOM      6  C   UNL     1      -4.208   2.805   2.467  0.00  0.00    +0.051 A 
ENDROOT
BRANCH   3   7
ATOM      7  C   UNL     1      -5.850   6.061   0.277  0.00  0.00    +0.244 C 
ATOM      8  O   UNL     1      -6.372   6.986   0.868  0.00  0.00    -0.270 OA
ATOM      9  N   UNL     1      -5.793   6.067  -1.069  0.00  0.00    -0.311 N 
ATOM     10  H   UNL     1      -5.377   5.329  -1.541  0.00  0.00    +0.149 HD
BRANCH   9  11
ATOM     11  C   UNL     1      -6.361   7.189  -1.821  0.00  0.00    +0.106 C 
BRANCH  11  12
ATOM     12  C   UNL     1      -6.166   6.950  -3.319  0.00  0.00    -0.011 C 
ATOM     13  C   UNL     1      -6.864   8.061  -4.109  0.00  0.00    +0.001 C 
ATOM     14  C   UNL     1      -6.614   7.848  -5.604  0.00  0.00    -0.018 C 
ATOM     15  C   UNL     1      -5.106   7.830  -5.867  0.00  0.00    -0.079 C 
ATOM     16  C   UNL     1      -4.672   6.958  -3.648  0.00  0.00    -0.074 C 
ATOM     17  C   UNL     1      -3.061   6.614  -5.421  0.00  0.00    -0.096 C 
ATOM     18  N   UNL     1      -4.498   6.724  -5.097  0.00  0.00    +0.378 N 
ATOM     19  H   UNL     1      -4.965   5.846  -5.351  0.00  0.00    -0.082 HD
ENDBRANCH  11  12
ENDBRANCH   9  11
ENDBRANCH   3   7
BRANCH   1  20
ATOM     20  S   UNL     1      -4.870   3.853   4.897  0.00  0.00    +0.059 S 
ATOM     21  O   UNL     1      -3.644   3.298   5.352  0.00  0.00    -0.153 OA
ATOM     22  O   UNL     1      -5.315   5.144   5.290  0.00  0.00    -0.153 OA
BRANCH  20  23
ATOM     23  N   UNL     1      -6.062   2.788   5.332  0.00  0.00    -0.185 NA
ATOM     24  H   UNL     1      -5.834   1.970   5.799  0.00  0.00    +0.149 HD
BRANCH  23  26
ATOM     25  C   UNL     1      -7.609   3.270   3.500  0.00  0.00    +0.029 C 
ATOM     26  C   UNL     1      -7.461   3.083   5.012  0.00  0.00    +0.032 C 
ATOM     27  C   UNL     1      -8.345   1.922   5.471  0.00  0.00    +0.029 C 
ATOM     28  C   UNL     1      -7.889   4.365   5.729  0.00  0.00    +0.029 C 
ENDBRANCH  23  26
ENDBRANCH  20  23
ENDBRANCH   1  20
BRANCH   5  29
ATOM     29  N   UNL     1      -3.540   1.740   0.406  0.00  0.00    -0.340 N 
ATOM     30  H   UNL     1      -3.165   1.000   0.908  0.00  0.00    +0.146 HD
BRANCH  29  31
ATOM     31  C   UNL     1      -3.475   1.739  -1.058  0.00  0.00    +0.137 C 
BRANCH  31  32
ATOM     32  C   UNL     1      -2.783   0.486  -1.529  0.00  0.00    -0.023 A 
ATOM     33  C   UNL     1      -3.510  -0.659  -1.795  0.00  0.00    +0.013 A 
ATOM     34  C   UNL     1      -2.858  -1.767  -2.223  0.00  0.00    +0.045 A 
ATOM     35  S   UNL     1      -1.163  -1.206  -2.262  0.00  0.00    -0.105 S 
ATOM     36  C   UNL     1      -1.440   0.467  -1.705  0.00  0.00    +0.050 A 
ENDBRANCH  31  32
ENDBRANCH  29  31
ENDBRANCH   5  29
TORSDOF 9
