REMARK  Name = ZINC12714902
REMARK  12 active torsions:
REMARK  status: ('A' for Active; 'I' for Inactive)
REMARK    1  A    between atoms: C_1  and  C_2
REMARK    2  A    between atoms: C_5  and  C_38
REMARK    3  A    between atoms: C_6  and  N_8
REMARK    4  A    between atoms: N_8  and  C_9
REMARK    5  A    between atoms: C_9  and  C_11
REMARK    6  A    between atoms: C_9  and  C_17
REMARK    7  A    between atoms: C_14  and  C_16
REMARK    8  A    between atoms: N_19  and  C_20
REMARK    9  A    between atoms: C_20  and  C_21
REMARK   10  A    between atoms: C_27  and  C_29
REMARK   11  A    between atoms: C_30  and  N_37
REMARK   12  A    between atoms: C_31  and  C_34
REMARK                            x       y       z     vdW  Elec       q    Type
REMARK                         _______ _______ _______ _____ _____    ______ ____
ROOT
ATOM      1  N   UNL     1      -0.116  -2.861   1.957  0.00  0.00    -0.248 N 
ATOM      2  C   UNL     1       0.892  -3.096   2.820  0.00  0.00    +0.262 C 
ATOM      3  O   UNL     1       0.648  -3.394   3.975  0.00  0.00    -0.269 OA
ENDROOT
BRANCH   1   9
ATOM      4  C   UNL     1       0.714   0.597  -1.436  0.00  0.00    +0.044 C 
ATOM      5  C   UNL     1       0.572  -0.851  -1.042  0.00  0.00    -0.049 A 
ATOM      6  C   UNL     1       0.718  -1.843  -1.994  0.00  0.00    +0.004 A 
ATOM      7  C   UNL     1       0.588  -3.172  -1.637  0.00  0.00    +0.005 A 
ATOM      8  C   UNL     1       0.311  -3.514  -0.328  0.00  0.00    -0.029 A 
ATOM      9  C   UNL     1       0.164  -2.520   0.631  0.00  0.00    +0.041 A 
ATOM     10  C   UNL     1       0.301  -1.185   0.270  0.00  0.00    +0.027 A 
ATOM     11  C   UNL     1       0.169  -4.963   0.060  0.00  0.00    +0.045 C 
ENDBRANCH   1   9
BRANCH   2  12
ATOM     12  C   UNL     1       2.281  -2.994   2.369  0.00  0.00    +0.116 A 
ATOM     13  C   UNL     1       3.461  -3.198   3.085  0.00  0.00    +0.076 A 
ATOM     14  C   UNL     1       4.612  -3.011   2.323  0.00  0.00    +0.155 A 
ATOM     15  N   UNL     1       4.503  -2.674   1.055  0.00  0.00    -0.203 NA
ATOM     16  S   UNL     1       2.916  -2.582   0.756  0.00  0.00    +0.019 S 
BRANCH  14  17
ATOM     17  C   UNL     1       5.943  -3.188   2.932  0.00  0.00    +0.262 C 
ATOM     18  O   UNL     1       6.040  -3.590   4.076  0.00  0.00    -0.269 OA
ATOM     19  N   UNL     1       7.053  -2.906   2.221  0.00  0.00    -0.324 N 
ATOM     20  H   UNL     1       6.976  -2.586   1.309  0.00  0.00    +0.145 HD
ATOM     21  H   UNL     1       7.928  -3.023   2.622  0.00  0.00    +0.145 HD
ENDBRANCH  14  17
BRANCH  13  22
ATOM     22  N   UNL     1       3.485  -3.554   4.427  0.00  0.00    -0.355 N 
ATOM     23  H   UNL     1       2.658  -3.757   4.890  0.00  0.00    +0.142 HD
ATOM     24  H   UNL     1       4.330  -3.599   4.902  0.00  0.00    +0.142 HD
ENDBRANCH  13  22
ENDBRANCH   2  12
BRANCH   1  25
ATOM     25  C   UNL     1      -1.506  -2.964   2.409  0.00  0.00    +0.233 C 
BRANCH  25  26
ATOM     26  C   UNL     1      -2.265  -3.890   1.493  0.00  0.00    +0.135 A 
ATOM     27  C   UNL     1      -3.050  -4.911   1.881  0.00  0.00    +0.047 A 
ATOM     28  C   UNL     1      -3.560  -5.506   0.705  0.00  0.00    +0.045 A 
ATOM     29  C   UNL     1      -3.055  -4.814  -0.332  0.00  0.00    +0.102 A 
ATOM     30  O   UNL     1      -2.276  -3.832   0.152  0.00  0.00    -0.462 OA
ATOM     31  C   UNL     1      -3.323  -5.088  -1.790  0.00  0.00    +0.086 C 
ENDBRANCH  25  26
BRANCH  25  32
ATOM     32  C   UNL     1      -2.144  -1.599   2.385  0.00  0.00    +0.242 C 
ATOM     33  O   UNL     1      -1.502  -0.636   2.026  0.00  0.00    -0.273 OA
ATOM     34  N   UNL     1      -3.429  -1.450   2.762  0.00  0.00    -0.311 N 
ATOM     35  H   UNL     1      -3.944  -2.220   3.050  0.00  0.00    +0.149 HD
BRANCH  34  36
ATOM     36  C   UNL     1      -4.050  -0.123   2.739  0.00  0.00    +0.135 C 
BRANCH  36  37
ATOM     37  C   UNL     1      -5.502  -0.230   3.211  0.00  0.00    +0.135 C 
ATOM     38  C   UNL     1      -6.199   1.140   3.075  0.00  0.00    +0.035 C 
ATOM     39  C   UNL     1      -7.071   1.195   4.359  0.00  0.00    +0.031 C 
ATOM     40  C   UNL     1      -6.164   0.441   5.363  0.00  0.00    +0.160 C 
ATOM     41  O   UNL     1      -5.537  -0.600   4.594  0.00  0.00    -0.375 OA
ENDBRANCH  36  37
ENDBRANCH  34  36
ENDBRANCH  25  32
ENDBRANCH   1  25
TORSDOF 9
