REMARK  Name = ZINC13008200
REMARK  7 active torsions:
REMARK  status: ('A' for Active; 'I' for Inactive)
REMARK    1  A    between atoms: C_1  and  C_2
REMARK    2  A    between atoms: C_15  and  C_17
REMARK    3  A    between atoms: C_17  and  N_55
REMARK    4  A    between atoms: C_18  and  N_55
REMARK    5  A    between atoms: C_19  and  C_20
REMARK    6  A    between atoms: C_19  and  N_55
REMARK    7  A    between atoms: C_29  and  O_30
REMARK                            x       y       z     vdW  Elec       q    Type
REMARK                         _______ _______ _______ _____ _____    ______ ____
ROOT
ATOM      1  C   UNL     1       4.299   0.155  -1.662  0.00  0.00    +0.019 C 
ENDROOT
BRANCH   1  15
ATOM      2  C   UNL     1       1.387   3.526  -0.394  0.00  0.00    +0.029 C 
ATOM      3  C   UNL     1       1.411   2.047  -0.000  0.00  0.00    +0.087 C 
ATOM      4  C   UNL     1      -0.018   1.502   0.010  0.00  0.00    +0.118 C 
ATOM      5  C   UNL     1       0.002  -0.004   0.002  0.00  0.00    +0.219 C 
ATOM      6  O   UNL     1      -0.246  -0.615   1.020  0.00  0.00    -0.275 OA
ATOM      7  N   UNL     1       0.295  -0.680  -1.131  0.00  0.00    -0.284 N 
ATOM      8  C   UNL     1       0.671   0.007  -2.292  0.00  0.00    +0.055 A 
ATOM      9  C   UNL     1       0.077  -0.277  -3.511  0.00  0.00    +0.025 A 
ATOM     10  C   UNL     1       0.485   0.397  -4.647  0.00  0.00    +0.002 A 
ATOM     11  C   UNL     1       1.484   1.351  -4.570  0.00  0.00    +0.002 A 
ATOM     12  C   UNL     1       2.074   1.647  -3.355  0.00  0.00    +0.025 A 
ATOM     13  C   UNL     1       1.662   0.985  -2.210  0.00  0.00    +0.058 A 
ATOM     14  N   UNL     1       2.220   1.300  -0.964  0.00  0.00    -0.268 N 
ATOM     15  C   UNL     1       3.478   0.924  -0.659  0.00  0.00    +0.204 C 
ATOM     16  O   UNL     1       3.949   1.204   0.423  0.00  0.00    -0.277 OA
ATOM     17  H   UNL     1       0.244  -1.649  -1.140  0.00  0.00    +0.155 HD
ENDBRANCH   1  15
BRANCH   1  19
ATOM     18  C   UNL     1       6.388   1.103  -0.889  0.00  0.00    -0.095 C 
ATOM     19  N   UNL     1       5.618  -0.146  -1.068  0.00  0.00    +0.386 N 
ATOM     20  H   UNL     1       5.479  -0.586  -0.151  0.00  0.00    -0.081 HD
BRANCH  19  21
ATOM     21  C   UNL     1       6.364  -1.078  -1.940  0.00  0.00    -0.038 C 
BRANCH  21  22
ATOM     22  C   UNL     1       7.601  -1.539  -1.213  0.00  0.00    -0.015 A 
ATOM     23  C   UNL     1       7.554  -2.677  -0.391  0.00  0.00    -0.013 A 
ATOM     24  C   UNL     1       6.365  -3.409  -0.226  0.00  0.00    +0.009 A 
ATOM     25  C   UNL     1       6.357  -4.508   0.578  0.00  0.00    +0.001 A 
ATOM     26  C   UNL     1       7.511  -4.919   1.242  0.00  0.00    +0.001 A 
ATOM     27  C   UNL     1       8.680  -4.235   1.107  0.00  0.00    +0.008 A 
ATOM     28  C   UNL     1       8.728  -3.096   0.284  0.00  0.00    -0.017 A 
ATOM     29  C   UNL     1       9.918  -2.366   0.120  0.00  0.00    +0.012 A 
ATOM     30  C   UNL     1       9.930  -1.268  -0.682  0.00  0.00    +0.046 A 
ATOM     31  C   UNL     1       8.775  -0.856  -1.354  0.00  0.00    +0.119 A 
BRANCH  31  32
ATOM     32  O   UNL     1       8.820   0.242  -2.154  0.00  0.00    -0.507 OA
ATOM     33  H   UNL     1       8.619   1.070  -1.697  0.00  0.00    +0.292 HD
ENDBRANCH  31  32
ENDBRANCH  21  22
ENDBRANCH  19  21
ENDBRANCH   1  19
TORSDOF 5
