REMARK  Name = ZINC43289112
REMARK  8 active torsions:
REMARK  status: ('A' for Active; 'I' for Inactive)
REMARK    1  A    between atoms: C_1  and  C_2
REMARK    2  A    between atoms: C_2  and  C_3
REMARK    3  A    between atoms: C_3  and  C_5
REMARK    4  A    between atoms: C_3  and  N_23
REMARK    5  A    between atoms: C_5  and  C_7
REMARK    6  A    between atoms: C_5  and  O_13
REMARK    7  A    between atoms: O_13  and  C_14
REMARK    8  A    between atoms: C_20  and  C_22
REMARK                            x       y       z     vdW  Elec       q    Type
REMARK                         _______ _______ _______ _____ _____    ______ ____
ROOT
ATOM      1  C   UNL     1       1.191  -2.198  -0.957  0.00  0.00    +0.141 C 
ENDROOT
BRANCH   1   2
ATOM      2  C   UNL     1       1.995  -3.096  -0.052  0.00  0.00    +0.018 A 
ATOM      3  C   UNL     1       1.601  -3.757   1.063  0.00  0.00    +0.029 A 
ATOM      4  C   UNL     1       2.522  -4.533   1.743  0.00  0.00    +0.025 A 
ATOM      5  C   UNL     1       3.791  -4.610   1.273  0.00  0.00    +0.060 A 
ATOM      6  S   UNL     1       3.712  -3.570  -0.176  0.00  0.00    -0.098 S 
ATOM      7 BR   UNL     1       2.018  -5.474   3.304  0.00  0.00    -0.050 Br
ENDBRANCH   1   2
BRANCH   1   8
ATOM      8  C   UNL     1       1.488  -0.735  -0.618  0.00  0.00    -0.041 C 
BRANCH   8   9
ATOM      9  N   UNL     1       0.695   0.140  -1.492  0.00  0.00    +0.382 N 
ATOM     10  H   UNL     1       0.881   1.104  -1.261  0.00  0.00    -0.090 HD
ATOM     11  H   UNL     1       0.945  -0.030  -2.455  0.00  0.00    -0.090 HD
ATOM     12  H   UNL     1      -0.287  -0.054  -1.361  0.00  0.00    -0.090 HD
ENDBRANCH   8   9
BRANCH   8  14
ATOM     13  C   UNL     1       1.532   0.960   1.216  0.00  0.00    +0.002 C 
ATOM     14  C   UNL     1       1.121  -0.465   0.842  0.00  0.00    -0.017 C 
ENDBRANCH   8  14
ENDBRANCH   1   8
BRANCH   1  15
ATOM     15  O   UNL     1       1.544  -2.453  -2.318  0.00  0.00    -0.370 OA
BRANCH  15  16
ATOM     16  C   UNL     1       0.424  -2.573  -3.196  0.00  0.00    +0.122 C 
ATOM     17  C   UNL     1      -0.126  -4.000  -3.130  0.00  0.00    +0.032 C 
ATOM     18  C   UNL     1       0.964  -4.986  -3.555  0.00  0.00    +0.003 C 
ATOM     19  C   UNL     1       1.403  -4.675  -4.987  0.00  0.00    +0.000 C 
ATOM     20  C   UNL     1       1.952  -3.248  -5.053  0.00  0.00    +0.006 C 
ATOM     21  C   UNL     1       0.863  -2.262  -4.628  0.00  0.00    +0.015 C 
ATOM     22  C   UNL     1       1.412  -0.835  -4.695  0.00  0.00    +0.010 C 
ENDBRANCH  15  16
ENDBRANCH   1  15
TORSDOF 6
