REMARK  Name = ZINC13068943
REMARK  5 active torsions:
REMARK  status: ('A' for Active; 'I' for Inactive)
REMARK    1  A    between atoms: N_9  and  S_10
REMARK    2  A    between atoms: S_10  and  C_13
REMARK    3  A    between atoms: C_17  and  C_19
REMARK    4  A    between atoms: N_21  and  C_22
REMARK    5  A    between atoms: N_26  and  C_27
REMARK                            x       y       z     vdW  Elec       q    Type
REMARK                         _______ _______ _______ _____ _____    ______ ____
ROOT
ATOM      1  C   UNL     1      -6.190   5.725   1.936  0.00  0.00    +0.109 A 
ATOM      2  C   UNL     1      -5.732   5.410   3.203  0.00  0.00    +0.029 A 
ATOM      3  C   UNL     1      -4.597   4.636   3.363  0.00  0.00    +0.003 A 
ATOM      4  C   UNL     1      -3.913   4.173   2.257  0.00  0.00    +0.013 A 
ATOM      5  C   UNL     1      -4.370   4.487   0.976  0.00  0.00    +0.039 A 
ATOM      6  C   UNL     1      -5.513   5.273   0.823  0.00  0.00    +0.042 A 
ENDROOT
BRANCH   5   7
ATOM      7  C   UNL     1      -3.642   3.994  -0.212  0.00  0.00    +0.249 C 
ATOM      8  O   UNL     1      -4.042   4.269  -1.327  0.00  0.00    -0.270 OA
ATOM      9  N   UNL     1      -2.536   3.240  -0.060  0.00  0.00    -0.267 N 
ATOM     10  H   UNL     1      -2.216   3.021   0.829  0.00  0.00    +0.157 HD
BRANCH   9  11
ATOM     11  C   UNL     1      -1.850   2.776  -1.181  0.00  0.00    +0.124 A 
ATOM     12  C   UNL     1      -2.180   3.008  -2.481  0.00  0.00    +0.065 A 
ATOM     13  C   UNL     1      -1.239   2.360  -3.285  0.00  0.00    +0.136 A 
ATOM     14  N   UNL     1      -0.371   1.764  -2.509  0.00  0.00    -0.178 NA
ATOM     15  N   UNL     1      -0.727   2.011  -1.176  0.00  0.00    -0.247 N 
BRANCH  15  16
ATOM     16  C   UNL     1      -0.019   1.526   0.010  0.00  0.00    +0.109 C 
ATOM     17  C   UNL     1       1.417   2.055  -0.000  0.00  0.00    +0.027 C 
ATOM     18  C   UNL     1       2.157   1.548   1.239  0.00  0.00    +0.002 C 
ATOM     19  C   UNL     1       2.178   0.019   1.231  0.00  0.00    +0.000 C 
ATOM     20  C   UNL     1       0.742  -0.511   1.242  0.00  0.00    +0.002 C 
ATOM     21  C   UNL     1       0.002  -0.004   0.002  0.00  0.00    +0.027 C 
ENDBRANCH  15  16
ENDBRANCH   9  11
ENDBRANCH   5   7
BRANCH   1  22
ATOM     22  S   UNL     1      -7.637   6.712   1.744  0.00  0.00    +0.075 S 
ATOM     23  O   UNL     1      -8.168   6.410   0.461  0.00  0.00    -0.150 OA
ATOM     24  O   UNL     1      -8.394   6.559   2.937  0.00  0.00    -0.150 OA
BRANCH  22  33
ATOM     25  C   UNL     1      -6.646  11.085   4.742  0.00  0.00    +0.000 A 
ATOM     26  C   UNL     1      -7.074   9.822   5.110  0.00  0.00    +0.002 A 
ATOM     27  C   UNL     1      -7.262   8.848   4.154  0.00  0.00    +0.025 A 
ATOM     28  C   UNL     1      -7.021   9.127   2.807  0.00  0.00    +0.054 A 
ATOM     29  C   UNL     1      -6.590  10.395   2.449  0.00  0.00    -0.023 A 
ATOM     30  C   UNL     1      -6.398  11.367   3.412  0.00  0.00    +0.005 A 
ATOM     31  C   UNL     1      -6.411  10.437   0.948  0.00  0.00    +0.058 C 
ATOM     32  C   UNL     1      -6.790   9.024   0.475  0.00  0.00    +0.136 C 
ATOM     33  N   UNL     1      -7.148   8.294   1.694  0.00  0.00    -0.202 N 
ENDBRANCH  22  33
ENDBRANCH   1  22
TORSDOF 5
