REMARK  Name = ZINC66392262
REMARK  5 active torsions:
REMARK  status: ('A' for Active; 'I' for Inactive)
REMARK    1  A    between atoms: C_3  and  C_10
REMARK    2  A    between atoms: C_5  and  N_7
REMARK    3  A    between atoms: N_12  and  C_13
REMARK    4  A    between atoms: C_13  and  C_15
REMARK    5  A    between atoms: C_13  and  C_17
REMARK                            x       y       z     vdW  Elec       q    Type
REMARK                         _______ _______ _______ _____ _____    ______ ____
ROOT
ATOM      1  C   UNL     1       3.657   2.160  -0.022  0.00  0.00    +0.245 C 
ATOM      2  O   UNL     1       4.716   1.564  -0.035  0.00  0.00    -0.270 OA
ATOM      3  N   UNL     1       3.642   3.508  -0.015  0.00  0.00    -0.292 N 
ATOM      4  H   UNL     1       2.797   3.984  -0.004  0.00  0.00    +0.151 HD
ENDROOT
BRANCH   1   7
ATOM      5  C   UNL     1      -0.017   1.379   0.010  0.00  0.00    +0.003 A 
ATOM      6  C   UNL     1       1.167   2.088   0.002  0.00  0.00    +0.013 A 
ATOM      7  C   UNL     1       2.385   1.407  -0.013  0.00  0.00    +0.039 A 
ATOM      8  C   UNL     1       2.397   0.011  -0.021  0.00  0.00    +0.045 A 
ATOM      9  C   UNL     1       1.206  -0.686  -0.013  0.00  0.00    +0.127 A 
ATOM     10  C   UNL     1       0.002  -0.004   0.002  0.00  0.00    +0.033 A 
BRANCH   9  11
ATOM     11  N   UNL     1       1.217  -2.166  -0.021  0.00  0.00    +0.056 N 
ATOM     12  O   UNL     1       2.268  -2.763  -0.034  0.00  0.00    -0.126 OA
ATOM     13  O   UNL     1       0.174  -2.778  -0.014  0.00  0.00    -0.126 OA
ENDBRANCH   9  11
ENDBRANCH   1   7
BRANCH   3  14
ATOM     14  C   UNL     1       4.903   4.254  -0.023  0.00  0.00    +0.208 C 
BRANCH  14  15
ATOM     15  C   UNL     1       4.673   5.621  -0.615  0.00  0.00    +0.006 A 
ATOM     16  C   UNL     1       3.416   6.194  -0.564  0.00  0.00    +0.008 A 
ATOM     17  C   UNL     1       3.204   7.448  -1.107  0.00  0.00    +0.002 A 
ATOM     18  C   UNL     1       4.249   8.130  -1.700  0.00  0.00    +0.021 A 
ATOM     19  C   UNL     1       5.508   7.559  -1.752  0.00  0.00    +0.060 A 
ATOM     20  C   UNL     1       5.721   6.305  -1.203  0.00  0.00    +0.065 A 
ATOM     21 CL   UNL     1       7.302   5.590  -1.260  0.00  0.00    -0.082 Cl
ATOM     22 CL   UNL     1       6.821   8.415  -2.497  0.00  0.00    -0.082 Cl
ENDBRANCH  14  15
BRANCH  14  23
ATOM     23  C   UNL     1       5.400   4.393   1.355  0.00  0.00    +0.090 C 
ATOM     24  N   UNL     1       5.784   4.501   2.419  0.00  0.00    -0.194 NA
ENDBRANCH  14  23
ENDBRANCH   3  14
TORSDOF 5
