REMARK  Name = ZINC38532143
REMARK  10 active torsions:
REMARK  status: ('A' for Active; 'I' for Inactive)
REMARK    1  A    between atoms: C_1  and  C_2
REMARK    2  A    between atoms: C_6  and  C_7
REMARK    3  A    between atoms: C_7  and  C_9
REMARK    4  A    between atoms: C_7  and  C_23
REMARK    5  A    between atoms: C_18  and  O_19
REMARK    6  A    between atoms: O_19  and  C_20
REMARK    7  A    between atoms: C_20  and  C_21
REMARK    8  A    between atoms: C_20  and  C_22
REMARK    9  A    between atoms: C_24  and  C_30
REMARK   10  A    between atoms: C_27  and  O_29
REMARK                            x       y       z     vdW  Elec       q    Type
REMARK                         _______ _______ _______ _____ _____    ______ ____
ROOT
ATOM      1  C   UNL     1      -0.176  -0.342   2.113  0.00  0.00    +0.092 C 
ENDROOT
BRANCH   1   2
ATOM      2  C   UNL     1      -1.389  -0.903   2.809  0.00  0.00    +0.014 A 
ATOM      3  C   UNL     1      -2.432  -0.051   3.207  0.00  0.00    -0.010 A 
ATOM      4  C   UNL     1      -2.373   1.334   2.969  0.00  0.00    +0.009 A 
ATOM      5  C   UNL     1      -3.403   2.130   3.368  0.00  0.00    +0.001 A 
ATOM      6  C   UNL     1      -4.517   1.593   4.011  0.00  0.00    +0.001 A 
ATOM      7  C   UNL     1      -4.608   0.258   4.258  0.00  0.00    +0.008 A 
ATOM      8  C   UNL     1      -3.566  -0.596   3.861  0.00  0.00    -0.017 A 
ATOM      9  C   UNL     1      -3.626  -1.980   4.099  0.00  0.00    +0.012 A 
ATOM     10  C   UNL     1      -2.600  -2.779   3.701  0.00  0.00    +0.046 A 
ATOM     11  C   UNL     1      -1.483  -2.244   3.052  0.00  0.00    +0.126 A 
BRANCH  11  12
ATOM     12  O   UNL     1      -0.476  -3.068   2.661  0.00  0.00    -0.489 OA
BRANCH  12  13
ATOM     13  C   UNL     1      -0.682  -4.471   2.834  0.00  0.00    +0.167 C 
ATOM     14  C   UNL     1       0.090  -5.237   1.758  0.00  0.00    +0.051 C 
ATOM     15  C   UNL     1      -0.182  -4.894   4.217  0.00  0.00    +0.051 C 
ENDBRANCH  12  13
ENDBRANCH  11  12
ENDBRANCH   1   2
BRANCH   1  21
ATOM     16  C   UNL     1       2.461  -0.422   0.458  0.00  0.00    +0.065 C 
ATOM     17  C   UNL     1       1.161  -1.086   0.080  0.00  0.00    +0.039 A 
ATOM     18  N   UNL     1       0.942  -1.830  -1.044  0.00  0.00    -0.301 N 
ATOM     19  N   UNL     1      -0.389  -2.269  -1.026  0.00  0.00    -0.266 N 
ATOM     20  C   UNL     1      -0.961  -1.792   0.098  0.00  0.00    +0.269 A 
ATOM     21  C   UNL     1       0.020  -1.050   0.797  0.00  0.00    +0.050 A 
ATOM     22  O   UNL     1      -2.113  -1.971   0.450  0.00  0.00    -0.266 OA
ATOM     23  H   UNL     1       1.595  -2.022  -1.736  0.00  0.00    +0.186 HD
ATOM     24  H   UNL     1      -0.820  -2.816  -1.700  0.00  0.00    +0.190 HD
ENDBRANCH   1  21
BRANCH   1  25
ATOM     25  C   UNL     1       1.040  -0.545   2.979  0.00  0.00    +0.017 C 
ATOM     26  C   UNL     1       1.869   0.382   3.463  0.00  0.00    +0.065 C 
ATOM     27  N   UNL     1       2.848  -0.188   4.202  0.00  0.00    -0.156 NA
ATOM     28  N   UNL     1       2.781  -1.417   4.279  0.00  0.00    -0.151 NA
ATOM     29  C   UNL     1       1.602  -1.852   3.511  0.00  0.00    +0.284 C 
ATOM     30  C   UNL     1       1.734   1.862   3.219  0.00  0.00    +0.067 C 
BRANCH  29  31
ATOM     31  O   UNL     1       1.991  -2.709   2.436  0.00  0.00    -0.366 OA
ATOM     32  H   UNL     1       2.357  -3.558   2.721  0.00  0.00    +0.212 HD
ENDBRANCH  29  31
ENDBRANCH   1  25
TORSDOF 6
