REMARK  Name = ZINC12949397
REMARK  16 active torsions:
REMARK  status: ('A' for Active; 'I' for Inactive)
REMARK    1  A    between atoms: C_1  and  C_2
REMARK    2  A    between atoms: C_3  and  N_15
REMARK    3  A    between atoms: N_6  and  C_9
REMARK    4  A    between atoms: N_7  and  C_8
REMARK    5  A    between atoms: C_16  and  C_18
REMARK    6  A    between atoms: C_18  and  C_20
REMARK    7  A    between atoms: C_18  and  O_21
REMARK    8  A    between atoms: O_21  and  C_22
REMARK    9  A    between atoms: C_22  and  C_24
REMARK   10  A    between atoms: C_24  and  C_26
REMARK   11  A    between atoms: C_24  and  N_29
REMARK   12  A    between atoms: C_26  and  C_27
REMARK   13  A    between atoms: C_26  and  C_28
REMARK   14  A    between atoms: C_30  and  O_32
REMARK   15  A    between atoms: O_32  and  C_33
REMARK   16  A    between atoms: C_33  and  C_34
REMARK                            x       y       z     vdW  Elec       q    Type
REMARK                         _______ _______ _______ _____ _____    ______ ____
ROOT
ATOM      1  C   UNL     1      -4.015  -0.265  -0.312  0.00  0.00    +0.259 C 
ATOM      2  C   UNL     1      -4.569  -0.177   1.111  0.00  0.00    +0.062 C 
ENDROOT
BRANCH   1   4
ATOM      3  N   UNL     1      -2.469   1.656  -0.111  0.00  0.00    -0.277 N 
ATOM      4  C   UNL     1      -2.636   0.340  -0.353  0.00  0.00    +0.258 C 
ATOM      5  O   UNL     1      -1.675  -0.356  -0.604  0.00  0.00    -0.271 OA
ATOM      6  H   UNL     1      -3.243   2.227   0.018  0.00  0.00    +0.155 HD
BRANCH   3   9
ATOM      7  C   UNL     1      -1.447   3.954  -1.868  0.00  0.00    +0.067 C 
ATOM      8  C   UNL     1      -0.687   3.212  -0.800  0.00  0.00    +0.059 A 
ATOM      9  C   UNL     1      -1.172   2.201  -0.044  0.00  0.00    +0.121 A 
ATOM     10  C   UNL     1      -0.099   1.782   0.859  0.00  0.00    +0.293 A 
ATOM     11  O   UNL     1      -0.159   0.897   1.694  0.00  0.00    -0.264 OA
ATOM     12  N   UNL     1       0.970   2.558   0.587  0.00  0.00    -0.216 N 
ATOM     13  N   UNL     1       0.614   3.443  -0.437  0.00  0.00    -0.282 N 
ATOM     14  C   UNL     1       1.492   4.456  -1.028  0.00  0.00    +0.171 C 
BRANCH  12  15
ATOM     15  C   UNL     1       2.216   2.490   1.217  0.00  0.00    +0.067 A 
ATOM     16  C   UNL     1       3.380   2.469   0.458  0.00  0.00    +0.028 A 
ATOM     17  C   UNL     1       4.609   2.407   1.083  0.00  0.00    +0.002 A 
ATOM     18  C   UNL     1       4.683   2.354   2.463  0.00  0.00    +0.000 A 
ATOM     19  C   UNL     1       3.526   2.370   3.221  0.00  0.00    +0.002 A 
ATOM     20  C   UNL     1       2.294   2.438   2.602  0.00  0.00    +0.028 A 
ENDBRANCH  12  15
ENDBRANCH   3   9
ENDBRANCH   1   4
BRANCH   1  21
ATOM     21  O   UNL     1      -3.946  -1.656  -0.720  0.00  0.00    -0.451 OA
BRANCH  21  22
ATOM     22  C   UNL     1      -5.028  -2.168  -1.328  0.00  0.00    +0.329 C 
ATOM     23  O   UNL     1      -6.001  -1.476  -1.512  0.00  0.00    -0.249 OA
BRANCH  22  24
ATOM     24  C   UNL     1      -5.029  -3.606  -1.779  0.00  0.00    +0.187 C 
BRANCH  24  25
ATOM     25  N   UNL     1      -6.315  -3.919  -2.408  0.00  0.00    -0.268 N 
ATOM     26  C   UNL     1      -6.759  -5.191  -2.435  0.00  0.00    +0.401 C 
ATOM     27  O   UNL     1      -6.094  -6.078  -1.938  0.00  0.00    -0.226 OA
ATOM     28  H   UNL     1      -6.846  -3.211  -2.805  0.00  0.00    +0.153 HD
BRANCH  26  29
ATOM     29  O   UNL     1      -7.941  -5.479  -3.013  0.00  0.00    -0.446 OA
BRANCH  29  30
ATOM     30  C   UNL     1      -8.357  -6.870  -3.006  0.00  0.00    +0.269 C 
BRANCH  30  31
ATOM     31  C   UNL     1      -9.693  -6.999  -3.692  0.00  0.00    -0.010 A 
ATOM     32  C   UNL     1     -10.859  -6.892  -2.958  0.00  0.00    +0.007 A 
ATOM     33  C   UNL     1     -12.085  -7.005  -3.588  0.00  0.00    +0.000 A 
ATOM     34  C   UNL     1     -12.143  -7.235  -4.950  0.00  0.00    +0.000 A 
ATOM     35  C   UNL     1     -10.976  -7.348  -5.682  0.00  0.00    +0.000 A 
ATOM     36  C   UNL     1      -9.751  -7.229  -5.053  0.00  0.00    +0.007 A 
ENDBRANCH  30  31
ENDBRANCH  29  30
ENDBRANCH  26  29
ENDBRANCH  24  25
BRANCH  24  37
ATOM     37  C   UNL     1      -3.901  -3.824  -2.789  0.00  0.00    +0.014 C 
ATOM     38  C   UNL     1      -2.558  -3.497  -2.132  0.00  0.00    +0.009 C 
ATOM     39  C   UNL     1      -3.902  -5.284  -3.247  0.00  0.00    +0.009 C 
ENDBRANCH  24  37
ENDBRANCH  22  24
ENDBRANCH  21  22
ENDBRANCH   1  21
TORSDOF 11
