REMARK  Name = ZINC05005031
REMARK  5 active torsions:
REMARK  status: ('A' for Active; 'I' for Inactive)
REMARK    1  A    between atoms: C_1  and  C_2
REMARK    2  A    between atoms: C_2  and  N_3
REMARK    3  A    between atoms: N_3  and  C_4
REMARK    4  A    between atoms: N_3  and  C_6
REMARK    5  A    between atoms: C_4  and  C_5
REMARK                            x       y       z     vdW  Elec       q    Type
REMARK                         _______ _______ _______ _____ _____    ______ ____
ROOT
ATOM      1  C   UNL     1      -1.268   3.401   0.032  0.00  0.00    +0.033 A 
ATOM      2  C   UNL     1      -0.085   4.136   0.024  0.00  0.00    +0.024 A 
ATOM      3  C   UNL     1       1.129   3.487   0.010  0.00  0.00    +0.015 A 
ATOM      4  C   UNL     1       1.172   2.092   0.002  0.00  0.00    +0.044 A 
ATOM      5  C   UNL     1      -0.016   1.348   0.009  0.00  0.00    +0.143 A 
ATOM      6  C   UNL     1      -1.234   2.015   0.019  0.00  0.00    +0.070 A 
ATOM      7  O   UNL     1       0.002  -0.004   0.002  0.00  0.00    -0.422 OA
ATOM      8  C   UNL     1       1.139  -0.718  -0.013  0.00  0.00    +0.347 A 
ATOM      9  O   UNL     1       1.091  -1.933  -0.018  0.00  0.00    -0.244 OA
ATOM     10  C   UNL     1       2.442  -0.037  -0.022  0.00  0.00    +0.086 A 
ATOM     11  C   UNL     1       2.468   1.384  -0.014  0.00  0.00    +0.089 A 
ATOM     12  N   UNL     1       3.608   2.043  -0.022  0.00  0.00    -0.246 NA
ATOM     13  C   UNL     1       4.783   1.404  -0.037  0.00  0.00    +0.072 A 
ATOM     14  C   UNL     1       5.989   2.128  -0.046  0.00  0.00    +0.028 A 
ATOM     15  C   UNL     1       7.177   1.464  -0.062  0.00  0.00    +0.002 A 
ATOM     16  C   UNL     1       7.222   0.070  -0.070  0.00  0.00    +0.001 A 
ATOM     17  C   UNL     1       6.077  -0.665  -0.062  0.00  0.00    +0.010 A 
ATOM     18  C   UNL     1       4.832  -0.014  -0.045  0.00  0.00    +0.001 A 
ATOM     19  C   UNL     1       3.631  -0.746  -0.037  0.00  0.00    +0.027 A 
ENDROOT
BRANCH   1  20
ATOM     20  N   UNL     1      -2.495   4.063   0.046  0.00  0.00    -0.330 N 
BRANCH  20  22
ATOM     21  C   UNL     1      -2.565   6.044  -1.385  0.00  0.00    +0.024 C 
ATOM     22  C   UNL     1      -2.537   5.527   0.054  0.00  0.00    +0.102 C 
ENDBRANCH  20  22
BRANCH  20  23
ATOM     23  C   UNL     1      -3.742   3.294   0.054  0.00  0.00    +0.102 C 
ATOM     24  C   UNL     1      -4.163   3.019   1.499  0.00  0.00    +0.024 C 
ENDBRANCH  20  23
ENDBRANCH   1  20
TORSDOF 3
