REMARK  Name = ZINC08583380
REMARK  15 active torsions:
REMARK  status: ('A' for Active; 'I' for Inactive)
REMARK    1  A    between atoms: C_1  and  C_2
REMARK    2  A    between atoms: C_2  and  C_3
REMARK    3  A    between atoms: C_3  and  C_4
REMARK    4  A    between atoms: C_4  and  N_5
REMARK    5  A    between atoms: N_5  and  C_6
REMARK    6  A    between atoms: N_5  and  C_10
REMARK    7  A    between atoms: C_6  and  C_7
REMARK    8  A    between atoms: C_7  and  C_8
REMARK    9  A    between atoms: C_8  and  C_9
REMARK   10  A    between atoms: C_10  and  C_11
REMARK   11  A    between atoms: C_11  and  N_12
REMARK   12  A    between atoms: C_13  and  C_15
REMARK   13  A    between atoms: C_15  and  N_16
REMARK   14  A    between atoms: C_19  and  S_27
REMARK   15  A    between atoms: S_27  and  N_30
REMARK                            x       y       z     vdW  Elec       q    Type
REMARK                         _______ _______ _______ _____ _____    ______ ____
ROOT
ATOM      1  N   UNL     1       3.397  -8.669  -6.181  0.00  0.00    -0.261 N 
ATOM      2  C   UNL     1       2.764  -8.722  -7.419  0.00  0.00    +0.052 A 
ATOM      3  C   UNL     1       1.635  -7.942  -7.645  0.00  0.00    +0.053 A 
ATOM      4  C   UNL     1       0.992  -7.986  -8.866  0.00  0.00    +0.107 A 
ATOM      5  C   UNL     1       1.461  -8.805  -9.877  0.00  0.00    +0.030 A 
ATOM      6  C   UNL     1       2.583  -9.585  -9.667  0.00  0.00    +0.018 A 
ATOM      7  C   UNL     1       3.234  -9.543  -8.445  0.00  0.00    +0.030 A 
ATOM      8  S   UNL     1       4.674 -10.525  -8.169  0.00  0.00    -0.114 S 
ATOM      9  C   UNL     1       5.609  -9.526  -6.971  0.00  0.00    +0.170 C 
ATOM     10  C   UNL     1       4.660  -9.004  -5.927  0.00  0.00    +0.230 C 
ATOM     11  O   UNL     1       5.066  -8.886  -4.790  0.00  0.00    -0.274 OA
ENDROOT
BRANCH   4  12
ATOM     12  S   UNL     1      -0.438  -6.992  -9.138  0.00  0.00    +0.061 S 
ATOM     13  O   UNL     1      -1.178  -7.620 -10.175  0.00  0.00    -0.153 OA
ATOM     14  O   UNL     1      -0.996  -6.725  -7.859  0.00  0.00    -0.153 OA
BRANCH  12  15
ATOM     15  N   UNL     1       0.083  -5.540  -9.740  0.00  0.00    -0.177 NA
ATOM     16  C   UNL     1       0.417  -4.431  -8.835  0.00  0.00    +0.109 C 
ATOM     17  C   UNL     1       1.832  -3.941  -9.157  0.00  0.00    +0.017 C 
ATOM     18  C   UNL     1       1.920  -3.588 -10.644  0.00  0.00    +0.003 C 
ATOM     19  C   UNL     1       1.638  -4.836 -11.484  0.00  0.00    +0.017 C 
ATOM     20  C   UNL     1       0.226  -5.338 -11.188  0.00  0.00    +0.109 C 
ENDBRANCH  12  15
ENDBRANCH   4  12
BRANCH   1  21
ATOM     21  C   UNL     1       2.598  -8.193  -5.049  0.00  0.00    +0.209 C 
BRANCH  21  23
ATOM     22  N   UNL     1       2.081  -6.035  -3.956  0.00  0.00    -0.316 N 
ATOM     23  C   UNL     1       2.733  -6.697  -4.933  0.00  0.00    +0.231 C 
ATOM     24  O   UNL     1       3.427  -6.088  -5.719  0.00  0.00    -0.274 OA
ATOM     25  H   UNL     1       1.525  -6.522  -3.328  0.00  0.00    +0.149 HD
BRANCH  22  26
ATOM     26  C   UNL     1       2.212  -4.580  -3.844  0.00  0.00    +0.086 C 
BRANCH  26  27
ATOM     27  C   UNL     1       1.377  -4.083  -2.662  0.00  0.00    -0.060 C 
BRANCH  27  28
ATOM     28  N   UNL     1       1.603  -2.644  -2.474  0.00  0.00    +0.381 N 
ATOM     29  H   UNL     1       2.592  -2.469  -2.372  0.00  0.00    -0.082 HD
BRANCH  28  30
ATOM     30  C   UNL     1       1.093  -1.912  -3.641  0.00  0.00    -0.079 C 
BRANCH  30  31
ATOM     31  C   UNL     1       1.439  -0.428  -3.503  0.00  0.00    -0.019 C 
BRANCH  31  33
ATOM     32  C   UNL     1       1.254   1.819  -4.580  0.00  0.00    +0.004 C 
ATOM     33  C   UNL     1       0.908   0.335  -4.718  0.00  0.00    -0.005 C 
ENDBRANCH  31  33
ENDBRANCH  30  31
ENDBRANCH  28  30
BRANCH  28  34
ATOM     34  C   UNL     1       0.899  -2.191  -1.266  0.00  0.00    -0.079 C 
BRANCH  34  35
ATOM     35  C   UNL     1       1.536  -2.836  -0.033  0.00  0.00    -0.019 C 
BRANCH  35  36
ATOM     36  C   UNL     1       0.757  -2.424   1.218  0.00  0.00    -0.005 C 
ATOM     37  C   UNL     1       1.394  -3.068   2.450  0.00  0.00    +0.004 C 
ENDBRANCH  35  36
ENDBRANCH  34  35
ENDBRANCH  28  34
ENDBRANCH  27  28
ENDBRANCH  26  27
ENDBRANCH  22  26
ENDBRANCH  21  23
ENDBRANCH   1  21
TORSDOF 13
