REMARK  Name = ZINC21238360
REMARK  9 active torsions:
REMARK  status: ('A' for Active; 'I' for Inactive)
REMARK    1  A    between atoms: C_1  and  C_2
REMARK    2  A    between atoms: N_11  and  C_15
REMARK    3  A    between atoms: C_15  and  C_16
REMARK    4  A    between atoms: C_16  and  O_18
REMARK    5  A    between atoms: O_18  and  C_19
REMARK    6  A    between atoms: C_19  and  C_20
REMARK    7  A    between atoms: N_22  and  C_23
REMARK    8  A    between atoms: C_23  and  C_25
REMARK    9  A    between atoms: C_23  and  C_26
REMARK                            x       y       z     vdW  Elec       q    Type
REMARK                         _______ _______ _______ _____ _____    ______ ____
ROOT
ATOM      1  C   UNL     1       4.155   8.928  -3.063  0.00  0.00    +0.326 C 
ATOM      2  O   UNL     1       3.140   9.582  -3.026  0.00  0.00    -0.249 OA
ENDROOT
BRANCH   1   3
ATOM      3  C   UNL     1       5.375   9.469  -3.763  0.00  0.00    +0.238 C 
BRANCH   3  13
ATOM      4  C   UNL     1       6.766  12.615  -6.560  0.00  0.00    +0.010 C 
ATOM      5  C   UNL     1       5.316  13.040  -6.799  0.00  0.00    +0.018 C 
ATOM      6  C   UNL     1       4.831  12.471  -8.134  0.00  0.00    +0.006 C 
ATOM      7  C   UNL     1       3.374  12.879  -8.362  0.00  0.00    +0.000 C 
ATOM      8  C   UNL     1       2.504  12.319  -7.234  0.00  0.00    +0.003 C 
ATOM      9  C   UNL     1       2.979  12.888  -5.895  0.00  0.00    +0.035 C 
ATOM     10  C   UNL     1       4.439  12.510  -5.669  0.00  0.00    +0.115 C 
ATOM     11  C   UNL     1       4.588  11.011  -5.550  0.00  0.00    +0.247 C 
ATOM     12  O   UNL     1       4.323  10.178  -6.390  0.00  0.00    -0.273 OA
ATOM     13  N   UNL     1       5.076  10.794  -4.311  0.00  0.00    -0.213 N 
ATOM     14  C   UNL     1       5.259  11.942  -3.646  0.00  0.00    +0.310 C 
ATOM     15  O   UNL     1       5.693  12.004  -2.512  0.00  0.00    -0.252 OA
ATOM     16  N   UNL     1       4.907  13.019  -4.373  0.00  0.00    -0.285 N 
ATOM     17  H   UNL     1       4.913  14.101  -4.177  0.00  0.00    +0.151 HD
ENDBRANCH   3  13
ENDBRANCH   1   3
BRANCH   1  18
ATOM     18  O   UNL     1       4.196   7.718  -2.482  0.00  0.00    -0.454 OA
BRANCH  18  19
ATOM     19  C   UNL     1       2.983   7.261  -1.827  0.00  0.00    +0.327 C 
BRANCH  19  20
ATOM     20  C   UNL     1       3.217   5.894  -1.236  0.00  0.00    +0.251 C 
ATOM     21  O   UNL     1       4.299   5.359  -1.355  0.00  0.00    -0.272 OA
ATOM     22  N   UNL     1       2.224   5.267  -0.575  0.00  0.00    -0.306 N 
ATOM     23  H   UNL     1       1.243   5.753  -0.466  0.00  0.00    +0.149 HD
BRANCH  22  24
ATOM     24  C   UNL     1       2.451   3.939  -0.000  0.00  0.00    +0.102 C 
ATOM     25  C   UNL     1       3.033   4.085   1.407  0.00  0.00    +0.033 C 
BRANCH  24  26
ATOM     26  C   UNL     1       1.144   3.193   0.072  0.00  0.00    -0.009 A 
ATOM     27  C   UNL     1      -0.045   3.890   0.182  0.00  0.00    +0.008 A 
ATOM     28  C   UNL     1      -1.244   3.206   0.248  0.00  0.00    +0.020 A 
ATOM     29  C   UNL     1      -1.256   1.823   0.198  0.00  0.00    +0.042 A 
ATOM     30  C   UNL     1      -0.067   1.125   0.093  0.00  0.00    +0.040 A 
ATOM     31  C   UNL     1       1.133   1.810   0.027  0.00  0.00    +0.047 A 
ATOM     32 CL   UNL     1       2.626   0.935  -0.111  0.00  0.00    -0.083 Cl
ATOM     33 CL   UNL     1      -2.763   0.965   0.273  0.00  0.00    -0.083 Cl
ENDBRANCH  24  26
ENDBRANCH  22  24
ENDBRANCH  19  20
ENDBRANCH  18  19
ENDBRANCH   1  18
TORSDOF 7
