REMARK  Name = ZINC05932380
REMARK  4 active torsions:
REMARK  status: ('A' for Active; 'I' for Inactive)
REMARK    1  A    between atoms: C_4  and  C_7
REMARK    2  A    between atoms: C_7  and  S_8
REMARK    3  A    between atoms: S_8  and  C_9
REMARK    4  A    between atoms: C_25  and  C_27
REMARK                            x       y       z     vdW  Elec       q    Type
REMARK                         _______ _______ _______ _____ _____    ______ ____
ROOT
ATOM      1  C   UNL     1       5.786  -1.866   1.477  0.00  0.00    +0.172 A 
ATOM      2  N   UNL     1       6.242  -2.116   0.268  0.00  0.00    -0.185 NA
ATOM      3  C   UNL     1       7.404  -2.764   0.088  0.00  0.00    +0.280 A 
ATOM      4  O   UNL     1       7.813  -2.990  -1.041  0.00  0.00    -0.265 OA
ATOM      5  C   UNL     1       8.150  -3.183   1.211  0.00  0.00    +0.069 A 
ATOM      6  C   UNL     1       7.666  -2.921   2.455  0.00  0.00    +0.111 A 
ATOM      7  N   UNL     1       6.478  -2.252   2.586  0.00  0.00    -0.322 N 
ATOM      8  N   UNL     1       8.366  -3.323   3.569  0.00  0.00    -0.304 N 
ATOM      9  C   UNL     1       9.325  -4.295   3.478  0.00  0.00    +0.017 C 
ATOM     10  C   UNL     1       9.759  -4.992   4.744  0.00  0.00    +0.051 C 
ATOM     11  C   UNL     1      10.177  -6.429   4.422  0.00  0.00    +0.014 C 
ATOM     12  C   UNL     1      11.310  -6.387   3.392  0.00  0.00    +0.080 C 
ATOM     13  C   UNL     1      10.844  -5.624   2.182  0.00  0.00    +0.162 C 
ATOM     14  O   UNL     1      11.318  -5.885   1.094  0.00  0.00    -0.292 OA
ATOM     15  C   UNL     1       9.869  -4.616   2.286  0.00  0.00    +0.024 C 
ATOM     16  H   UNL     1       8.178  -2.912   4.427  0.00  0.00    +0.153 HD
ATOM     17  C   UNL     1       9.454  -3.900   1.026  0.00  0.00    +0.092 C 
ATOM     18  H   UNL     1       6.127  -2.056   3.469  0.00  0.00    +0.169 HD
ENDROOT
BRANCH  17  19
ATOM     19  C   UNL     1      10.518  -2.899   0.653  0.00  0.00    -0.032 A 
ATOM     20  C   UNL     1      10.840  -1.854   1.506  0.00  0.00    +0.024 A 
ATOM     21  C   UNL     1      11.821  -0.956   1.131  0.00  0.00    +0.111 A 
ATOM     22  N   UNL     1      12.448  -1.085  -0.022  0.00  0.00    -0.263 NA
ATOM     23  C   UNL     1      12.169  -2.066  -0.857  0.00  0.00    +0.111 A 
ATOM     24  C   UNL     1      11.204  -3.005  -0.547  0.00  0.00    +0.024 A 
ENDBRANCH  17  19
BRANCH   1  25
ATOM     25  S   UNL     1       4.257  -1.011   1.666  0.00  0.00    -0.083 S 
BRANCH  25  26
ATOM     26  C   UNL     1       3.711  -0.707  -0.038  0.00  0.00    +0.112 C 
BRANCH  26  30
ATOM     27  C   UNL     1      -0.017   1.378   0.010  0.00  0.00    +0.000 A 
ATOM     28  C   UNL     1       1.171   2.086   0.002  0.00  0.00    +0.000 A 
ATOM     29  C   UNL     1       2.377   1.411  -0.013  0.00  0.00    +0.004 A 
ATOM     30  C   UNL     1       2.396   0.029  -0.020  0.00  0.00    -0.037 A 
ATOM     31  C   UNL     1       1.208  -0.679  -0.012  0.00  0.00    +0.004 A 
ATOM     32  C   UNL     1       0.002  -0.004   0.002  0.00  0.00    +0.000 A 
ENDBRANCH  26  30
ENDBRANCH  25  26
ENDBRANCH   1  25
TORSDOF 4
