REMARK  Name = ZINC66797780
REMARK  4 active torsions:
REMARK  status: ('A' for Active; 'I' for Inactive)
REMARK    1  A    between atoms: C_5  and  C_7
REMARK    2  A    between atoms: C_10  and  S_13
REMARK    3  A    between atoms: S_13  and  C_14
REMARK    4  A    between atoms: C_19  and  N_20
REMARK                            x       y       z     vdW  Elec       q    Type
REMARK                         _______ _______ _______ _____ _____    ______ ____
ROOT
ATOM      1  C   UNL     1       1.196  -2.170  -0.475  0.00  0.00    +0.185 A 
ATOM      2  N   UNL     1       0.132  -2.973  -0.336  0.00  0.00    -0.201 NA
ATOM      3  H   UNL     1       2.455  -5.017  -0.245  0.00  0.00    +0.191 HD
ATOM      4  C   UNL     1       0.531  -4.221  -0.227  0.00  0.00    +0.189 A 
ATOM      5  N   UNL     1       1.880  -4.237  -0.296  0.00  0.00    -0.253 N 
ATOM      6  N   UNL     1       2.287  -2.904  -0.462  0.00  0.00    -0.151 NA
ENDROOT
BRANCH   1  11
ATOM      7  C   UNL     1      -0.112   1.342  -0.773  0.00  0.00    +0.001 A 
ATOM      8  C   UNL     1       1.063   2.059  -0.910  0.00  0.00    +0.003 A 
ATOM      9  C   UNL     1       2.282   1.407  -0.905  0.00  0.00    +0.039 A 
ATOM     10  C   UNL     1       2.333   0.032  -0.765  0.00  0.00    +0.134 A 
ATOM     11  C   UNL     1       1.150  -0.695  -0.627  0.00  0.00    +0.056 A 
ATOM     12  C   UNL     1      -0.074  -0.030  -0.631  0.00  0.00    +0.014 A 
ATOM     13  F   UNL     1       3.524  -0.605  -0.762  0.00  0.00    -0.205 F 
ENDBRANCH   1  11
BRANCH   4  14
ATOM     14  S   UNL     1      -0.512  -5.627  -0.024  0.00  0.00    -0.048 S 
BRANCH  14  15
ATOM     15  C   UNL     1      -2.126  -4.941   0.145  0.00  0.00    +0.049 A 
ATOM     16  C   UNL     1      -3.032  -4.973  -0.916  0.00  0.00    +0.037 A 
ATOM     17  C   UNL     1      -4.285  -4.425  -0.743  0.00  0.00    +0.112 A 
ATOM     18  N   UNL     1      -4.631  -3.876   0.407  0.00  0.00    -0.261 NA
ATOM     19  C   UNL     1      -3.803  -3.825   1.433  0.00  0.00    +0.144 A 
ATOM     20  C   UNL     1      -2.533  -4.356   1.344  0.00  0.00    +0.158 A 
BRANCH  20  21
ATOM     21  N   UNL     1      -1.613  -4.300   2.502  0.00  0.00    +0.059 N 
ATOM     22  O   UNL     1      -1.974  -3.791   3.537  0.00  0.00    -0.126 OA
ATOM     23  O   UNL     1      -0.500  -4.763   2.413  0.00  0.00    -0.126 OA
ENDBRANCH  20  21
ENDBRANCH  14  15
ENDBRANCH   4  14
TORSDOF 4
