REMARK  Name = ZINC57689426
REMARK  7 active torsions:
REMARK  status: ('A' for Active; 'I' for Inactive)
REMARK    1  A    between atoms: C_1  and  C_2
REMARK    2  A    between atoms: C_6  and  O_8
REMARK    3  A    between atoms: O_8  and  C_9
REMARK    4  A    between atoms: C_9  and  C_10
REMARK    5  A    between atoms: C_10  and  C_11
REMARK    6  A    between atoms: C_11  and  C_13
REMARK    7  A    between atoms: C_11  and  C_15
REMARK                            x       y       z     vdW  Elec       q    Type
REMARK                         _______ _______ _______ _____ _____    ______ ____
ROOT
ATOM      1  C   UNL     1       0.103  -6.324   3.593  0.00  0.00    +0.125 C 
ENDROOT
BRANCH   1   2
ATOM      2  C   UNL     1      -0.007  -6.910   4.976  0.00  0.00    -0.027 A 
ATOM      3  C   UNL     1       0.950  -6.614   5.929  0.00  0.00    +0.009 A 
ATOM      4  C   UNL     1       0.853  -7.152   7.199  0.00  0.00    +0.050 A 
ATOM      5  C   UNL     1      -0.204  -7.989   7.521  0.00  0.00    +0.162 A 
ATOM      6  C   UNL     1      -1.168  -8.285   6.563  0.00  0.00    +0.162 A 
ATOM      7  C   UNL     1      -1.067  -7.739   5.292  0.00  0.00    +0.054 A 
ATOM      8  O   UNL     1      -2.218  -9.098   6.860  0.00  0.00    -0.485 OA
ATOM      9  C   UNL     1      -2.088  -9.917   8.027  0.00  0.00    +0.270 C 
ATOM     10  C   UNL     1      -1.554  -9.044   9.170  0.00  0.00    +0.270 C 
ATOM     11  O   UNL     1      -0.284  -8.514   8.774  0.00  0.00    -0.485 OA
ENDBRANCH   1   2
BRANCH   1  12
ATOM     12  C   UNL     1       1.364  -6.762   2.973  0.00  0.00    +0.071 C 
ATOM     13  N   UNL     1       2.337  -7.100   2.494  0.00  0.00    -0.196 NA
ENDBRANCH   1  12
BRANCH   1  14
ATOM     14  C   UNL     1       0.083  -4.796   3.683  0.00  0.00    +0.064 C 
BRANCH  14  15
ATOM     15  C   UNL     1       0.069  -4.202   2.274  0.00  0.00    +0.230 C 
BRANCH  15  16
ATOM     16  O   UNL     1       0.050  -2.776   2.358  0.00  0.00    -0.492 OA
BRANCH  16  22
ATOM     17  C   UNL     1      -0.018   1.503   0.010  0.00  0.00    +0.044 C 
ATOM     18  C   UNL     1       0.002  -0.004   0.002  0.00  0.00    -0.047 A 
ATOM     19  C   UNL     1       0.006  -0.688  -1.200  0.00  0.00    +0.003 A 
ATOM     20  C   UNL     1       0.024  -2.071  -1.211  0.00  0.00    +0.004 A 
ATOM     21  C   UNL     1       0.039  -2.772  -0.020  0.00  0.00    +0.045 A 
ATOM     22  C   UNL     1       0.035  -2.088   1.186  0.00  0.00    +0.121 A 
ATOM     23  C   UNL     1       0.023  -0.700   1.195  0.00  0.00    +0.049 A 
ENDBRANCH  16  22
ENDBRANCH  15  16
ENDBRANCH  14  15
ENDBRANCH   1  14
TORSDOF 6
