REMARK  Name = ZINC03841969
REMARK  5 active torsions:
REMARK  status: ('A' for Active; 'I' for Inactive)
REMARK    1  A    between atoms: C_5  and  C_7
REMARK    2  A    between atoms: C_10  and  C_13
REMARK    3  A    between atoms: C_13  and  N_14
REMARK    4  A    between atoms: N_14  and  C_15
REMARK    5  A    between atoms: N_33  and  C_34
REMARK                            x       y       z     vdW  Elec       q    Type
REMARK                         _______ _______ _______ _____ _____    ______ ____
ROOT
ATOM      1  C   UNL     1       1.187   0.966   1.213  0.00  0.00    +0.093 A 
ATOM      2  C   UNL     1       0.720  -0.274   1.554  0.00  0.00    +0.030 A 
ATOM      3  C   UNL     1      -0.653  -0.530   1.451  0.00  0.00    +0.024 A 
ATOM      4  C   UNL     1      -1.504   0.428   1.003  0.00  0.00    +0.027 A 
ATOM      5  N   UNL     1      -1.034   1.629   0.585  0.00  0.00    -0.310 N 
ATOM      6  C   UNL     1       0.278   1.933   0.742  0.00  0.00    +0.272 A 
ATOM      7  O   UNL     1       0.675   3.055   0.472  0.00  0.00    -0.266 OA
ATOM      8  C   UNL     1      -1.873   2.627  -0.078  0.00  0.00    +0.130 C 
ATOM      9  C   UNL     1      -3.349   2.428   0.212  0.00  0.00    +0.027 C 
ATOM     10  C   UNL     1      -3.724   0.958   0.016  0.00  0.00    +0.018 C 
ATOM     11  C   UNL     1      -2.984   0.126   1.066  0.00  0.00    +0.054 C 
ATOM     12  C   UNL     1      -3.494   0.539   2.457  0.00  0.00    +0.119 C 
ATOM     13  N   UNL     1      -3.215   1.975   2.619  0.00  0.00    -0.284 N 
ATOM     14  C   UNL     1      -3.727   2.906   1.607  0.00  0.00    +0.114 C 
ATOM     15  C   UNL     1      -2.506   2.424   3.673  0.00  0.00    +0.306 C 
ATOM     16  O   UNL     1      -2.165   1.654   4.550  0.00  0.00    -0.252 OA
ATOM     17  N   UNL     1      -2.175   3.728   3.756  0.00  0.00    -0.269 N 
ATOM     18  H   UNL     1      -2.539   4.362   3.119  0.00  0.00    +0.156 HD
ENDROOT
BRANCH  17  19
ATOM     19  C   UNL     1      -1.304   4.167   4.761  0.00  0.00    +0.035 A 
ATOM     20  C   UNL     1      -0.296   3.331   5.222  0.00  0.00    +0.026 A 
ATOM     21  C   UNL     1       0.565   3.768   6.210  0.00  0.00    +0.040 A 
ATOM     22  C   UNL     1       0.416   5.035   6.748  0.00  0.00    +0.124 A 
ATOM     23  C   UNL     1      -0.592   5.868   6.294  0.00  0.00    +0.040 A 
ATOM     24  C   UNL     1      -1.452   5.437   5.303  0.00  0.00    +0.026 A 
ATOM     25  F   UNL     1       1.256   5.458   7.718  0.00  0.00    -0.205 F 
ENDBRANCH  17  19
BRANCH   1  26
ATOM     26  N   UNL     1       2.550   1.268   1.330  0.00  0.00    -0.336 N 
ATOM     27  H   UNL     1       2.873   2.149   1.086  0.00  0.00    +0.147 HD
BRANCH  26  28
ATOM     28  C   UNL     1       3.486   0.254   1.821  0.00  0.00    +0.137 C 
BRANCH  28  32
ATOM     29  C   UNL     1       7.437   1.883   1.908  0.00  0.00    +0.000 A 
ATOM     30  C   UNL     1       6.610   1.997   3.023  0.00  0.00    +0.010 A 
ATOM     31  C   UNL     1       5.335   1.469   2.990  0.00  0.00    +0.006 A 
ATOM     32  C   UNL     1       4.878   0.828   1.851  0.00  0.00    -0.030 A 
ATOM     33  C   UNL     1       5.698   0.708   0.744  0.00  0.00    +0.006 A 
ATOM     34  C   UNL     1       6.973   1.237   0.764  0.00  0.00    +0.010 A 
BRANCH  29  39
ATOM     35  C   UNL     1      10.906   2.862   0.862  0.00  0.00    +0.004 A 
ATOM     36  C   UNL     1      11.321   3.496   2.025  0.00  0.00    +0.020 A 
ATOM     37  C   UNL     1      10.454   3.577   3.099  0.00  0.00    +0.111 A 
ATOM     38  N   UNL     1       9.243   3.062   3.031  0.00  0.00    -0.255 NA
ATOM     39  C   UNL     1       8.809   2.449   1.938  0.00  0.00    +0.071 A 
ATOM     40  C   UNL     1       9.631   2.326   0.820  0.00  0.00    +0.028 A 
ENDBRANCH  29  39
ENDBRANCH  28  32
ENDBRANCH  26  28
ENDBRANCH   1  26
TORSDOF 5
