REMARK  Name = ZINC59055783
REMARK  8 active torsions:
REMARK  status: ('A' for Active; 'I' for Inactive)
REMARK    1  A    between atoms: C_1  and  C_2
REMARK    2  A    between atoms: C_2  and  O_3
REMARK    3  A    between atoms: O_3  and  C_4
REMARK    4  A    between atoms: C_4  and  C_6
REMARK    5  A    between atoms: N_8  and  C_20
REMARK    6  A    between atoms: C_9  and  C_14
REMARK    7  A    between atoms: N_12  and  C_13
REMARK    8  A    between atoms: C_17  and  C_19
REMARK                            x       y       z     vdW  Elec       q    Type
REMARK                         _______ _______ _______ _____ _____    ______ ____
ROOT
ATOM      1  C   UNL     1       1.480  -2.372   2.474  0.00  0.00    +0.238 C 
ATOM      2  N   UNL     1       2.074  -1.570   3.318  0.00  0.00    -0.154 NA
ATOM      3  N   UNL     1       2.747  -2.114   4.427  0.00  0.00    -0.199 N 
ATOM      4  C   UNL     1       3.050  -3.555   4.415  0.00  0.00    +0.218 C 
ATOM      5  N   UNL     1       1.860  -4.259   3.899  0.00  0.00    -0.212 NA
ATOM      6  N   UNL     1       1.518  -3.758   2.673  0.00  0.00    -0.245 N 
ATOM      7  C   UNL     1       1.199  -4.669   1.571  0.00  0.00    +0.152 C 
ATOM      8  H   UNL     1       2.021  -5.254   3.853  0.00  0.00    +0.147 HD
ENDROOT
BRANCH   3   9
ATOM      9  C   UNL     1       3.118  -1.312   5.506  0.00  0.00    +0.054 A 
ATOM     10  C   UNL     1       3.788  -1.868   6.590  0.00  0.00    +0.026 A 
ATOM     11  C   UNL     1       4.154  -1.072   7.657  0.00  0.00    +0.022 A 
ATOM     12  C   UNL     1       3.854   0.280   7.648  0.00  0.00    +0.041 A 
ATOM     13  C   UNL     1       3.187   0.837   6.571  0.00  0.00    +0.022 A 
ATOM     14  C   UNL     1       2.824   0.046   5.498  0.00  0.00    +0.026 A 
ATOM     15 CL   UNL     1       4.315   1.278   8.991  0.00  0.00    -0.084 Cl
ENDBRANCH   3   9
BRANCH   4  16
ATOM     16  C   UNL     1       4.231  -3.821   3.519  0.00  0.00    +0.028 A 
ATOM     17  C   UNL     1       4.514  -4.926   2.785  0.00  0.00    +0.015 A 
ATOM     18  C   UNL     1       5.670  -4.948   2.027  0.00  0.00    +0.011 A 
ATOM     19  C   UNL     1       6.485  -3.866   2.039  0.00  0.00    -0.013 A 
ATOM     20  S   UNL     1       5.618  -2.762   3.141  0.00  0.00    -0.095 S 
ATOM     21  C   UNL     1       7.784  -3.648   1.307  0.00  0.00    +0.051 C 
ENDBRANCH   4  16
BRANCH   1  22
ATOM     22  C   UNL     1       0.767  -1.818   1.318  0.00  0.00    +0.375 C 
ATOM     23  O   UNL     1       0.107  -2.549   0.603  0.00  0.00    -0.242 OA
BRANCH  22  24
ATOM     24  O   UNL     1       0.842  -0.499   1.047  0.00  0.00    -0.459 OA
BRANCH  24  26
ATOM     25  C   UNL     1       0.326   1.481  -0.239  0.00  0.00    +0.048 C 
ATOM     26  C   UNL     1       0.122  -0.028  -0.094  0.00  0.00    +0.229 C 
ENDBRANCH  24  26
ENDBRANCH  22  24
ENDBRANCH   1  22
TORSDOF 5
