REMARK  Name = ZINC06197743
REMARK  11 active torsions:
REMARK  status: ('A' for Active; 'I' for Inactive)
REMARK    1  A    between atoms: C_1  and  C_2
REMARK    2  A    between atoms: C_2  and  C_3
REMARK    3  A    between atoms: C_10  and  C_15
REMARK    4  A    between atoms: C_15  and  N_16
REMARK    5  A    between atoms: N_16  and  C_17
REMARK    6  A    between atoms: N_16  and  C_24
REMARK    7  A    between atoms: C_17  and  C_18
REMARK    8  A    between atoms: C_18  and  N_66
REMARK    9  A    between atoms: C_24  and  N_26
REMARK   10  A    between atoms: N_26  and  C_27
REMARK   11  A    between atoms: C_27  and  C_28
REMARK                            x       y       z     vdW  Elec       q    Type
REMARK                         _______ _______ _______ _____ _____    ______ ____
ROOT
ATOM      1  N   UNL     1       0.014   1.241   4.867  0.00  0.00    -0.310 N 
ENDROOT
BRANCH   1   2
ATOM      2  C   UNL     1       1.131   1.833   5.335  0.00  0.00    +0.133 C 
ATOM      3  S   UNL     1       1.888   1.234   6.749  0.00  0.00    -0.019 S 
BRANCH   2   4
ATOM      4  N   UNL     1       1.651   2.896   4.690  0.00  0.00    -0.324 N 
ATOM      5  H   UNL     1       1.222   3.235   3.889  0.00  0.00    +0.148 HD
BRANCH   4   6
ATOM      6  C   UNL     1       2.865   3.539   5.199  0.00  0.00    +0.134 C 
BRANCH   6   7
ATOM      7  C   UNL     1       3.241   4.711   4.290  0.00  0.00    +0.135 C 
ATOM      8  C   UNL     1       4.586   5.327   4.735  0.00  0.00    +0.035 C 
ATOM      9  C   UNL     1       4.397   6.844   4.509  0.00  0.00    +0.031 C 
ATOM     10  C   UNL     1       2.961   6.965   3.954  0.00  0.00    +0.160 C 
ATOM     11  O   UNL     1       2.281   5.782   4.428  0.00  0.00    -0.375 OA
ENDBRANCH   6   7
ENDBRANCH   4   6
ENDBRANCH   2   4
ENDBRANCH   1   2
BRANCH   1  12
ATOM     12  C   UNL     1      -0.551   0.085   5.568  0.00  0.00    +0.147 C 
BRANCH  12  20
ATOM     13  C   UNL     1       3.284  -4.748   5.099  0.00  0.00    -0.047 A 
ATOM     14  C   UNL     1       2.703  -5.298   3.964  0.00  0.00    +0.005 A 
ATOM     15  C   UNL     1       1.614  -4.698   3.370  0.00  0.00    +0.026 A 
ATOM     16  C   UNL     1       1.089  -3.529   3.912  0.00  0.00    +0.049 A 
ATOM     17  C   UNL     1       1.681  -2.974   5.062  0.00  0.00    -0.001 A 
ATOM     18  C   UNL     1       2.786  -3.600   5.649  0.00  0.00    +0.013 A 
ATOM     19  C   UNL     1       1.121  -1.744   5.625  0.00  0.00    +0.020 A 
ATOM     20  C   UNL     1       0.049  -1.181   5.014  0.00  0.00    +0.035 A 
ATOM     21  C   UNL     1      -0.510  -1.781   3.865  0.00  0.00    +0.254 A 
ATOM     22  O   UNL     1      -1.477  -1.262   3.335  0.00  0.00    -0.268 OA
ATOM     23  N   UNL     1       0.000  -2.908   3.338  0.00  0.00    -0.322 N 
ATOM     24  H   UNL     1      -0.416  -3.301   2.519  0.00  0.00    +0.169 HD
BRANCH  13  26
ATOM     25  C   UNL     1       3.994  -6.432   6.775  0.00  0.00    +0.009 C 
ATOM     26  C   UNL     1       4.474  -5.422   5.731  0.00  0.00    +0.032 C 
ENDBRANCH  13  26
ENDBRANCH  12  20
ENDBRANCH   1  12
BRANCH   1  27
ATOM     27  C   UNL     1      -0.634   1.753   3.657  0.00  0.00    +0.088 C 
BRANCH  27  28
ATOM     28  C   UNL     1      -0.053   1.047   2.430  0.00  0.00    -0.059 C 
BRANCH  28  34
ATOM     29  C   UNL     1      -0.013   1.086   0.008  0.00  0.00    -0.050 C 
ATOM     30  C   UNL     1      -0.755   1.594  -1.231  0.00  0.00    +0.141 C 
ATOM     31  O   UNL     1      -0.837   3.021  -1.180  0.00  0.00    -0.383 OA
ATOM     32  C   UNL     1      -1.504   3.518  -0.017  0.00  0.00    +0.141 C 
ATOM     33  C   UNL     1      -0.769   3.029   1.235  0.00  0.00    -0.050 C 
ATOM     34  N   UNL     1      -0.728   1.552   1.214  0.00  0.00    +0.384 N 
ATOM     35  H   UNL     1      -1.689   1.191   1.193  0.00  0.00    -0.082 HD
ENDBRANCH  28  34
ENDBRANCH  27  28
ENDBRANCH   1  27
TORSDOF 10
