REMARK  Name = ZINC35577078
REMARK  5 active torsions:
REMARK  status: ('A' for Active; 'I' for Inactive)
REMARK    1  A    between atoms: C_5  and  C_7
REMARK    2  A    between atoms: C_7  and  N_8
REMARK    3  A    between atoms: C_11  and  C_26
REMARK    4  A    between atoms: C_13  and  N_25
REMARK    5  A    between atoms: N_14  and  C_18
REMARK                            x       y       z     vdW  Elec       q    Type
REMARK                         _______ _______ _______ _____ _____    ______ ____
ROOT
ATOM      1  N   UNL     1       2.286  -2.755   1.133  0.00  0.00    -0.309 N 
ATOM      2  C   UNL     1       2.036  -4.076   1.456  0.00  0.00    +0.218 A 
ATOM      3  N   UNL     1       2.309  -4.483   2.692  0.00  0.00    -0.214 NA
ATOM      4  C   UNL     1       2.100  -5.733   3.087  0.00  0.00    +0.089 A 
ATOM      5  C   UNL     1       1.570  -6.650   2.151  0.00  0.00    +0.086 A 
ATOM      6  C   UNL     1       1.219  -7.994   2.165  0.00  0.00    +0.131 A 
ATOM      7  N   UNL     1       0.758  -8.305   0.937  0.00  0.00    -0.216 N 
ATOM      8  N   UNL     1       0.803  -7.176   0.112  0.00  0.00    -0.144 NA
ATOM      9  C   UNL     1       1.281  -6.157   0.792  0.00  0.00    +0.189 A 
ATOM     10  N   UNL     1       1.536  -4.862   0.524  0.00  0.00    -0.193 NA
ATOM     11  H   UNL     1       2.654  -2.153   1.799  0.00  0.00    +0.149 HD
ENDROOT
BRANCH   7  12
ATOM     12  C   UNL     1       0.304  -9.570   0.545  0.00  0.00    +0.070 A 
ATOM     13  C   UNL     1       0.900 -10.714   1.061  0.00  0.00    +0.028 A 
ATOM     14  C   UNL     1       0.451 -11.961   0.673  0.00  0.00    +0.005 A 
ATOM     15  C   UNL     1      -0.592 -12.073  -0.228  0.00  0.00    +0.038 A 
ATOM     16  C   UNL     1      -1.189 -10.935  -0.745  0.00  0.00    +0.125 A 
ATOM     17  C   UNL     1      -0.747  -9.683  -0.355  0.00  0.00    +0.066 A 
ATOM     18  F   UNL     1      -2.207 -11.047  -1.626  0.00  0.00    -0.205 F 
ENDBRANCH   7  12
BRANCH   4  19
ATOM     19  C   UNL     1       2.415  -6.155   4.469  0.00  0.00    +0.001 A 
ATOM     20  C   UNL     1       3.116  -7.340   4.697  0.00  0.00    +0.013 A 
ATOM     21  C   UNL     1       3.407  -7.729   5.987  0.00  0.00    +0.039 A 
ATOM     22  C   UNL     1       3.004  -6.946   7.058  0.00  0.00    +0.123 A 
ATOM     23  C   UNL     1       2.306  -5.769   6.837  0.00  0.00    +0.039 A 
ATOM     24  C   UNL     1       2.016  -5.367   5.550  0.00  0.00    +0.013 A 
ATOM     25  F   UNL     1       3.291  -7.332   8.320  0.00  0.00    -0.205 F 
ENDBRANCH   4  19
BRANCH   6  26
ATOM     26  N   UNL     1       1.323  -8.855   3.241  0.00  0.00    -0.342 N 
ATOM     27  H   UNL     1       1.521  -8.506   4.124  0.00  0.00    +0.144 HD
ATOM     28  H   UNL     1       1.198  -9.809   3.113  0.00  0.00    +0.144 HD
ENDBRANCH   6  26
BRANCH   1  29
ATOM     29  C   UNL     1       1.994  -2.263  -0.216  0.00  0.00    +0.142 C 
BRANCH  29  34
ATOM     30  C   UNL     1       1.695   1.500  -0.290  0.00  0.00    +0.000 A 
ATOM     31  C   UNL     1       3.012   1.879  -0.475  0.00  0.00    +0.003 A 
ATOM     32  C   UNL     1       4.000   0.919  -0.576  0.00  0.00    +0.038 A 
ATOM     33  C   UNL     1       3.672  -0.424  -0.492  0.00  0.00    +0.128 A 
ATOM     34  C   UNL     1       2.353  -0.802  -0.307  0.00  0.00    +0.005 A 
ATOM     35  C   UNL     1       1.366   0.160  -0.206  0.00  0.00    +0.008 A 
ATOM     36  F   UNL     1       4.637  -1.363  -0.591  0.00  0.00    -0.205 F 
ENDBRANCH  29  34
ENDBRANCH   1  29
TORSDOF 5
