REMARK  Name = ZINC21323443
REMARK  11 active torsions:
REMARK  status: ('A' for Active; 'I' for Inactive)
REMARK    1  A    between atoms: C_1  and  C_2
REMARK    2  A    between atoms: C_5  and  N_8
REMARK    3  A    between atoms: N_8  and  C_9
REMARK    4  A    between atoms: C_12  and  S_18
REMARK    5  A    between atoms: C_14  and  N_15
REMARK    6  A    between atoms: S_18  and  N_21
REMARK    7  A    between atoms: N_21  and  C_22
REMARK    8  A    between atoms: C_22  and  C_24
REMARK    9  A    between atoms: C_22  and  C_25
REMARK   10  A    between atoms: C_25  and  O_26
REMARK   11  A    between atoms: O_26  and  C_27
REMARK                            x       y       z     vdW  Elec       q    Type
REMARK                         _______ _______ _______ _____ _____    ______ ____
ROOT
ATOM      1  C   UNL     1      -1.455  -2.933   3.624  0.00  0.00    +0.058 A 
ATOM      2  C   UNL     1      -0.759  -4.135   3.651  0.00  0.00    +0.027 A 
ATOM      3  C   UNL     1      -0.411  -4.702   4.862  0.00  0.00    +0.030 A 
ATOM      4  C   UNL     1      -0.754  -4.074   6.045  0.00  0.00    +0.108 A 
ATOM      5  C   UNL     1      -1.447  -2.878   6.021  0.00  0.00    +0.063 A 
ATOM      6  C   UNL     1      -1.794  -2.303   4.814  0.00  0.00    +0.149 A 
ENDROOT
BRANCH   6   7
ATOM      7  N   UNL     1      -2.530  -1.020   4.790  0.00  0.00    +0.058 N 
ATOM      8  O   UNL     1      -2.281  -0.196   3.940  0.00  0.00    -0.126 OA
ATOM      9  O   UNL     1      -3.381  -0.795   5.618  0.00  0.00    -0.126 OA
ENDBRANCH   6   7
BRANCH   4  10
ATOM     10  S   UNL     1      -0.308  -4.801   7.587  0.00  0.00    +0.059 S 
ATOM     11  O   UNL     1      -1.220  -4.297   8.553  0.00  0.00    -0.153 OA
ATOM     12  O   UNL     1      -0.143  -6.192   7.348  0.00  0.00    -0.153 OA
BRANCH  10  13
ATOM     13  N   UNL     1       1.185  -4.211   7.992  0.00  0.00    -0.185 NA
ATOM     14  H   UNL     1       1.947  -4.810   8.041  0.00  0.00    +0.148 HD
BRANCH  13  15
ATOM     15  C   UNL     1       1.356  -2.784   8.278  0.00  0.00    +0.099 C 
ATOM     16  C   UNL     1       1.258  -2.550   9.786  0.00  0.00    +0.028 C 
BRANCH  15  17
ATOM     17  C   UNL     1       2.728  -2.325   7.779  0.00  0.00    +0.179 C 
BRANCH  17  18
ATOM     18  O   UNL     1       3.752  -2.985   8.526  0.00  0.00    -0.381 OA
ATOM     19  C   UNL     1       5.079  -2.625   8.137  0.00  0.00    +0.194 C 
ENDBRANCH  17  18
ENDBRANCH  15  17
ENDBRANCH  13  15
ENDBRANCH  10  13
ENDBRANCH   4  10
BRANCH   1  20
ATOM     20  N   UNL     1      -1.808  -2.357   2.401  0.00  0.00    -0.339 N 
ATOM     21  H   UNL     1      -2.364  -1.562   2.383  0.00  0.00    +0.146 HD
BRANCH  20  26
ATOM     22  C   UNL     1      -0.998   0.991  -0.599  0.00  0.00    +0.007 C 
ATOM     23  C   UNL     1      -0.949  -0.531  -0.453  0.00  0.00    -0.014 C 
ATOM     24  C   UNL     1      -2.348  -1.058  -0.130  0.00  0.00    +0.005 C 
ATOM     25  C   UNL     1      -2.299  -2.580   0.016  0.00  0.00    +0.022 C 
ATOM     26  C   UNL     1      -1.340  -2.953   1.148  0.00  0.00    +0.070 C 
ATOM     27  C   UNL     1       0.060  -2.426   0.825  0.00  0.00    +0.022 C 
ATOM     28  C   UNL     1       0.010  -0.904   0.679  0.00  0.00    +0.005 C 
ENDBRANCH  20  26
ENDBRANCH   1  20
TORSDOF 8
