REMARK  Name = ZINC66863664
REMARK  4 active torsions:
REMARK  status: ('A' for Active; 'I' for Inactive)
REMARK    1  A    between atoms: C_1  and  C_2
REMARK    2  A    between atoms: C_7  and  N_11
REMARK    3  A    between atoms: N_11  and  C_12
REMARK    4  A    between atoms: C_12  and  C_13
REMARK                            x       y       z     vdW  Elec       q    Type
REMARK                         _______ _______ _______ _____ _____    ______ ____
ROOT
ATOM      1  N   UNL     1       0.085  -6.279   0.011  0.00  0.00    -0.338 N 
ATOM      2  H   UNL     1       0.092  -6.582   0.933  0.00  0.00    +0.146 HD
ENDROOT
BRANCH   1   9
ATOM      3  C   UNL     1      -0.018   1.503   0.010  0.00  0.00    +0.073 C 
ATOM      4  C   UNL     1       0.002  -0.004   0.002  0.00  0.00    +0.076 A 
ATOM      5  N   UNL     1       0.009  -0.817  -1.019  0.00  0.00    -0.244 NA
ATOM      6  C   UNL     1       0.028  -2.161  -0.883  0.00  0.00    +0.079 A 
ATOM      7  C   UNL     1       0.037  -3.142  -1.902  0.00  0.00    +0.031 A 
ATOM      8  C   UNL     1       0.055  -4.466  -1.596  0.00  0.00    +0.025 A 
ATOM      9  C   UNL     1       0.066  -4.911  -0.275  0.00  0.00    +0.029 A 
ATOM     10  C   UNL     1       0.058  -3.978   0.753  0.00  0.00    +0.040 A 
ATOM     11  C   UNL     1       0.040  -2.639   0.447  0.00  0.00    +0.041 A 
ATOM     12  S   UNL     1       0.031  -1.132   1.388  0.00  0.00    -0.072 S 
ENDBRANCH   1   9
BRANCH   1  13
ATOM     13  C   UNL     1       0.092  -7.256  -1.081  0.00  0.00    +0.157 C 
BRANCH  13  14
ATOM     14  C   UNL     1       0.112  -8.650  -0.508  0.00  0.00    +0.066 A 
ATOM     15  C   UNL     1      -0.960  -9.496  -0.714  0.00  0.00    +0.095 A 
ATOM     16  C   UNL     1      -0.919 -10.786  -0.172  0.00  0.00    +0.259 A 
ATOM     17  O   UNL     1      -1.851 -11.557  -0.336  0.00  0.00    -0.267 OA
ATOM     18  N   UNL     1       0.168 -11.163   0.535  0.00  0.00    -0.268 N 
ATOM     19  C   UNL     1       0.223 -12.415   1.068  0.00  0.00    +0.096 A 
ATOM     20  C   UNL     1       1.301 -12.816   1.780  0.00  0.00    +0.018 A 
ATOM     21  C   UNL     1       2.379 -11.942   1.978  0.00  0.00    +0.005 A 
ATOM     22  C   UNL     1       2.333 -10.687   1.448  0.00  0.00    +0.047 A 
ATOM     23  C   UNL     1       1.204 -10.288   0.710  0.00  0.00    +0.141 A 
ATOM     24  N   UNL     1       1.159  -9.064   0.187  0.00  0.00    -0.232 NA
ENDBRANCH  13  14
ENDBRANCH   1  13
TORSDOF 3
