REMARK  Name = ZINC34787354
REMARK  9 active torsions:
REMARK  status: ('A' for Active; 'I' for Inactive)
REMARK    1  A    between atoms: C_1  and  C_2
REMARK    2  A    between atoms: C_2  and  C_3
REMARK    3  A    between atoms: C_4  and  C_32
REMARK    4  A    between atoms: C_8  and  N_19
REMARK    5  A    between atoms: C_13  and  C_18
REMARK    6  A    between atoms: C_15  and  C_17
REMARK    7  A    between atoms: N_19  and  N_20
REMARK    8  A    between atoms: N_19  and  N_27
REMARK    9  A    between atoms: N_20  and  C_21
REMARK                            x       y       z     vdW  Elec       q    Type
REMARK                         _______ _______ _______ _____ _____    ______ ____
ROOT
ATOM      1  C   UNL     1       0.181   0.613  -0.430  0.00  0.00    -0.025 A 
ATOM      2  C   UNL     1      -0.825   1.002  -1.227  0.00  0.00    -0.007 A 
ATOM      3  S   UNL     1      -0.116   0.920  -2.861  0.00  0.00    -0.073 S 
ATOM      4  C   UNL     1       1.512   0.366  -2.429  0.00  0.00    +0.116 A 
ATOM      5  C   UNL     1       1.461   0.265  -1.021  0.00  0.00    +0.054 A 
ATOM      6  C   UNL     1       2.664  -0.165  -0.395  0.00  0.00    +0.164 A 
ATOM      7  N   UNL     1       3.723  -0.429  -1.142  0.00  0.00    -0.192 NA
ATOM      8  C   UNL     1       3.703  -0.308  -2.462  0.00  0.00    +0.254 A 
ATOM      9  N   UNL     1       2.608   0.077  -3.101  0.00  0.00    -0.203 NA
ATOM     10  N   UNL     1       4.853  -0.603  -3.193  0.00  0.00    -0.202 N 
ATOM     11  C   UNL     1       4.987  -0.521  -4.543  0.00  0.00    +0.045 A 
ATOM     12  C   UNL     1       6.251  -0.890  -4.853  0.00  0.00    +0.048 A 
ATOM     13  C   UNL     1       6.912  -1.207  -3.660  0.00  0.00    +0.061 A 
ATOM     14  N   UNL     1       6.079  -1.031  -2.667  0.00  0.00    -0.169 NA
ATOM     15  C   UNL     1       8.342  -1.667  -3.540  0.00  0.00    +0.067 C 
ATOM     16  C   UNL     1       3.920  -0.097  -5.519  0.00  0.00    +0.066 C 
ATOM     17  C   UNL     1      -2.222   1.410  -0.836  0.00  0.00    +0.052 C 
ENDROOT
BRANCH   1  19
ATOM     18  C   UNL     1       0.181   1.935   1.668  0.00  0.00    +0.009 C 
ATOM     19  C   UNL     1      -0.014   0.543   1.063  0.00  0.00    +0.033 C 
ENDBRANCH   1  19
BRANCH   6  20
ATOM     20  N   UNL     1       2.726  -0.303   0.980  0.00  0.00    -0.178 N 
BRANCH  20  21
ATOM     21  N   UNL     1       3.504   0.544   1.718  0.00  0.00    -0.211 NA
ATOM     22  C   UNL     1       4.940   0.301   1.464  0.00  0.00    +0.107 C 
ATOM     23  C   UNL     1       5.347   1.378   0.428  0.00  0.00    +0.018 C 
ATOM     24  C   UNL     1       4.512   2.598   0.901  0.00  0.00    +0.018 C 
ATOM     25  C   UNL     1       3.202   1.951   1.398  0.00  0.00    +0.107 C 
ENDBRANCH  20  21
BRANCH  20  26
ATOM     26  N   UNL     1       2.010  -1.287   1.600  0.00  0.00    -0.221 NA
ATOM     27  H   UNL     1       1.251  -1.605   1.016  0.00  0.00    +0.146 HD
BRANCH  26  28
ATOM     28  C   UNL     1       2.879  -2.405   1.990  0.00  0.00    +0.074 C 
ATOM     29  C   UNL     1       2.966  -3.409   0.839  0.00  0.00    +0.020 C 
ATOM     30  C   UNL     1       3.871  -4.574   1.245  0.00  0.00    +0.002 C 
ATOM     31  C   UNL     1       3.290  -5.264   2.481  0.00  0.00    +0.000 C 
ATOM     32  C   UNL     1       3.203  -4.260   3.632  0.00  0.00    +0.002 C 
ATOM     33  C   UNL     1       2.298  -3.095   3.226  0.00  0.00    +0.020 C 
ENDBRANCH  26  28
ENDBRANCH  20  26
ENDBRANCH   6  20
TORSDOF 5
