REMARK  Name = ZINC13256657
REMARK  6 active torsions:
REMARK  status: ('A' for Active; 'I' for Inactive)
REMARK    1  A    between atoms: C_1  and  C_2
REMARK    2  A    between atoms: C_10  and  C_11
REMARK    3  A    between atoms: N_13  and  C_14
REMARK    4  A    between atoms: C_14  and  C_16
REMARK    5  A    between atoms: C_14  and  C_19
REMARK    6  A    between atoms: C_16  and  C_17
REMARK                            x       y       z     vdW  Elec       q    Type
REMARK                         _______ _______ _______ _____ _____    ______ ____
ROOT
ATOM      1  C   UNL     1       0.786  -2.555   1.555  0.00  0.00    +0.280 C 
ATOM      2  O   UNL     1       1.519  -2.196   0.653  0.00  0.00    -0.267 OA
ATOM      3  N   UNL     1      -0.537  -2.687   1.335  0.00  0.00    -0.301 N 
ATOM      4  H   UNL     1      -1.111  -3.041   2.033  0.00  0.00    +0.150 HD
ENDROOT
BRANCH   1  14
ATOM      5  C   UNL     1       3.794  -2.343   2.318  0.00  0.00    +0.048 C 
ATOM      6  C   UNL     1       2.656  -2.753   3.218  0.00  0.00    +0.008 A 
ATOM      7  C   UNL     1       2.743  -3.128   4.628  0.00  0.00    +0.025 A 
ATOM      8  C   UNL     1       3.791  -3.232   5.546  0.00  0.00    +0.012 A 
ATOM      9  C   UNL     1       3.534  -3.628   6.828  0.00  0.00    +0.002 A 
ATOM     10  C   UNL     1       2.237  -3.928   7.224  0.00  0.00    +0.024 A 
ATOM     11  C   UNL     1       1.188  -3.833   6.334  0.00  0.00    +0.084 A 
ATOM     12  C   UNL     1       1.427  -3.431   5.024  0.00  0.00    +0.154 A 
ATOM     13  O   UNL     1       0.628  -3.249   3.954  0.00  0.00    -0.448 OA
ATOM     14  C   UNL     1       1.343  -2.845   2.884  0.00  0.00    +0.193 A 
ATOM     15 CL   UNL     1      -0.426  -4.213   6.848  0.00  0.00    -0.080 Cl
ENDBRANCH   1  14
BRANCH   3  16
ATOM     16  C   UNL     1      -1.108  -2.296   0.044  0.00  0.00    +0.114 C 
BRANCH  16  17
ATOM     17  C   UNL     1      -2.433  -2.987  -0.149  0.00  0.00    -0.027 A 
ATOM     18  C   UNL     1      -3.302  -3.125   0.917  0.00  0.00    +0.007 A 
ATOM     19  C   UNL     1      -4.520  -3.754   0.740  0.00  0.00    +0.020 A 
ATOM     20  C   UNL     1      -4.865  -4.255  -0.503  0.00  0.00    +0.041 A 
ATOM     21  C   UNL     1      -3.992  -4.122  -1.569  0.00  0.00    +0.020 A 
ATOM     22  C   UNL     1      -2.777  -3.488  -1.391  0.00  0.00    +0.007 A 
ATOM     23 CL   UNL     1      -6.391  -5.051  -0.725  0.00  0.00    -0.084 Cl
ENDBRANCH  16  17
BRANCH  16  24
ATOM     24  C   UNL     1      -1.314  -0.780   0.015  0.00  0.00    +0.152 C 
BRANCH  24  25
ATOM     25  C   UNL     1      -1.744  -0.358  -1.366  0.00  0.00    +0.358 C 
ATOM     26  O   UNL     1      -1.758  -1.163  -2.267  0.00  0.00    -0.246 OA
ATOM     27  O   UNL     1      -2.113   0.912  -1.595  0.00  0.00    -0.246 OA
ENDBRANCH  24  25
ENDBRANCH  16  24
ENDBRANCH   3  16
TORSDOF 5
