REMARK  Name = ZINC63127535
REMARK  7 active torsions:
REMARK  status: ('A' for Active; 'I' for Inactive)
REMARK    1  A    between atoms: C_1  and  C_2
REMARK    2  A    between atoms: C_2  and  C_3
REMARK    3  A    between atoms: C_2  and  C_4
REMARK    4  A    between atoms: C_6  and  C_18
REMARK    5  A    between atoms: N_10  and  C_11
REMARK    6  A    between atoms: N_20  and  N_21
REMARK    7  A    between atoms: C_22  and  C_24
REMARK                            x       y       z     vdW  Elec       q    Type
REMARK                         _______ _______ _______ _____ _____    ______ ____
ROOT
ATOM      1  C   UNL     1      -2.597   1.261  -1.431  0.00  0.00    +0.259 C 
ATOM      2  O   UNL     1      -3.300   1.388  -2.418  0.00  0.00    -0.269 OA
ATOM      3  N   UNL     1      -2.028   2.344  -0.865  0.00  0.00    -0.230 N 
ATOM      4  H   UNL     1      -1.411   2.236  -0.124  0.00  0.00    +0.173 HD
ENDROOT
BRANCH   1   6
ATOM      5  C   UNL     1      -1.237  -0.431   0.026  0.00  0.00    +0.133 C 
ATOM      6  C   UNL     1      -2.377  -0.023  -0.880  0.00  0.00    +0.053 C 
ATOM      7  H   UNL     1      -3.062  -3.070  -0.391  0.00  0.00    +0.169 HD
ATOM      8  C   UNL     1      -3.144  -1.115  -1.061  0.00  0.00    +0.098 C 
ATOM      9  N   UNL     1      -2.655  -2.190  -0.390  0.00  0.00    -0.270 N 
ATOM     10  N   UNL     1      -1.483  -1.856   0.307  0.00  0.00    -0.246 N 
BRANCH  10  11
ATOM     11  C   UNL     1      -0.707  -2.701   1.103  0.00  0.00    +0.050 A 
ATOM     12  C   UNL     1       0.341  -2.183   1.853  0.00  0.00    +0.025 A 
ATOM     13  C   UNL     1       1.107  -3.021   2.640  0.00  0.00    +0.003 A 
ATOM     14  C   UNL     1       0.832  -4.375   2.682  0.00  0.00    +0.020 A 
ATOM     15  C   UNL     1      -0.211  -4.896   1.935  0.00  0.00    +0.043 A 
ATOM     16  C   UNL     1      -0.985  -4.061   1.151  0.00  0.00    +0.044 A 
ATOM     17 CL   UNL     1      -0.552  -6.597   1.990  0.00  0.00    -0.083 Cl
ENDBRANCH  10  11
BRANCH   5  19
ATOM     18  C   UNL     1       0.034  -0.890  -2.075  0.00  0.00    +0.009 C 
ATOM     19  C   UNL     1       0.105  -0.251  -0.687  0.00  0.00    +0.010 C 
ATOM     20  C   UNL     1       0.411   1.241  -0.828  0.00  0.00    +0.009 C 
ENDBRANCH   5  19
ENDBRANCH   1   6
BRANCH   3  21
ATOM     21  N   UNL     1      -2.328   3.625  -1.346  0.00  0.00    -0.230 N 
ATOM     22  C   UNL     1      -1.759   4.707  -0.780  0.00  0.00    +0.258 C 
ATOM     23  O   UNL     1      -0.985   4.572   0.149  0.00  0.00    -0.269 OA
ATOM     24  H   UNL     1      -2.945   3.733  -2.087  0.00  0.00    +0.173 HD
BRANCH  22  25
ATOM     25  C   UNL     1      -2.073   6.049  -1.283  0.00  0.00    +0.044 C 
ATOM     26  C   UNL     1      -1.577   7.248  -0.822  0.00  0.00    +0.008 A 
ATOM     27  C   UNL     1      -0.666   7.580   0.213  0.00  0.00    +0.010 A 
ATOM     28  C   UNL     1      -0.351   8.871   0.453  0.00  0.00    +0.001 A 
ATOM     29  C   UNL     1      -0.893   9.931  -0.291  0.00  0.00    +0.002 A 
ATOM     30  C   UNL     1      -1.769   9.723  -1.298  0.00  0.00    +0.026 A 
ATOM     31  C   UNL     1      -2.168   8.345  -1.627  0.00  0.00    +0.043 A 
ATOM     32  N   UNL     1      -2.977   7.865  -2.528  0.00  0.00    -0.380 N 
ATOM     33  C   UNL     1      -3.005   6.403  -2.421  0.00  0.00    +0.154 C 
ATOM     34  H   UNL     1      -3.479   8.391  -3.170  0.00  0.00    +0.160 HD
ENDBRANCH  22  25
ENDBRANCH   3  21
TORSDOF 5
