REMARK  Name = ZINC09491399
REMARK  10 active torsions:
REMARK  status: ('A' for Active; 'I' for Inactive)
REMARK    1  A    between atoms: C_1  and  C_2
REMARK    2  A    between atoms: C_5  and  N_9
REMARK    3  A    between atoms: C_6  and  C_8
REMARK    4  A    between atoms: C_10  and  C_26
REMARK    5  A    between atoms: C_13  and  S_14
REMARK    6  A    between atoms: S_14  and  C_15
REMARK    7  A    between atoms: C_15  and  C_16
REMARK    8  A    between atoms: N_18  and  C_19
REMARK    9  A    between atoms: C_19  and  C_20
REMARK   10  A    between atoms: C_26  and  C_27
REMARK                            x       y       z     vdW  Elec       q    Type
REMARK                         _______ _______ _______ _____ _____    ______ ____
ROOT
ATOM      1  N   UNL     1       8.097   7.584  -2.080  0.00  0.00    -0.274 N 
ATOM      2  C   UNL     1       9.367   7.174  -1.769  0.00  0.00    +0.143 A 
ATOM      3  N   UNL     1       9.257   6.129  -0.998  0.00  0.00    -0.133 NA
ATOM      4  N   UNL     1       8.018   5.856  -0.796  0.00  0.00    -0.122 NA
ATOM      5  C   UNL     1       7.260   6.718  -1.433  0.00  0.00    +0.197 A 
ENDROOT
BRANCH   1  10
ATOM      6  C   UNL     1       6.621  11.975  -5.361  0.00  0.00    +0.044 C 
ATOM      7  C   UNL     1       7.013  10.809  -4.490  0.00  0.00    -0.050 A 
ATOM      8  C   UNL     1       7.109  10.973  -3.120  0.00  0.00    +0.005 A 
ATOM      9  C   UNL     1       7.463   9.905  -2.319  0.00  0.00    +0.027 A 
ATOM     10  C   UNL     1       7.732   8.669  -2.891  0.00  0.00    +0.053 A 
ATOM     11  C   UNL     1       7.635   8.508  -4.266  0.00  0.00    -0.026 A 
ATOM     12  C   UNL     1       7.275   9.578  -5.062  0.00  0.00    +0.008 A 
ATOM     13  C   UNL     1       7.922   7.166  -4.890  0.00  0.00    +0.046 C 
ENDBRANCH   1  10
BRANCH   5  14
ATOM     14  S   UNL     1       5.498   6.748  -1.457  0.00  0.00    -0.076 S 
BRANCH  14  15
ATOM     15  C   UNL     1       5.146   5.320  -0.402  0.00  0.00    +0.173 C 
BRANCH  15  16
ATOM     16  C   UNL     1       3.654   5.146  -0.274  0.00  0.00    +0.223 C 
ATOM     17  O   UNL     1       2.904   5.912  -0.841  0.00  0.00    -0.275 OA
ATOM     18  N   UNL     1       3.155   4.139   0.470  0.00  0.00    -0.312 N 
ATOM     19  H   UNL     1       3.755   3.527   0.923  0.00  0.00    +0.149 HD
BRANCH  18  20
ATOM     20  C   UNL     1       1.705   3.970   0.594  0.00  0.00    +0.135 C 
BRANCH  20  21
ATOM     21  C   UNL     1       1.406   2.764   1.486  0.00  0.00    +0.135 C 
ATOM     22  C   UNL     1      -0.123   2.560   1.636  0.00  0.00    +0.035 C 
ATOM     23  C   UNL     1      -0.218   1.052   1.971  0.00  0.00    +0.031 C 
ATOM     24  C   UNL     1       1.113   0.467   1.461  0.00  0.00    +0.160 C 
ATOM     25  O   UNL     1       1.849   1.543   0.855  0.00  0.00    -0.375 OA
ENDBRANCH  20  21
ENDBRANCH  18  20
ENDBRANCH  15  16
ENDBRANCH  14  15
ENDBRANCH   5  14
BRANCH   2  26
ATOM     26  C   UNL     1      10.651   7.809  -2.237  0.00  0.00    +0.112 C 
BRANCH  26  27
ATOM     27  C   UNL     1      11.150   8.766  -1.185  0.00  0.00    -0.032 A 
ATOM     28  C   UNL     1      10.875  10.096  -1.285  0.00  0.00    +0.004 A 
ATOM     29  C   UNL     1      11.328  10.996  -0.322  0.00  0.00    +0.001 A 
ATOM     30  C   UNL     1      12.058  10.572   0.746  0.00  0.00    +0.008 A 
ATOM     31  C   UNL     1      12.361   9.207   0.882  0.00  0.00    -0.018 A 
ATOM     32  C   UNL     1      11.896   8.291  -0.094  0.00  0.00    -0.014 A 
ATOM     33  C   UNL     1      12.204   6.926   0.040  0.00  0.00    +0.009 A 
ATOM     34  C   UNL     1      12.934   6.502   1.108  0.00  0.00    +0.001 A 
ATOM     35  C   UNL     1      13.387   7.403   2.070  0.00  0.00    +0.001 A 
ATOM     36  C   UNL     1      13.113   8.732   1.971  0.00  0.00    +0.008 A 
ENDBRANCH  26  27
ENDBRANCH   2  26
TORSDOF 8
