REMARK  Name = ZINC22913894
REMARK  6 active torsions:
REMARK  status: ('A' for Active; 'I' for Inactive)
REMARK    1  A    between atoms: C_1  and  C_2
REMARK    2  A    between atoms: C_2  and  C_4
REMARK    3  A    between atoms: C_2  and  N_19
REMARK    4  A    between atoms: N_6  and  C_7
REMARK    5  A    between atoms: C_12  and  C_13
REMARK    6  A    between atoms: N_22  and  C_25
REMARK                            x       y       z     vdW  Elec       q    Type
REMARK                         _______ _______ _______ _____ _____    ______ ____
ROOT
ATOM      1  C   UNL     1      -3.573   4.062   6.519  0.00  0.00    -0.004 C 
ATOM      2  C   UNL     1      -4.134   4.682   5.238  0.00  0.00    +0.017 C 
ENDROOT
BRANCH   2   3
ATOM      3  N   UNL     1      -3.595   3.968   4.072  0.00  0.00    +0.389 N 
ATOM      4  C   UNL     1      -2.140   3.798   4.185  0.00  0.00    -0.062 C 
ATOM      5  C   UNL     1      -1.608   3.123   2.919  0.00  0.00    +0.066 C 
ATOM      6  N   UNL     1      -2.275   1.826   2.741  0.00  0.00    -0.301 NA
ATOM      7  C   UNL     1      -3.731   1.996   2.628  0.00  0.00    +0.066 C 
ATOM      8  C   UNL     1      -4.262   2.671   3.894  0.00  0.00    -0.062 C 
ATOM      9  H   UNL     1      -3.797   4.579   3.180  0.00  0.00    -0.081 HD
BRANCH   6  10
ATOM     10  C   UNL     1      -1.737   1.112   1.575  0.00  0.00    +0.079 C 
ATOM     11  C   UNL     1      -2.412  -0.266   1.465  0.00  0.00    +0.043 C 
ATOM     12  C   UNL     1      -1.614  -1.114   0.433  0.00  0.00    +0.167 C 
ATOM     13  S   UNL     1       0.113  -0.657   0.884  0.00  0.00    -0.029 S 
ATOM     14  O   UNL     1       0.609  -1.596   1.828  0.00  0.00    -0.174 OA
ATOM     15  O   UNL     1       0.849  -0.405  -0.305  0.00  0.00    -0.174 OA
ATOM     16  C   UNL     1      -0.208   0.939   1.740  0.00  0.00    +0.184 C 
ENDBRANCH   6  10
ENDBRANCH   2   3
BRANCH   2  17
ATOM     17  C   UNL     1      -3.736   6.133   5.166  0.00  0.00    +0.203 C 
ATOM     18  O   UNL     1      -2.892   6.492   4.373  0.00  0.00    -0.277 OA
ATOM     19  N   UNL     1      -4.318   7.033   5.984  0.00  0.00    -0.286 N 
ATOM     20  H   UNL     1      -5.147   6.726   6.638  0.00  0.00    +0.155 HD
BRANCH  19  21
ATOM     21  C   UNL     1      -3.869   8.356   6.000  0.00  0.00    +0.041 A 
ATOM     22  C   UNL     1      -2.600   8.666   5.533  0.00  0.00    +0.024 A 
ATOM     23  C   UNL     1      -2.158   9.975   5.550  0.00  0.00    +0.002 A 
ATOM     24  C   UNL     1      -2.976  10.983   6.030  0.00  0.00    +0.001 A 
ATOM     25  C   UNL     1      -4.241  10.689   6.497  0.00  0.00    +0.010 A 
ATOM     26  C   UNL     1      -4.700   9.374   6.481  0.00  0.00    +0.003 A 
BRANCH  26  27
ATOM     27  C   UNL     1      -6.061   9.054   6.975  0.00  0.00    -0.016 A 
ATOM     28  C   UNL     1      -6.924   8.284   6.198  0.00  0.00    +0.008 A 
ATOM     29  C   UNL     1      -8.188   7.984   6.666  0.00  0.00    +0.001 A 
ATOM     30  C   UNL     1      -8.602   8.457   7.899  0.00  0.00    +0.000 A 
ATOM     31  C   UNL     1      -7.751   9.226   8.672  0.00  0.00    +0.001 A 
ATOM     32  C   UNL     1      -6.483   9.527   8.216  0.00  0.00    +0.008 A 
ENDBRANCH  26  27
ENDBRANCH  19  21
ENDBRANCH   2  17
TORSDOF 5
