REMARK  Name = ZINC13551404
REMARK  11 active torsions:
REMARK  status: ('A' for Active; 'I' for Inactive)
REMARK    1  A    between atoms: C_1  and  C_2
REMARK    2  A    between atoms: C_3  and  C_21
REMARK    3  A    between atoms: C_9  and  O_19
REMARK    4  A    between atoms: C_15  and  C_17
REMARK    5  A    between atoms: C_15  and  C_18
REMARK    6  A    between atoms: O_19  and  C_20
REMARK    7  A    between atoms: C_21  and  C_22
REMARK    8  A    between atoms: C_22  and  C_23
REMARK    9  A    between atoms: N_25  and  C_26
REMARK   10  A    between atoms: C_26  and  C_27
REMARK   11  A    between atoms: C_27  and  C_28
REMARK                            x       y       z     vdW  Elec       q    Type
REMARK                         _______ _______ _______ _____ _____    ______ ____
ROOT
ATOM      1  C   UNL     1       0.263   1.493  -0.024  0.00  0.00    +0.045 C 
ATOM      2  C   UNL     1       0.135  -0.009  -0.014  0.00  0.00    -0.026 A 
ATOM      3  C   UNL     1      -0.096  -0.691  -1.166  0.00  0.00    +0.041 A 
ATOM      4  C   UNL     1      -0.212  -2.095  -1.139  0.00  0.00    +0.341 A 
ATOM      5  O   UNL     1      -0.420  -2.699  -2.176  0.00  0.00    -0.245 OA
ATOM      6  O   UNL     1      -0.096  -2.778   0.012  0.00  0.00    -0.421 OA
ATOM      7  C   UNL     1       0.131  -2.136   1.180  0.00  0.00    +0.149 A 
ATOM      8  C   UNL     1       0.259  -0.736   1.197  0.00  0.00    +0.063 A 
ATOM      9  C   UNL     1       0.503  -0.074   2.413  0.00  0.00    +0.134 A 
ATOM     10  C   UNL     1       0.619  -0.807   3.575  0.00  0.00    +0.092 A 
ATOM     11  C   UNL     1       0.494  -2.197   3.553  0.00  0.00    +0.131 A 
ATOM     12  C   UNL     1       0.240  -2.856   2.363  0.00  0.00    +0.038 A 
ATOM     13  C   UNL     1       0.089  -4.356   2.310  0.00  0.00    +0.046 C 
ATOM     14  C   UNL     1       0.664  -4.978   3.584  0.00  0.00    +0.052 C 
ATOM     15  C   UNL     1       0.109  -4.207   4.789  0.00  0.00    +0.105 C 
ATOM     16  O   UNL     1       0.621  -2.869   4.727  0.00  0.00    -0.486 OA
ATOM     17  C   UNL     1      -1.420  -4.199   4.736  0.00  0.00    +0.055 C 
ATOM     18  C   UNL     1       0.577  -4.871   6.086  0.00  0.00    +0.055 C 
ENDROOT
BRANCH   9  19
ATOM     19  O   UNL     1       0.625   1.278   2.442  0.00  0.00    -0.494 OA
ATOM     20  C   UNL     1       0.873   1.879   3.715  0.00  0.00    +0.277 C 
ENDBRANCH   9  19
BRANCH   3  21
ATOM     21  C   UNL     1      -0.228   0.053  -2.470  0.00  0.00    +0.052 C 
BRANCH  21  22
ATOM     22  C   UNL     1       1.133   0.108  -3.166  0.00  0.00    +0.100 C 
BRANCH  22  23
ATOM     23  C   UNL     1       1.001   0.852  -4.470  0.00  0.00    +0.213 C 
ATOM     24  O   UNL     1      -0.076   1.294  -4.810  0.00  0.00    -0.276 OA
ATOM     25  N   UNL     1       2.079   1.025  -5.259  0.00  0.00    -0.315 N 
ATOM     26  H   UNL     1       2.941   0.672  -4.988  0.00  0.00    +0.149 HD
BRANCH  25  27
ATOM     27  C   UNL     1       1.951   1.748  -6.527  0.00  0.00    +0.110 C 
BRANCH  27  28
ATOM     28  C   UNL     1       3.312   1.804  -7.223  0.00  0.00    +0.073 C 
BRANCH  28  29
ATOM     29  C   UNL     1       3.180   2.547  -8.527  0.00  0.00    +0.035 A 
ATOM     30  C   UNL     1       2.791   2.032  -9.709  0.00  0.00    +0.105 A 
ATOM     31  N   UNL     1       2.805   3.020 -10.617  0.00  0.00    -0.352 N 
ATOM     32  C   UNL     1       3.188   4.127 -10.042  0.00  0.00    +0.171 A 
ATOM     33  N   UNL     1       3.426   3.877  -8.736  0.00  0.00    -0.350 N 
ATOM     34  H   UNL     1       3.719   4.520  -8.072  0.00  0.00    +0.166 HD
ATOM     35  H   UNL     1       2.569   2.925 -11.553  0.00  0.00    +0.166 HD
ENDBRANCH  28  29
ENDBRANCH  27  28
ENDBRANCH  25  27
ENDBRANCH  22  23
ENDBRANCH  21  22
ENDBRANCH   3  21
TORSDOF 7
