REMARK  Name = ZINC46699041
REMARK  10 active torsions:
REMARK  status: ('A' for Active; 'I' for Inactive)
REMARK    1  A    between atoms: C_1  and  C_2
REMARK    2  A    between atoms: C_9  and  C_11
REMARK    3  A    between atoms: N_13  and  N_14
REMARK    4  A    between atoms: C_15  and  C_17
REMARK    5  A    between atoms: C_20  and  O_31
REMARK    6  A    between atoms: C_22  and  O_29
REMARK    7  A    between atoms: C_23  and  O_27
REMARK    8  A    between atoms: O_27  and  C_28
REMARK    9  A    between atoms: O_29  and  C_30
REMARK   10  A    between atoms: O_31  and  C_32
REMARK                            x       y       z     vdW  Elec       q    Type
REMARK                         _______ _______ _______ _____ _____    ______ ____
ROOT
ATOM      1  N   UNL     1       2.227  -7.558   3.270  0.00  0.00    -0.229 N 
ATOM      2  C   UNL     1       1.838  -8.839   3.118  0.00  0.00    +0.276 C 
ATOM      3  O   UNL     1       0.891  -9.107   2.402  0.00  0.00    -0.267 OA
ATOM      4  H   UNL     1       2.982  -7.345   3.841  0.00  0.00    +0.173 HD
ENDROOT
BRANCH   2   5
ATOM      5  C   UNL     1       2.556  -9.912   3.816  0.00  0.00    +0.104 A 
ATOM      6  C   UNL     1       2.263 -11.238   3.739  0.00  0.00    +0.044 A 
ATOM      7  C   UNL     1       3.184 -11.933   4.555  0.00  0.00    +0.046 A 
ATOM      8  C   UNL     1       3.365 -13.295   4.859  0.00  0.00    +0.133 A 
ATOM      9  C   UNL     1       4.378 -13.676   5.713  0.00  0.00    +0.095 A 
ATOM     10  C   UNL     1       5.223 -12.722   6.275  0.00  0.00    +0.167 A 
ATOM     11  C   UNL     1       5.058 -11.377   5.985  0.00  0.00    +0.186 A 
ATOM     12  C   UNL     1       4.040 -10.970   5.124  0.00  0.00    +0.096 A 
ATOM     13  N   UNL     1       3.643  -9.738   4.655  0.00  0.00    -0.347 N 
ATOM     14  H   UNL     1       4.055  -8.888   4.877  0.00  0.00    +0.166 HD
BRANCH  11  15
ATOM     15  O   UNL     1       5.889 -10.453   6.541  0.00  0.00    -0.490 OA
ATOM     16  C   UNL     1       7.077 -10.129   5.816  0.00  0.00    +0.277 C 
ENDBRANCH  11  15
BRANCH  10  17
ATOM     17  O   UNL     1       6.218 -13.113   7.115  0.00  0.00    -0.491 OA
ATOM     18  C   UNL     1       6.335 -14.514   7.373  0.00  0.00    +0.277 C 
ENDBRANCH  10  17
BRANCH   8  19
ATOM     19  O   UNL     1       2.544 -14.230   4.315  0.00  0.00    -0.494 OA
ATOM     20  C   UNL     1       2.787 -15.593   4.670  0.00  0.00    +0.277 C 
ENDBRANCH   8  19
ENDBRANCH   2   5
BRANCH   1  23
ATOM     21  C   UNL     1       1.931  -5.253   2.755  0.00  0.00    +0.267 C 
ATOM     22  O   UNL     1       2.878  -4.985   3.471  0.00  0.00    -0.268 OA
ATOM     23  N   UNL     1       1.542  -6.534   2.603  0.00  0.00    -0.230 N 
ATOM     24  H   UNL     1       0.787  -6.747   2.032  0.00  0.00    +0.173 HD
BRANCH  21  32
ATOM     25  C   UNL     1      -0.019   1.526   0.010  0.00  0.00    +0.008 C 
ATOM     26  C   UNL     1       0.002  -0.004   0.002  0.00  0.00    -0.009 C 
ATOM     27  C   UNL     1      -1.435  -0.533   0.009  0.00  0.00    +0.009 C 
ATOM     28  C   UNL     1      -1.408  -2.041  -0.272  0.00  0.00    +0.043 C 
ATOM     29  C   UNL     1      -0.377  -2.671   0.618  0.00  0.00    -0.006 A 
ATOM     30  C   UNL     1       0.604  -2.027   1.313  0.00  0.00    -0.036 A 
ATOM     31  C   UNL     1       1.449  -2.818   2.077  0.00  0.00    +0.024 A 
ATOM     32  C   UNL     1       1.214  -4.181   2.057  0.00  0.00    +0.076 A 
ATOM     33  S   UNL     1      -0.189  -4.294   0.963  0.00  0.00    -0.088 S 
ATOM     34  C   UNL     1       0.745  -0.509   1.239  0.00  0.00    +0.039 C 
ENDBRANCH  21  32
ENDBRANCH   1  23
TORSDOF 6
