REMARK  Name = ZINC35954279
REMARK  14 active torsions:
REMARK  status: ('A' for Active; 'I' for Inactive)
REMARK    1  A    between atoms: C_1  and  C_2
REMARK    2  A    between atoms: C_2  and  C_3
REMARK    3  A    between atoms: C_4  and  C_24
REMARK    4  A    between atoms: C_5  and  N_15
REMARK    5  A    between atoms: N_6  and  C_8
REMARK    6  A    between atoms: N_18  and  C_21
REMARK    7  A    between atoms: C_21  and  C_22
REMARK    8  A    between atoms: C_21  and  C_23
REMARK    9  A    between atoms: C_24  and  N_25
REMARK   10  A    between atoms: N_25  and  C_26
REMARK   11  A    between atoms: C_26  and  C_27
REMARK   12  A    between atoms: C_27  and  C_28
REMARK   13  A    between atoms: C_27  and  C_29
REMARK   14  A    between atoms: C_30  and  C_32
REMARK                            x       y       z     vdW  Elec       q    Type
REMARK                         _______ _______ _______ _____ _____    ______ ____
ROOT
ATOM      1  C   UNL     1       0.171  -1.097   0.886  0.00  0.00    +0.070 A 
ATOM      2  C   UNL     1       1.367  -0.476   1.257  0.00  0.00    +0.033 A 
ATOM      3  C   UNL     1       1.596  -0.760   2.569  0.00  0.00    +0.130 A 
ATOM      4  N   UNL     1       0.567  -1.538   3.003  0.00  0.00    -0.218 N 
ATOM      5  N   UNL     1      -0.310  -1.726   1.928  0.00  0.00    -0.169 NA
ENDROOT
BRANCH   4   6
ATOM      6  C   UNL     1       0.411  -2.055   4.298  0.00  0.00    +0.068 A 
ATOM      7  C   UNL     1       1.456  -2.740   4.903  0.00  0.00    +0.030 A 
ATOM      8  C   UNL     1       1.300  -3.248   6.178  0.00  0.00    +0.040 A 
ATOM      9  C   UNL     1       0.104  -3.074   6.852  0.00  0.00    +0.124 A 
ATOM     10  C   UNL     1      -0.939  -2.391   6.250  0.00  0.00    +0.040 A 
ATOM     11  C   UNL     1      -0.786  -1.877   4.978  0.00  0.00    +0.030 A 
ATOM     12  F   UNL     1      -0.047  -3.572   8.099  0.00  0.00    -0.205 F 
ENDBRANCH   4   6
BRANCH   3  13
ATOM     13  N   UNL     1       2.682  -0.333   3.327  0.00  0.00    -0.318 N 
ATOM     14  C   UNL     1       2.721   1.023   3.897  0.00  0.00    +0.088 C 
ATOM     15  C   UNL     1       3.061   0.915   5.386  0.00  0.00    -0.059 C 
ATOM     16  N   UNL     1       4.306   0.153   5.549  0.00  0.00    +0.383 N 
ATOM     17  C   UNL     1       4.112  -1.227   5.087  0.00  0.00    -0.059 C 
ATOM     18  C   UNL     1       3.822  -1.226   3.586  0.00  0.00    +0.088 C 
ATOM     19  H   UNL     1       5.038   0.588   5.008  0.00  0.00    -0.081 HD
BRANCH  16  20
ATOM     20  C   UNL     1       4.690   0.143   6.967  0.00  0.00    -0.075 C 
ATOM     21  C   UNL     1       5.987  -0.650   7.138  0.00  0.00    -0.014 C 
ATOM     22  C   UNL     1       4.904   1.580   7.448  0.00  0.00    -0.014 C 
ENDBRANCH  16  20
ENDBRANCH   3  13
BRANCH   1  24
ATOM     23  C   UNL     1      -1.309   0.222  -0.604  0.00  0.00    +0.010 C 
ATOM     24  C   UNL     1      -0.461  -1.046  -0.481  0.00  0.00    +0.054 C 
ENDBRANCH   1  24
BRANCH   2  25
ATOM     25  C   UNL     1       2.248   0.358   0.363  0.00  0.00    +0.148 C 
BRANCH  25  26
ATOM     26  N   UNL     1       3.453  -0.400   0.018  0.00  0.00    -0.290 N 
ATOM     27  C   UNL     1       4.602  -0.181   0.687  0.00  0.00    +0.282 C 
ATOM     28  O   UNL     1       4.624   0.604   1.617  0.00  0.00    -0.267 OA
BRANCH  27  29
ATOM     29  C   UNL     1       5.825  -0.888   0.294  0.00  0.00    +0.189 A 
ATOM     30  C   UNL     1       7.023  -0.844   0.949  0.00  0.00    +0.054 A 
ATOM     31  C   UNL     1       7.906  -1.663   0.230  0.00  0.00    +0.042 A 
ATOM     32  C   UNL     1       7.219  -2.165  -0.819  0.00  0.00    +0.196 A 
ATOM     33  O   UNL     1       5.964  -1.700  -0.774  0.00  0.00    -0.458 OA
ENDBRANCH  27  29
BRANCH  26  34
ATOM     34  C   UNL     1       3.408  -1.398  -1.054  0.00  0.00    +0.111 C 
BRANCH  34  35
ATOM     35  C   UNL     1       3.900  -0.767  -2.358  0.00  0.00    +0.000 C 
ATOM     36  C   UNL     1       3.948  -1.833  -3.454  0.00  0.00    +0.009 C 
ATOM     37  C   UNL     1       2.943   0.352  -2.776  0.00  0.00    +0.009 C 
ENDBRANCH  34  35
ENDBRANCH  26  34
ENDBRANCH  25  26
ENDBRANCH   2  25
TORSDOF 9
