REMARK  Name = ZINC40992877
REMARK  9 active torsions:
REMARK  status: ('A' for Active; 'I' for Inactive)
REMARK    1  A    between atoms: C_1  and  C_2
REMARK    2  A    between atoms: C_4  and  O_12
REMARK    3  A    between atoms: C_5  and  C_9
REMARK    4  A    between atoms: C_9  and  C_10
REMARK    5  A    between atoms: C_9  and  C_11
REMARK    6  A    between atoms: O_12  and  C_13
REMARK    7  A    between atoms: C_13  and  C_14
REMARK    8  A    between atoms: C_20  and  S_22
REMARK    9  A    between atoms: S_22  and  C_23
REMARK                            x       y       z     vdW  Elec       q    Type
REMARK                         _______ _______ _______ _____ _____    ______ ____
ROOT
ATOM      1  O   UNL     1       0.028  -2.749  -2.386  0.00  0.00    -0.482 OA
ENDROOT
BRANCH   1   5
ATOM      2  C   UNL     1      -0.018   1.503   0.010  0.00  0.00    +0.045 C 
ATOM      3  C   UNL     1       0.002  -0.004   0.002  0.00  0.00    -0.033 A 
ATOM      4  C   UNL     1       0.006  -0.688  -1.199  0.00  0.00    +0.050 A 
ATOM      5  C   UNL     1       0.025  -2.075  -1.206  0.00  0.00    +0.125 A 
ATOM      6  C   UNL     1       0.041  -2.772  -0.006  0.00  0.00    -0.002 A 
ATOM      7  C   UNL     1       0.037  -2.085   1.192  0.00  0.00    +0.023 A 
ATOM      8  C   UNL     1       0.023  -0.702   1.196  0.00  0.00    +0.021 A 
ATOM      9 BR   UNL     1       0.025   0.237   2.838  0.00  0.00    -0.050 Br
BRANCH   6  10
ATOM     10  C   UNL     1       0.061  -4.279  -0.011  0.00  0.00    +0.016 C 
ATOM     11  C   UNL     1       1.321  -4.774   0.702  0.00  0.00    +0.012 C 
ATOM     12  C   UNL     1      -1.177  -4.809   0.715  0.00  0.00    +0.012 C 
ENDBRANCH   6  10
ENDBRANCH   1   5
BRANCH   1  13
ATOM     13  C   UNL     1       0.011  -1.966  -3.581  0.00  0.00    +0.325 C 
BRANCH  13  14
ATOM     14  C   UNL     1       0.018  -2.879  -4.780  0.00  0.00    +0.256 C 
ATOM     15  O   UNL     1       0.035  -4.082  -4.626  0.00  0.00    -0.272 OA
ATOM     16  N   UNL     1       0.004  -2.358  -6.023  0.00  0.00    -0.260 N 
ATOM     17  C   UNL     1       0.010  -3.202  -7.131  0.00  0.00    +0.189 A 
ATOM     18  N   UNL     1       0.022  -4.524  -7.194  0.00  0.00    -0.125 NA
ATOM     19  N   UNL     1       0.025  -5.141  -8.293  0.00  0.00    -0.133 NA
ATOM     20  C   UNL     1       0.017  -4.503  -9.455  0.00  0.00    +0.160 A 
ATOM     21  S   UNL     1      -0.005  -2.808  -8.878  0.00  0.00    -0.024 S 
ATOM     22  H   UNL     1      -0.010  -1.396  -6.146  0.00  0.00    +0.157 HD
BRANCH  20  23
ATOM     23  S   UNL     1       0.021  -5.140 -11.098  0.00  0.00    -0.100 S 
ATOM     24  C   UNL     1       0.038  -6.940 -10.870  0.00  0.00    +0.092 C 
ENDBRANCH  20  23
ENDBRANCH  13  14
ENDBRANCH   1  13
TORSDOF 5
