REMARK  Name = ZINC39710275
REMARK  11 active torsions:
REMARK  status: ('A' for Active; 'I' for Inactive)
REMARK    1  A    between atoms: C_1  and  C_2
REMARK    2  A    between atoms: C_9  and  C_14
REMARK    3  A    between atoms: C_14  and  C_16
REMARK    4  A    between atoms: C_14  and  N_27
REMARK    5  A    between atoms: N_21  and  C_22
REMARK    6  A    between atoms: N_27  and  C_28
REMARK    7  A    between atoms: N_27  and  C_37
REMARK    8  A    between atoms: C_28  and  C_29
REMARK    9  A    between atoms: C_32  and  O_35
REMARK   10  A    between atoms: O_35  and  C_36
REMARK   11  A    between atoms: C_37  and  C_38
REMARK                            x       y       z     vdW  Elec       q    Type
REMARK                         _______ _______ _______ _____ _____    ______ ____
ROOT
ATOM      1  C   UNL     1       1.172  -4.879   2.988  0.00  0.00    -0.009 C 
ENDROOT
BRANCH   1  10
ATOM      2  C   UNL     1      -1.110   1.742   1.588  0.00  0.00    +0.044 C 
ATOM      3  C   UNL     1      -0.873   0.297   1.232  0.00  0.00    -0.050 A 
ATOM      4  C   UNL     1      -0.787  -0.071  -0.111  0.00  0.00    +0.005 A 
ATOM      5  C   UNL     1      -0.574  -1.353  -0.508  0.00  0.00    +0.024 A 
ATOM      6  C   UNL     1      -0.428  -2.380   0.443  0.00  0.00    +0.040 A 
ATOM      7  N   UNL     1      -0.219  -3.634   0.042  0.00  0.00    -0.285 N 
ATOM      8  C   UNL     1      -0.074  -4.646   0.881  0.00  0.00    +0.223 C 
ATOM      9  O   UNL     1       0.114  -5.769   0.455  0.00  0.00    -0.275 OA
ATOM     10  C   UNL     1      -0.144  -4.400   2.371  0.00  0.00    +0.088 C 
ATOM     11  C   UNL     1      -0.381  -2.975   2.833  0.00  0.00    -0.006 C 
ATOM     12  C   UNL     1      -0.514  -2.020   1.869  0.00  0.00    -0.007 A 
ATOM     13  C   UNL     1      -0.740  -0.619   2.226  0.00  0.00    +0.012 A 
ATOM     14  H   UNL     1      -0.172  -3.812  -0.910  0.00  0.00    +0.155 HD
ENDBRANCH   1  10
BRANCH   1  15
ATOM     15  C   UNL     1       2.346  -4.238   2.246  0.00  0.00    +0.205 C 
ATOM     16  N   UNL     1       3.622  -4.663   2.839  0.00  0.00    -0.152 NA
ATOM     17  N   UNL     1       4.214  -3.669   3.264  0.00  0.00    -0.070 NA
ATOM     18  N   UNL     1       3.508  -2.485   3.055  0.00  0.00    -0.179 N 
ATOM     19  N   UNL     1       2.326  -2.770   2.418  0.00  0.00    -0.185 NA
ATOM     20  H   UNL     1       3.805  -1.600   3.317  0.00  0.00    +0.191 HD
BRANCH  19  21
ATOM     21  C   UNL     1       2.248  -2.089   1.119  0.00  0.00    +0.080 C 
ATOM     22  C   UNL     1       3.561  -2.292   0.336  0.00  0.00    +0.021 C 
ATOM     23  C   UNL     1       3.784  -0.941  -0.389  0.00  0.00    +0.002 C 
ATOM     24  C   UNL     1       3.313   0.093   0.664  0.00  0.00    +0.002 C 
ATOM     25  C   UNL     1       2.090  -0.572   1.327  0.00  0.00    +0.021 C 
ENDBRANCH  19  21
ENDBRANCH   1  15
BRANCH   1  26
ATOM     26  N   UNL     1       1.262  -6.341   2.875  0.00  0.00    +0.392 N 
ATOM     27  H   UNL     1       1.339  -6.600   1.903  0.00  0.00    -0.080 HD
BRANCH  26  28
ATOM     28  C   UNL     1       0.055  -6.951   3.449  0.00  0.00    -0.042 C 
BRANCH  28  29
ATOM     29  C   UNL     1      -0.099  -6.509   4.881  0.00  0.00    -0.064 A 
ATOM     30  C   UNL     1       0.577  -7.176   5.886  0.00  0.00    +0.005 A 
ATOM     31  C   UNL     1       0.437  -6.773   7.200  0.00  0.00    +0.046 A 
ATOM     32  C   UNL     1      -0.382  -5.698   7.511  0.00  0.00    +0.120 A 
ATOM     33  C   UNL     1      -1.060  -5.030   6.501  0.00  0.00    +0.046 A 
ATOM     34  C   UNL     1      -0.912  -5.434   5.188  0.00  0.00    +0.005 A 
BRANCH  32  35
ATOM     35  O   UNL     1      -0.522  -5.300   8.803  0.00  0.00    -0.495 OA
ATOM     36  C   UNL     1      -1.465  -4.258   9.063  0.00  0.00    +0.277 C 
ENDBRANCH  32  35
ENDBRANCH  28  29
ENDBRANCH  26  28
BRANCH  26  37
ATOM     37  C   UNL     1       2.445  -6.817   3.605  0.00  0.00    -0.002 C 
BRANCH  37  38
ATOM     38  C   UNL     1       2.571  -8.309   3.438  0.00  0.00    +0.089 A 
ATOM     39  C   UNL     1       3.325  -8.937   2.518  0.00  0.00    +0.042 A 
ATOM     40  C   UNL     1       3.148 -10.325   2.720  0.00  0.00    +0.041 A 
ATOM     41  C   UNL     1       2.296 -10.462   3.753  0.00  0.00    +0.195 A 
ATOM     42  O   UNL     1       1.955  -9.238   4.187  0.00  0.00    -0.470 OA
ENDBRANCH  37  38
ENDBRANCH  26  37
ENDBRANCH   1  26
TORSDOF 9
