REMARK  Name = ZINC15057128
REMARK  8 active torsions:
REMARK  status: ('A' for Active; 'I' for Inactive)
REMARK    1  A    between atoms: C_1  and  C_2
REMARK    2  A    between atoms: C_2  and  C_3
REMARK    3  A    between atoms: C_2  and  C_4
REMARK    4  A    between atoms: C_4  and  C_6
REMARK    5  A    between atoms: C_4  and  N_13
REMARK    6  A    between atoms: N_13  and  C_14
REMARK    7  A    between atoms: C_14  and  C_15
REMARK    8  A    between atoms: N_20  and  C_21
REMARK                            x       y       z     vdW  Elec       q    Type
REMARK                         _______ _______ _______ _____ _____    ______ ____
ROOT
ATOM      1  C   UNL     1      -3.288   1.490  -2.489  0.00  0.00    +0.234 C 
ATOM      2  O   UNL     1      -3.273   0.710  -3.418  0.00  0.00    -0.274 OA
ATOM      3  N   UNL     1      -3.807   2.723  -2.653  0.00  0.00    -0.239 N 
ATOM      4  C   UNL     1      -4.309   3.089  -3.849  0.00  0.00    +0.310 C 
ATOM      5  O   UNL     1      -4.294   2.307  -4.780  0.00  0.00    -0.252 OA
ATOM      6  N   UNL     1      -4.829   4.322  -4.013  0.00  0.00    -0.269 N 
ATOM      7  H   UNL     1      -3.819   3.347  -1.911  0.00  0.00    +0.159 HD
ATOM      8  H   UNL     1      -4.774   4.970  -3.294  0.00  0.00    +0.156 HD
ENDROOT
BRANCH   6   9
ATOM      9  C   UNL     1      -5.446   4.667  -5.223  0.00  0.00    +0.038 A 
ATOM     10  C   UNL     1      -5.381   5.973  -5.688  0.00  0.00    +0.027 A 
ATOM     11  C   UNL     1      -5.990   6.315  -6.880  0.00  0.00    +0.051 A 
ATOM     12  C   UNL     1      -6.667   5.355  -7.615  0.00  0.00    +0.166 A 
ATOM     13  C   UNL     1      -6.734   4.043  -7.151  0.00  0.00    +0.168 A 
ATOM     14  C   UNL     1      -6.119   3.701  -5.959  0.00  0.00    +0.073 A 
ATOM     15  O   UNL     1      -7.449   3.300  -8.046  0.00  0.00    -0.453 OA
ATOM     16  C   UNL     1      -8.165   4.254  -8.853  0.00  0.00    +0.466 C 
ATOM     17  O   UNL     1      -7.341   5.433  -8.801  0.00  0.00    -0.453 OA
ENDBRANCH   6   9
BRANCH   1  18
ATOM     18  C   UNL     1      -2.726   1.081  -1.152  0.00  0.00    +0.178 C 
BRANCH  18  19
ATOM     19  N   UNL     1      -2.226  -0.298  -1.233  0.00  0.00    -0.301 NA
ATOM     20  H   UNL     1      -1.586  -0.406  -2.005  0.00  0.00    +0.123 HD
BRANCH  19  21
ATOM     21  C   UNL     1      -1.598  -0.705   0.032  0.00  0.00    +0.087 C 
BRANCH  21  22
ATOM     22  C   UNL     1      -1.625  -2.207   0.145  0.00  0.00    -0.030 A 
ATOM     23  C   UNL     1      -1.370  -2.989  -0.966  0.00  0.00    +0.008 A 
ATOM     24  C   UNL     1      -1.394  -4.367  -0.863  0.00  0.00    +0.038 A 
ATOM     25  C   UNL     1      -1.674  -4.965   0.354  0.00  0.00    +0.123 A 
ATOM     26  C   UNL     1      -1.930  -4.181   1.467  0.00  0.00    +0.038 A 
ATOM     27  C   UNL     1      -1.900  -2.803   1.362  0.00  0.00    +0.008 A 
ATOM     28  F   UNL     1      -1.699  -6.311   0.456  0.00  0.00    -0.205 F 
ENDBRANCH  21  22
BRANCH  21  30
ATOM     29  C   UNL     1       0.498  -0.621   1.388  0.00  0.00    +0.009 C 
ATOM     30  C   UNL     1      -0.148  -0.217   0.062  0.00  0.00    +0.004 C 
ATOM     31  C   UNL     1       0.626  -0.850  -1.097  0.00  0.00    +0.009 C 
ENDBRANCH  21  30
ENDBRANCH  19  21
ENDBRANCH  18  19
ENDBRANCH   1  18
TORSDOF 6
