REMARK  Name = ZINC11789527
REMARK  7 active torsions:
REMARK  status: ('A' for Active; 'I' for Inactive)
REMARK    1  A    between atoms: C_1  and  C_2
REMARK    2  A    between atoms: C_10  and  C_13
REMARK    3  A    between atoms: C_14  and  C_15
REMARK    4  A    between atoms: C_14  and  N_55
REMARK    5  A    between atoms: N_17  and  C_18
REMARK    6  A    between atoms: C_18  and  C_19
REMARK    7  A    between atoms: C_21  and  C_25
REMARK                            x       y       z     vdW  Elec       q    Type
REMARK                         _______ _______ _______ _____ _____    ______ ____
ROOT
ATOM      1  C   UNL     1       4.299   1.060  -1.653  0.00  0.00    +0.197 C 
ATOM      2  O   UNL     1       5.035   0.743  -0.743  0.00  0.00    -0.278 OA
ATOM      3  N   UNL     1       3.031   1.436  -1.394  0.00  0.00    -0.311 N 
ATOM      4  H   UNL     1       2.442   1.690  -2.122  0.00  0.00    +0.149 HD
ENDROOT
BRANCH   1   5
ATOM      5  C   UNL     1       4.802   1.035  -3.073  0.00  0.00    +0.019 C 
BRANCH   5  18
ATOM      6  C   UNL     1       8.276  -4.066  -5.915  0.00  0.00    +0.044 C 
ATOM      7  C   UNL     1       8.458  -2.989  -4.877  0.00  0.00    -0.050 A 
ATOM      8  C   UNL     1       9.730  -2.577  -4.525  0.00  0.00    +0.007 A 
ATOM      9  C   UNL     1       9.903  -1.583  -3.580  0.00  0.00    +0.046 A 
ATOM     10  C   UNL     1       8.793  -0.999  -2.986  0.00  0.00    +0.122 A 
ATOM     11  C   UNL     1       7.524  -1.426  -3.330  0.00  0.00    -0.022 A 
ATOM     12  C   UNL     1       7.351  -2.413  -4.278  0.00  0.00    +0.008 A 
ATOM     13  C   UNL     1       6.321  -0.801  -2.651  0.00  0.00    -0.038 C 
ATOM     14  C   UNL     1       7.045   1.499  -2.309  0.00  0.00    -0.033 C 
ATOM     15  C   UNL     1       8.527   1.305  -2.547  0.00  0.00    +0.154 C 
ATOM     16  O   UNL     1       8.950   0.014  -2.092  0.00  0.00    -0.491 OA
ATOM     17  C   UNL     1       9.303   2.386  -1.792  0.00  0.00    +0.050 C 
ATOM     18  N   UNL     1       6.207   0.598  -3.128  0.00  0.00    +0.391 N 
ATOM     19  H   UNL     1       6.530   0.642  -4.102  0.00  0.00    -0.081 HD
ENDBRANCH   5  18
ENDBRANCH   1   5
BRANCH   3  20
ATOM     20  C   UNL     1       2.541   1.461  -0.014  0.00  0.00    +0.161 C 
BRANCH  20  21
ATOM     21  C   UNL     1       1.104   1.913   0.002  0.00  0.00    +0.080 A 
ATOM     22  C   UNL     1      -0.013   1.076   0.008  0.00  0.00    +0.054 A 
ATOM     23  C   UNL     1      -1.128   1.865   0.017  0.00  0.00    +0.066 A 
ATOM     24  N   UNL     1      -0.707   3.162   0.025  0.00  0.00    -0.277 N 
ATOM     25  H   UNL     1      -1.293   3.972   0.037  0.00  0.00    +0.189 HD
ATOM     26  N   UNL     1       0.694   3.155   0.012  0.00  0.00    -0.177 NA
BRANCH  23  27
ATOM     27  C   UNL     1      -2.532   1.399   0.021  0.00  0.00    -0.000 A 
ATOM     28  C   UNL     1      -2.817   0.033   0.010  0.00  0.00    +0.010 A 
ATOM     29  C   UNL     1      -4.128  -0.395   0.020  0.00  0.00    +0.001 A 
ATOM     30  C   UNL     1      -5.160   0.526   0.029  0.00  0.00    +0.000 A 
ATOM     31  C   UNL     1      -4.884   1.882   0.034  0.00  0.00    +0.001 A 
ATOM     32  C   UNL     1      -3.577   2.323   0.030  0.00  0.00    +0.010 A 
ENDBRANCH  23  27
ENDBRANCH  20  21
ENDBRANCH   3  20
TORSDOF 5
