REMARK  Name = ZINC19811322
REMARK  15 active torsions:
REMARK  status: ('A' for Active; 'I' for Inactive)
REMARK    1  A    between atoms: C_1  and  C_2
REMARK    2  A    between atoms: C_2  and  O_3
REMARK    3  A    between atoms: O_3  and  C_4
REMARK    4  A    between atoms: C_7  and  N_10
REMARK    5  A    between atoms: C_11  and  C_28
REMARK    6  A    between atoms: C_14  and  S_15
REMARK    7  A    between atoms: S_15  and  C_16
REMARK    8  A    between atoms: C_16  and  C_17
REMARK    9  A    between atoms: N_19  and  C_20
REMARK   10  A    between atoms: C_22  and  C_27
REMARK   11  A    between atoms: C_25  and  C_26
REMARK   12  A    between atoms: C_31  and  C_34
REMARK   13  A    between atoms: C_34  and  C_35
REMARK   14  A    between atoms: C_34  and  C_36
REMARK   15  A    between atoms: C_34  and  C_37
REMARK                            x       y       z     vdW  Elec       q    Type
REMARK                         _______ _______ _______ _____ _____    ______ ____
ROOT
ATOM      1  N   UNL     1      -3.929   1.532  -0.096  0.00  0.00    -0.270 N 
ATOM      2  C   UNL     1      -2.773   0.783  -0.056  0.00  0.00    +0.169 A 
ATOM      3  N   UNL     1      -3.132  -0.468   0.126  0.00  0.00    -0.128 NA
ATOM      4  N   UNL     1      -4.412  -0.552   0.197  0.00  0.00    -0.122 NA
ATOM      5  C   UNL     1      -4.952   0.639   0.065  0.00  0.00    +0.197 A 
ENDROOT
BRANCH   1   9
ATOM      6  C   UNL     1      -4.241   5.660  -0.606  0.00  0.00    +0.121 A 
ATOM      7  C   UNL     1      -4.691   4.803  -1.600  0.00  0.00    +0.047 A 
ATOM      8  C   UNL     1      -4.588   3.436  -1.431  0.00  0.00    +0.030 A 
ATOM      9  C   UNL     1      -4.034   2.921  -0.268  0.00  0.00    +0.051 A 
ATOM     10  C   UNL     1      -3.589   3.779   0.729  0.00  0.00    +0.030 A 
ATOM     11  C   UNL     1      -3.688   5.146   0.557  0.00  0.00    +0.047 A 
BRANCH   6  12
ATOM     12  O   UNL     1      -4.343   7.006  -0.773  0.00  0.00    -0.492 OA
BRANCH  12  14
ATOM     13  C   UNL     1      -4.057   9.302  -0.075  0.00  0.00    +0.048 C 
ATOM     14  C   UNL     1      -3.860   7.830   0.290  0.00  0.00    +0.225 C 
ENDBRANCH  12  14
ENDBRANCH   6  12
ENDBRANCH   1   9
BRANCH   2  15
ATOM     15  C   UNL     1      -1.392   1.291  -0.187  0.00  0.00    +0.020 A 
ATOM     16  C   UNL     1      -1.158   2.552  -0.737  0.00  0.00    +0.012 A 
ATOM     17  C   UNL     1       0.134   3.022  -0.852  0.00  0.00    +0.005 A 
ATOM     18  C   UNL     1       1.197   2.244  -0.427  0.00  0.00    -0.042 A 
ATOM     19  C   UNL     1       0.972   0.992   0.115  0.00  0.00    +0.005 A 
ATOM     20  C   UNL     1      -0.315   0.509   0.235  0.00  0.00    +0.012 A 
BRANCH  18  21
ATOM     21  C   UNL     1       2.606   2.765  -0.556  0.00  0.00    -0.013 C 
ATOM     22  C   UNL     1       2.747   4.058   0.249  0.00  0.00    +0.015 C 
ATOM     23  C   UNL     1       3.586   1.720  -0.018  0.00  0.00    +0.015 C 
ATOM     24  C   UNL     1       2.914   3.044  -2.028  0.00  0.00    +0.015 C 
ENDBRANCH  18  21
ENDBRANCH   2  15
BRANCH   5  25
ATOM     25  S   UNL     1      -6.673   1.015   0.094  0.00  0.00    -0.076 S 
BRANCH  25  26
ATOM     26  C   UNL     1      -7.354  -0.643   0.345  0.00  0.00    +0.173 C 
BRANCH  26  27
ATOM     27  C   UNL     1      -8.857  -0.565   0.405  0.00  0.00    +0.227 C 
ATOM     28  O   UNL     1      -9.414   0.506   0.288  0.00  0.00    -0.275 OA
ATOM     29  N   UNL     1      -9.583  -1.686   0.586  0.00  0.00    -0.285 N 
ATOM     30  H   UNL     1      -9.077  -2.646   0.768  0.00  0.00    +0.155 HD
BRANCH  29  31
ATOM     31  C   UNL     1     -10.981  -1.629   0.544  0.00  0.00    +0.037 A 
ATOM     32  C   UNL     1     -11.646  -0.500   1.004  0.00  0.00    +0.027 A 
ATOM     33  C   UNL     1     -13.025  -0.445   0.956  0.00  0.00    -0.049 A 
ATOM     34  C   UNL     1     -13.744  -1.517   0.460  0.00  0.00    +0.004 A 
ATOM     35  C   UNL     1     -13.085  -2.644   0.005  0.00  0.00    +0.005 A 
ATOM     36  C   UNL     1     -11.706  -2.704   0.046  0.00  0.00    -0.029 A 
ATOM     37  C   UNL     1     -10.989  -3.933  -0.450  0.00  0.00    +0.045 C 
ATOM     38  C   UNL     1     -13.747   0.782   1.451  0.00  0.00    +0.044 C 
ENDBRANCH  29  31
ENDBRANCH  26  27
ENDBRANCH  25  26
ENDBRANCH   5  25
TORSDOF 9
