REMARK  Name = ZINC59244742
REMARK  4 active torsions:
REMARK  status: ('A' for Active; 'I' for Inactive)
REMARK    1  A    between atoms: C_4  and  C_7
REMARK    2  A    between atoms: N_12  and  S_13
REMARK    3  A    between atoms: S_13  and  C_16
REMARK    4  A    between atoms: C_16  and  C_17
REMARK                            x       y       z     vdW  Elec       q    Type
REMARK                         _______ _______ _______ _____ _____    ______ ____
ROOT
ATOM      1  C   UNL     1       3.696  -0.685  -0.038  0.00  0.00    +0.055 A 
ATOM      2  C   UNL     1       4.854   0.004  -0.041  0.00  0.00    +0.075 A 
ATOM      3  S   UNL     1       6.070  -1.303  -0.063  0.00  0.00    -0.056 S 
ATOM      4  C   UNL     1       4.944  -2.690  -0.067  0.00  0.00    +0.191 A 
ATOM      5  N   UNL     1       3.722  -2.055  -0.046  0.00  0.00    -0.332 N 
ATOM      6  N   UNL     1       5.211  -3.972  -0.081  0.00  0.00    -0.108 NA
ATOM      7  H   UNL     1       2.898  -2.567  -0.040  0.00  0.00    +0.168 HD
ENDROOT
BRANCH   1  11
ATOM      8  C   UNL     1      -0.017   1.379   0.010  0.00  0.00    +0.000 A 
ATOM      9  C   UNL     1       1.168   2.094   0.002  0.00  0.00    +0.001 A 
ATOM     10  C   UNL     1       2.377   1.429  -0.013  0.00  0.00    +0.010 A 
ATOM     11  C   UNL     1       2.403   0.034  -0.021  0.00  0.00    -0.001 A 
ATOM     12  C   UNL     1       1.204  -0.681  -0.013  0.00  0.00    +0.010 A 
ATOM     13  C   UNL     1       0.002  -0.004   0.002  0.00  0.00    +0.001 A 
ENDBRANCH   1  11
BRANCH   6  14
ATOM     14  S   UNL     1       6.784  -4.490  -0.097  0.00  0.00    +0.076 S 
ATOM     15  O   UNL     1       7.308  -4.020  -1.331  0.00  0.00    -0.151 OA
ATOM     16  O   UNL     1       7.326  -4.043   1.138  0.00  0.00    -0.151 OA
BRANCH  14  17
ATOM     17  C   UNL     1       6.678  -6.301  -0.113  0.00  0.00    +0.228 C 
BRANCH  17  18
ATOM     18  C   UNL     1       8.067  -6.886  -0.129  0.00  0.00    -0.024 A 
ATOM     19  C   UNL     1       8.697  -7.137  -1.333  0.00  0.00    +0.007 A 
ATOM     20  C   UNL     1       9.971  -7.673  -1.348  0.00  0.00    +0.020 A 
ATOM     21  C   UNL     1      10.615  -7.958  -0.157  0.00  0.00    +0.041 A 
ATOM     22  C   UNL     1       9.984  -7.706   1.048  0.00  0.00    +0.020 A 
ATOM     23  C   UNL     1       8.712  -7.165   1.062  0.00  0.00    +0.007 A 
ATOM     24 CL   UNL     1      12.215  -8.632  -0.175  0.00  0.00    -0.084 Cl
ENDBRANCH  17  18
ENDBRANCH  14  17
ENDBRANCH   6  14
TORSDOF 4
