REMARK  Name = ZINC15670100
REMARK  9 active torsions:
REMARK  status: ('A' for Active; 'I' for Inactive)
REMARK    1  A    between atoms: C_1  and  C_2
REMARK    2  A    between atoms: C_2  and  O_3
REMARK    3  A    between atoms: O_3  and  C_4
REMARK    4  A    between atoms: C_7  and  C_12
REMARK    5  A    between atoms: C_9  and  O_10
REMARK    6  A    between atoms: O_10  and  C_11
REMARK    7  A    between atoms: C_20  and  C_36
REMARK    8  A    between atoms: C_25  and  C_29
REMARK    9  A    between atoms: C_32  and  C_35
REMARK                            x       y       z     vdW  Elec       q    Type
REMARK                         _______ _______ _______ _____ _____    ______ ____
ROOT
ATOM      1  C   UNL     1      -1.190   2.330   0.017  0.00  0.00    +0.063 C 
ATOM      2  C   UNL     1      -0.761   3.625   0.713  0.00  0.00    +0.109 C 
ATOM      3  C   UNL     1       0.603   4.063   0.258  0.00  0.00    +0.219 C 
ATOM      4  O   UNL     1       0.817   5.246   0.098  0.00  0.00    -0.275 OA
ATOM      5  N   UNL     1       1.597   3.181   0.023  0.00  0.00    -0.270 N 
ATOM      6  C   UNL     1       1.279   1.824  -0.000  0.00  0.00    +0.136 A 
ATOM      7  C   UNL     1      -0.017   1.384   0.010  0.00  0.00    +0.023 A 
ATOM      8  C   UNL     1       0.002  -0.004   0.002  0.00  0.00    +0.066 A 
ATOM      9  N   UNL     1       1.253  -0.399  -0.018  0.00  0.00    -0.167 NA
ATOM     10  N   UNL     1       2.080   0.736  -0.023  0.00  0.00    -0.182 N 
ATOM     11  C   UNL     1       3.474   0.740  -0.047  0.00  0.00    +0.273 A 
ATOM     12  N   UNL     1       4.130  -0.410  -0.068  0.00  0.00    -0.208 NA
ATOM     13  C   UNL     1       5.462  -0.402  -0.091  0.00  0.00    +0.095 A 
ATOM     14  C   UNL     1       6.123   0.831  -0.092  0.00  0.00    +0.163 A 
ATOM     15  N   UNL     1       5.411   1.942  -0.071  0.00  0.00    -0.152 NA
ATOM     16  N   UNL     1       4.125   1.895  -0.055  0.00  0.00    -0.109 NA
ATOM     17  C   UNL     1      -1.207  -0.903   0.015  0.00  0.00    +0.068 C 
ATOM     18  H   UNL     1       2.507   3.483  -0.125  0.00  0.00    +0.156 HD
ENDROOT
BRANCH  13  19
ATOM     19  C   UNL     1       6.227  -1.672  -0.114  0.00  0.00    +0.002 A 
ATOM     20  C   UNL     1       5.558  -2.890  -0.211  0.00  0.00    +0.010 A 
ATOM     21  C   UNL     1       6.275  -4.069  -0.237  0.00  0.00    +0.004 A 
ATOM     22  C   UNL     1       7.656  -4.043  -0.156  0.00  0.00    -0.050 A 
ATOM     23  C   UNL     1       8.326  -2.837  -0.054  0.00  0.00    +0.004 A 
ATOM     24  C   UNL     1       7.619  -1.652  -0.032  0.00  0.00    +0.010 A 
ATOM     25  C   UNL     1       8.434  -5.333  -0.180  0.00  0.00    +0.044 C 
ENDBRANCH  13  19
BRANCH   1  29
ATOM     26  C   UNL     1      -2.373   3.183  -4.004  0.00  0.00    +0.162 A 
ATOM     27  C   UNL     1      -1.093   3.495  -3.574  0.00  0.00    +0.050 A 
ATOM     28  C   UNL     1      -0.714   3.218  -2.274  0.00  0.00    +0.008 A 
ATOM     29  C   UNL     1      -1.609   2.630  -1.400  0.00  0.00    -0.036 A 
ATOM     30  C   UNL     1      -2.885   2.312  -1.824  0.00  0.00    +0.053 A 
ATOM     31  C   UNL     1      -3.274   2.591  -3.124  0.00  0.00    +0.162 A 
BRANCH  31  32
ATOM     32  O   UNL     1      -4.531   2.283  -3.541  0.00  0.00    -0.491 OA
ATOM     33  C   UNL     1      -5.402   1.677  -2.584  0.00  0.00    +0.277 C 
ENDBRANCH  31  32
BRANCH  26  34
ATOM     34  O   UNL     1      -2.747   3.455  -5.283  0.00  0.00    -0.489 OA
BRANCH  34  36
ATOM     35  C   UNL     1      -2.369   4.291  -7.519  0.00  0.00    +0.048 C 
ATOM     36  C   UNL     1      -1.770   4.063  -6.130  0.00  0.00    +0.226 C 
ENDBRANCH  34  36
ENDBRANCH  26  34
ENDBRANCH   1  29
TORSDOF 5
