REMARK  Name = ZINC08829246
REMARK  14 active torsions:
REMARK  status: ('A' for Active; 'I' for Inactive)
REMARK    1  A    between atoms: C_1  and  C_2
REMARK    2  A    between atoms: C_5  and  N_9
REMARK    3  A    between atoms: C_6  and  C_8
REMARK    4  A    between atoms: N_9  and  C_10
REMARK    5  A    between atoms: C_10  and  C_12
REMARK    6  A    between atoms: C_10  and  C_17
REMARK    7  A    between atoms: N_19  and  C_20
REMARK    8  A    between atoms: C_20  and  C_21
REMARK    9  A    between atoms: C_21  and  C_22
REMARK   10  A    between atoms: C_22  and  C_23
REMARK   11  A    between atoms: C_22  and  C_24
REMARK   12  A    between atoms: C_25  and  C_27
REMARK   13  A    between atoms: C_30  and  C_32
REMARK   14  A    between atoms: C_32  and  N_74
REMARK                            x       y       z     vdW  Elec       q    Type
REMARK                         _______ _______ _______ _____ _____    ______ ____
ROOT
ATOM      1  N   UNL     1       0.290   5.202   5.982  0.00  0.00    -0.248 N 
ATOM      2  C   UNL     1      -0.947   4.685   6.124  0.00  0.00    +0.287 C 
ATOM      3  O   UNL     1      -1.754   5.230   6.854  0.00  0.00    -0.266 OA
ENDROOT
BRANCH   1   8
ATOM      4  C   UNL     1       4.052   2.659   2.583  0.00  0.00    +0.044 C 
ATOM      5  C   UNL     1       3.053   3.335   3.486  0.00  0.00    -0.050 A 
ATOM      6  C   UNL     1       2.270   4.366   3.000  0.00  0.00    +0.005 A 
ATOM      7  C   UNL     1       1.349   4.984   3.823  0.00  0.00    +0.024 A 
ATOM      8  C   UNL     1       1.217   4.575   5.144  0.00  0.00    +0.041 A 
ATOM      9  C   UNL     1       2.005   3.539   5.629  0.00  0.00    -0.029 A 
ATOM     10  C   UNL     1       2.920   2.922   4.799  0.00  0.00    +0.008 A 
ATOM     11  C   UNL     1       1.861   3.089   7.060  0.00  0.00    +0.045 C 
ENDBRANCH   1   8
BRANCH   2  12
ATOM     12  C   UNL     1      -1.319   3.465   5.401  0.00  0.00    +0.190 A 
ATOM     13  C   UNL     1      -2.532   2.839   5.454  0.00  0.00    +0.055 A 
ATOM     14  C   UNL     1      -2.447   1.722   4.608  0.00  0.00    +0.043 A 
ATOM     15  C   UNL     1      -1.200   1.711   4.088  0.00  0.00    +0.090 A 
ATOM     16  O   UNL     1      -0.524   2.765   4.565  0.00  0.00    -0.457 OA
BRANCH  15  17
ATOM     17  C   UNL     1      -0.659   0.686   3.125  0.00  0.00    -0.003 C 
BRANCH  17  23
ATOM     18  C   UNL     1      -0.212   0.273   0.781  0.00  0.00    -0.050 C 
ATOM     19  C   UNL     1      -0.564   0.720  -0.641  0.00  0.00    +0.141 C 
ATOM     20  O   UNL     1      -0.242   2.105  -0.792  0.00  0.00    -0.383 OA
ATOM     21  C   UNL     1      -0.921   2.959   0.132  0.00  0.00    +0.141 C 
ATOM     22  C   UNL     1      -0.573   2.534   1.561  0.00  0.00    -0.050 C 
ATOM     23  N   UNL     1      -0.953   1.117   1.741  0.00  0.00    +0.387 N 
ATOM     24  H   UNL     1      -1.960   1.016   1.567  0.00  0.00    -0.081 HD
ENDBRANCH  17  23
ENDBRANCH  15  17
ENDBRANCH   2  12
BRANCH   1  25
ATOM     25  C   UNL     1       0.662   6.420   6.705  0.00  0.00    +0.204 C 
BRANCH  25  26
ATOM     26  C   UNL     1       1.930   6.176   7.481  0.00  0.00    +0.019 A 
ATOM     27  C   UNL     1       2.171   6.361   8.802  0.00  0.00    +0.013 A 
ATOM     28  C   UNL     1       3.425   6.066   9.303  0.00  0.00    +0.008 A 
ATOM     29  C   UNL     1       4.377   5.600   8.457  0.00  0.00    +0.045 A 
ATOM     30  S   UNL     1       3.502   5.560   6.902  0.00  0.00    -0.099 S 
ENDBRANCH  25  26
BRANCH  25  31
ATOM     31  C   UNL     1       0.883   7.540   5.721  0.00  0.00    +0.239 C 
ATOM     32  O   UNL     1       0.743   7.341   4.533  0.00  0.00    -0.273 OA
ATOM     33  N   UNL     1       1.236   8.764   6.162  0.00  0.00    -0.313 N 
ATOM     34  H   UNL     1       1.347   8.924   7.112  0.00  0.00    +0.149 HD
BRANCH  33  35
ATOM     35  C   UNL     1       1.451   9.853   5.206  0.00  0.00    +0.104 C 
BRANCH  35  36
ATOM     36  C   UNL     1       1.839  11.126   5.961  0.00  0.00    +0.022 C 
BRANCH  36  37
ATOM     37  C   UNL     1       2.064  12.263   4.962  0.00  0.00    -0.016 C 
ATOM     38  C   UNL     1       2.330  13.564   5.722  0.00  0.00    +0.007 C 
ATOM     39  C   UNL     1       3.268  11.934   4.077  0.00  0.00    +0.007 C 
ENDBRANCH  36  37
ENDBRANCH  35  36
ENDBRANCH  33  35
ENDBRANCH  25  31
ENDBRANCH   1  25
TORSDOF 10
