REMARK  Name = ZINC63391792
REMARK  11 active torsions:
REMARK  status: ('A' for Active; 'I' for Inactive)
REMARK    1  A    between atoms: C_1  and  C_2
REMARK    2  A    between atoms: C_6  and  C_8
REMARK    3  A    between atoms: C_8  and  C_9
REMARK    4  A    between atoms: C_8  and  C_10
REMARK    5  A    between atoms: C_8  and  C_11
REMARK    6  A    between atoms: C_11  and  N_12
REMARK    7  A    between atoms: N_15  and  C_16
REMARK    8  A    between atoms: C_18  and  C_24
REMARK    9  A    between atoms: C_21  and  O_22
REMARK   10  A    between atoms: O_22  and  C_23
REMARK   11  A    between atoms: N_26  and  C_27
REMARK                            x       y       z     vdW  Elec       q    Type
REMARK                         _______ _______ _______ _____ _____    ______ ____
ROOT
ATOM      1  N   UNL     1       0.105  -5.087   3.464  0.00  0.00    -0.298 N 
ATOM      2  C   UNL     1       0.112  -6.434   3.458  0.00  0.00    +0.304 C 
ATOM      3  O   UNL     1       0.110  -7.037   2.401  0.00  0.00    -0.253 OA
ATOM      4  N   UNL     1       0.120  -7.114   4.621  0.00  0.00    -0.266 N 
ATOM      5  H   UNL     1       0.106  -4.606   4.307  0.00  0.00    +0.150 HD
ATOM      6  H   UNL     1       0.187  -6.635   5.462  0.00  0.00    +0.156 HD
ENDROOT
BRANCH   4   7
ATOM      7  C   UNL     1       0.032  -8.513   4.617  0.00  0.00    +0.077 A 
ATOM      8  C   UNL     1       0.626  -9.240   3.601  0.00  0.00    +0.040 A 
ATOM      9  C   UNL     1       0.536 -10.634   3.600  0.00  0.00    +0.039 A 
ATOM     10  C   UNL     1      -0.152 -11.288   4.625  0.00  0.00    +0.017 A 
ATOM     11  C   UNL     1      -0.742 -10.559   5.635  0.00  0.00    +0.048 A 
ATOM     12  C   UNL     1      -0.649  -9.174   5.640  0.00  0.00    +0.141 A 
BRANCH   9  13
ATOM     13  C   UNL     1       1.168 -11.415   2.518  0.00  0.00    +0.244 C 
ATOM     14  O   UNL     1       1.766 -10.845   1.626  0.00  0.00    -0.270 OA
ATOM     15  N   UNL     1       1.081 -12.760   2.518  0.00  0.00    -0.314 N 
ATOM     16  C   UNL     1       1.707 -13.535   1.444  0.00  0.00    +0.128 C 
ATOM     17  H   UNL     1       0.603 -13.215   3.230  0.00  0.00    +0.149 HD
ENDBRANCH   9  13
BRANCH  12  18
ATOM     18  O   UNL     1      -1.227  -8.460   6.640  0.00  0.00    -0.493 OA
ATOM     19  C   UNL     1      -1.908  -9.199   7.655  0.00  0.00    +0.277 C 
ENDBRANCH  12  18
ENDBRANCH   4   7
BRANCH   1  20
ATOM     20  C   UNL     1       0.096  -4.348   2.199  0.00  0.00    +0.116 C 
BRANCH  20  21
ATOM     21  C   UNL     1       0.089  -2.845   2.487  0.00  0.00    +0.006 C 
ATOM     22  C   UNL     1       1.340  -2.473   3.285  0.00  0.00    +0.017 C 
ATOM     23  C   UNL     1      -1.158  -2.486   3.296  0.00  0.00    +0.017 C 
BRANCH  21  29
ATOM     24  C   UNL     1       0.054   1.502   0.007  0.00  0.00    +0.044 C 
ATOM     25  C   UNL     1       0.062  -0.005  -0.001  0.00  0.00    -0.050 A 
ATOM     26  C   UNL     1       0.061  -0.691  -1.202  0.00  0.00    +0.003 A 
ATOM     27  C   UNL     1       0.069  -2.073  -1.209  0.00  0.00    +0.001 A 
ATOM     28  C   UNL     1       0.078  -2.770  -0.015  0.00  0.00    +0.004 A 
ATOM     29  C   UNL     1       0.080  -2.085   1.185  0.00  0.00    -0.040 A 
ATOM     30  C   UNL     1       0.076  -0.702   1.192  0.00  0.00    +0.007 A 
ENDBRANCH  21  29
ENDBRANCH  20  21
ENDBRANCH   1  20
TORSDOF 6
