REMARK  Name = ZINC35393468
REMARK  12 active torsions:
REMARK  status: ('A' for Active; 'I' for Inactive)
REMARK    1  A    between atoms: C_1  and  C_2
REMARK    2  A    between atoms: C_2  and  O_3
REMARK    3  A    between atoms: O_3  and  C_4
REMARK    4  A    between atoms: C_4  and  C_5
REMARK    5  A    between atoms: C_5  and  O_6
REMARK    6  A    between atoms: O_6  and  C_7
REMARK    7  A    between atoms: C_9  and  C_28
REMARK    8  A    between atoms: N_10  and  C_12
REMARK    9  A    between atoms: C_15  and  N_18
REMARK   10  A    between atoms: C_19  and  C_21
REMARK   11  A    between atoms: C_26  and  C_27
REMARK   12  A    between atoms: C_31  and  C_34
REMARK                            x       y       z     vdW  Elec       q    Type
REMARK                         _______ _______ _______ _____ _____    ______ ____
ROOT
ATOM      1  C   UNL     1      -6.545  -1.006  -0.009  0.00  0.00    +0.338 A 
ATOM      2  N   UNL     1      -7.051  -0.489  -1.128  0.00  0.00    -0.174 NA
ATOM      3  C   UNL     1      -8.140  -1.148  -1.472  0.00  0.00    +0.167 A 
ATOM      4  N   UNL     1      -8.344  -2.123  -0.545  0.00  0.00    -0.209 N 
ATOM      5  N   UNL     1      -7.296  -2.009   0.382  0.00  0.00    -0.108 NA
ENDROOT
BRANCH   4   6
ATOM      6  C   UNL     1      -9.389  -3.056  -0.523  0.00  0.00    +0.068 A 
ATOM      7  C   UNL     1      -9.748  -3.724  -1.687  0.00  0.00    +0.029 A 
ATOM      8  C   UNL     1     -10.776  -4.644  -1.665  0.00  0.00    +0.025 A 
ATOM      9  C   UNL     1     -11.453  -4.901  -0.480  0.00  0.00    +0.034 A 
ATOM     10  C   UNL     1     -11.095  -4.232   0.684  0.00  0.00    +0.025 A 
ATOM     11  C   UNL     1     -10.062  -3.317   0.663  0.00  0.00    +0.029 A 
BRANCH   9  12
ATOM     12  N   UNL     1     -12.497  -5.833  -0.458  0.00  0.00    -0.281 N 
ATOM     13  C   UNL     1     -12.741  -6.545   0.660  0.00  0.00    +0.249 C 
ATOM     14  O   UNL     1     -11.992  -6.456   1.613  0.00  0.00    -0.270 OA
ATOM     15  H   UNL     1     -13.044  -5.966  -1.247  0.00  0.00    +0.155 HD
BRANCH  13  16
ATOM     16  C   UNL     1     -13.919  -7.436   0.727  0.00  0.00    +0.040 A 
ATOM     17  C   UNL     1     -14.762  -7.566  -0.378  0.00  0.00    +0.013 A 
ATOM     18  C   UNL     1     -15.860  -8.399  -0.309  0.00  0.00    +0.001 A 
ATOM     19  C   UNL     1     -16.126  -9.103   0.852  0.00  0.00    +0.000 A 
ATOM     20  C   UNL     1     -15.295  -8.978   1.950  0.00  0.00    +0.004 A 
ATOM     21  C   UNL     1     -14.190  -8.154   1.892  0.00  0.00    -0.038 A 
ATOM     22  C   UNL     1     -13.281  -8.024   3.087  0.00  0.00    +0.044 C 
ENDBRANCH  13  16
ENDBRANCH   9  12
ENDBRANCH   4   6
BRANCH   3  23
ATOM     23  C   UNL     1      -8.987  -0.877  -2.654  0.00  0.00    +0.019 A 
ATOM     24  C   UNL     1     -10.330  -1.254  -2.654  0.00  0.00    +0.012 A 
ATOM     25  C   UNL     1     -11.116  -0.998  -3.759  0.00  0.00    +0.013 A 
ATOM     26  C   UNL     1     -10.573  -0.368  -4.865  0.00  0.00    +0.055 A 
ATOM     27  C   UNL     1      -9.242   0.008  -4.872  0.00  0.00    +0.013 A 
ATOM     28  C   UNL     1      -8.447  -0.238  -3.771  0.00  0.00    +0.012 A 
BRANCH  26  29
ATOM     29  C   UNL     1     -11.436  -0.092  -6.069  0.00  0.00    +0.417 C 
ATOM     30  F   UNL     1     -12.033   1.167  -5.936  0.00  0.00    -0.166 F 
ATOM     31  F   UNL     1     -10.647  -0.114  -7.224  0.00  0.00    -0.166 F 
ATOM     32  F   UNL     1     -12.431  -1.071  -6.165  0.00  0.00    -0.166 F 
ENDBRANCH  26  29
ENDBRANCH   3  23
BRANCH   1  33
ATOM     33  O   UNL     1      -5.426  -0.568   0.624  0.00  0.00    -0.459 OA
BRANCH  33  34
ATOM     34  C   UNL     1      -5.040  -1.261   1.813  0.00  0.00    +0.260 C 
BRANCH  34  35
ATOM     35  C   UNL     1      -3.767  -0.630   2.381  0.00  0.00    +0.201 C 
BRANCH  35  36
ATOM     36  O   UNL     1      -4.043   0.709   2.796  0.00  0.00    -0.377 OA
BRANCH  36  38
ATOM     37  C   UNL     1      -3.323   2.809   3.752  0.00  0.00    +0.034 C 
ATOM     38  C   UNL     1      -2.914   1.392   3.344  0.00  0.00    +0.156 C 
ENDBRANCH  36  38
ENDBRANCH  35  36
ENDBRANCH  34  35
ENDBRANCH  33  34
ENDBRANCH   1  33
TORSDOF 10
