REMARK  Name = ZINC60383084
REMARK  12 active torsions:
REMARK  status: ('A' for Active; 'I' for Inactive)
REMARK    1  A    between atoms: C_1  and  C_2
REMARK    2  A    between atoms: C_7  and  N_8
REMARK    3  A    between atoms: C_9  and  C_25
REMARK    4  A    between atoms: C_12  and  S_13
REMARK    5  A    between atoms: S_13  and  C_14
REMARK    6  A    between atoms: C_14  and  C_15
REMARK    7  A    between atoms: N_17  and  C_18
REMARK    8  A    between atoms: C_18  and  C_19
REMARK    9  A    between atoms: C_18  and  C_20
REMARK   10  A    between atoms: C_18  and  C_22
REMARK   11  A    between atoms: C_22  and  C_23
REMARK   12  A    between atoms: C_22  and  C_24
REMARK                            x       y       z     vdW  Elec       q    Type
REMARK                         _______ _______ _______ _____ _____    ______ ____
ROOT
ATOM      1  N   UNL     1       0.025  -0.013   2.419  0.00  0.00    -0.270 N 
ATOM      2  C   UNL     1      -1.071   0.379   3.157  0.00  0.00    +0.171 A 
ATOM      3  N   UNL     1      -0.615   0.996   4.223  0.00  0.00    -0.128 NA
ATOM      4  N   UNL     1       0.670   1.017   4.205  0.00  0.00    -0.122 NA
ATOM      5  C   UNL     1       1.117   0.411   3.130  0.00  0.00    +0.197 A 
ENDROOT
BRANCH   2   6
ATOM      6  C   UNL     1      -2.488   0.149   2.814  0.00  0.00    +0.045 A 
ATOM      7  C   UNL     1      -2.963  -0.493   1.716  0.00  0.00    +0.095 A 
ATOM      8  N   UNL     1      -4.328  -0.508   1.745  0.00  0.00    -0.360 N 
ATOM      9  H   UNL     1      -4.893  -0.911   1.068  0.00  0.00    +0.165 HD
ATOM     10  C   UNL     1      -4.786   0.132   2.877  0.00  0.00    +0.047 A 
ATOM     11  C   UNL     1      -3.662   0.566   3.600  0.00  0.00    +0.010 A 
ATOM     12  C   UNL     1      -3.827   1.246   4.805  0.00  0.00    +0.011 A 
ATOM     13  C   UNL     1      -5.096   1.486   5.284  0.00  0.00    +0.001 A 
ATOM     14  C   UNL     1      -6.207   1.055   4.573  0.00  0.00    +0.002 A 
ATOM     15  C   UNL     1      -6.059   0.389   3.375  0.00  0.00    +0.026 A 
ENDBRANCH   2   6
BRANCH   1  22
ATOM     16  C   UNL     1      -0.018   1.503   0.010  0.00  0.00    +0.046 C 
ATOM     17  C   UNL     1       0.002  -0.004   0.002  0.00  0.00    -0.026 A 
ATOM     18  C   UNL     1       0.006  -0.689  -1.198  0.00  0.00    +0.005 A 
ATOM     19  C   UNL     1       0.025  -2.071  -1.206  0.00  0.00    +0.000 A 
ATOM     20  C   UNL     1       0.040  -2.773  -0.014  0.00  0.00    +0.002 A 
ATOM     21  C   UNL     1       0.036  -2.094   1.188  0.00  0.00    +0.026 A 
ATOM     22  C   UNL     1       0.023  -0.705   1.200  0.00  0.00    +0.053 A 
ENDBRANCH   1  22
BRANCH   5  23
ATOM     23  S   UNL     1       2.807   0.188   2.682  0.00  0.00    -0.076 S 
BRANCH  23  24
ATOM     24  C   UNL     1       3.727   0.973   4.035  0.00  0.00    +0.173 C 
BRANCH  24  25
ATOM     25  C   UNL     1       5.206   0.852   3.773  0.00  0.00    +0.224 C 
ATOM     26  O   UNL     1       5.601   0.291   2.773  0.00  0.00    -0.275 OA
ATOM     27  N   UNL     1       6.090   1.366   4.651  0.00  0.00    -0.297 N 
ATOM     28  H   UNL     1       5.774   1.815   5.450  0.00  0.00    +0.150 HD
BRANCH  27  29
ATOM     29  C   UNL     1       7.527   1.249   4.396  0.00  0.00    +0.121 C 
ATOM     30  C   UNL     1       7.911  -0.230   4.310  0.00  0.00    +0.048 C 
BRANCH  29  31
ATOM     31  C   UNL     1       8.303   1.911   5.537  0.00  0.00    +0.020 C 
ATOM     32  C   UNL     1       8.057   1.140   6.835  0.00  0.00    +0.010 C 
ATOM     33  C   UNL     1       9.798   1.898   5.212  0.00  0.00    +0.010 C 
ENDBRANCH  29  31
BRANCH  29  34
ATOM     34  C   UNL     1       7.857   1.916   3.126  0.00  0.00    +0.088 C 
ATOM     35  N   UNL     1       8.112   2.431   2.146  0.00  0.00    -0.194 NA
ENDBRANCH  29  34
ENDBRANCH  27  29
ENDBRANCH  24  25
ENDBRANCH  23  24
ENDBRANCH   5  23
TORSDOF 8
