REMARK  Name = ZINC57218492
REMARK  2 active torsions:
REMARK  status: ('A' for Active; 'I' for Inactive)
REMARK    1  A    between atoms: C_1  and  C_2
REMARK    2  A    between atoms: C_5  and  C_15
REMARK                            x       y       z     vdW  Elec       q    Type
REMARK                         _______ _______ _______ _____ _____    ______ ____
ROOT
ATOM      1  C   UNL     1      -0.019   1.526   0.010  0.00  0.00    +0.028 C 
ATOM      2  C   UNL     1       0.002  -0.004   0.002  0.00  0.00    +0.071 C 
ATOM      3  C   UNL     1      -1.426  -0.515  -0.020  0.00  0.00    +0.048 C 
ATOM      4  C   UNL     1      -2.172  -0.286   1.285  0.00  0.00    +0.106 C 
ATOM      5  N   UNL     1      -1.311  -0.567   2.431  0.00  0.00    -0.267 N 
ATOM      6  C   UNL     1       0.065  -0.616   2.359  0.00  0.00    +0.119 A 
ATOM      7  C   UNL     1       0.548  -0.840   3.606  0.00  0.00    +0.114 A 
ATOM      8  C   UNL     1      -0.547  -0.958   4.479  0.00  0.00    +0.266 A 
ATOM      9  O   UNL     1      -0.487  -1.154   5.680  0.00  0.00    -0.266 OA
ATOM     10  N   UNL     1      -1.677  -0.814   3.754  0.00  0.00    -0.262 N 
ATOM     11  H   UNL     1      -2.584  -0.872   4.094  0.00  0.00    +0.190 HD
ATOM     12  N   UNL     1       0.739  -0.475   1.175  0.00  0.00    -0.327 N 
ATOM     13  C   UNL     1      -3.392  -1.207   1.335  0.00  0.00    +0.032 C 
ATOM     14  H   UNL     1       1.685  -0.683   1.116  0.00  0.00    +0.148 HD
ENDROOT
TORSDOF 0
