REMARK  Name = ZINC39666797
REMARK  9 active torsions:
REMARK  status: ('A' for Active; 'I' for Inactive)
REMARK    1  A    between atoms: C_1  and  C_2
REMARK    2  A    between atoms: C_2  and  C_3
REMARK    3  A    between atoms: C_3  and  C_4
REMARK    4  A    between atoms: C_3  and  C_6
REMARK    5  A    between atoms: C_4  and  C_5
REMARK    6  A    between atoms: C_6  and  N_7
REMARK    7  A    between atoms: C_8  and  C_10
REMARK    8  A    between atoms: C_21  and  C_23
REMARK    9  A    between atoms: C_27  and  C_30
REMARK                            x       y       z     vdW  Elec       q    Type
REMARK                         _______ _______ _______ _____ _____    ______ ____
ROOT
ATOM      1  C   UNL     1      -2.812  -3.997  -2.489  0.00  0.00    +0.100 C 
ATOM      2  C   UNL     1      -3.726  -3.567  -1.319  0.00  0.00    +0.121 C 
ATOM      3  N   UNL     1      -4.812  -4.575  -1.302  0.00  0.00    -0.296 N 
ATOM      4  C   UNL     1      -4.128  -5.858  -1.595  0.00  0.00    +0.115 C 
ATOM      5  C   UNL     1      -3.079  -5.501  -2.667  0.00  0.00    -0.004 C 
ATOM      6  C   UNL     1      -3.633  -5.779  -4.061  0.00  0.00    -0.010 C 
ATOM      7  C   UNL     1      -3.836  -7.287  -4.233  0.00  0.00    -0.082 C 
ATOM      8  N   UNL     1      -2.555  -7.979  -4.046  0.00  0.00    +0.379 N 
ATOM      9  C   UNL     1      -2.075  -7.783  -2.673  0.00  0.00    -0.082 C 
ATOM     10  C   UNL     1      -1.798  -6.296  -2.435  0.00  0.00    -0.010 C 
ATOM     11  C   UNL     1      -6.124  -4.372  -1.073  0.00  0.00    +0.251 C 
ATOM     12  O   UNL     1      -6.897  -5.311  -1.092  0.00  0.00    -0.270 OA
ATOM     13  H   UNL     1      -2.680  -8.965  -4.220  0.00  0.00    -0.086 HD
ATOM     14  H   UNL     1      -1.877  -7.609  -4.694  0.00  0.00    -0.086 HD
ENDROOT
BRANCH  11  15
ATOM     15  C   UNL     1      -6.623  -3.011  -0.797  0.00  0.00    +0.091 A 
ATOM     16  C   UNL     1      -7.046  -2.191  -1.848  0.00  0.00    +0.056 A 
ATOM     17  C   UNL     1      -7.513  -0.919  -1.582  0.00  0.00    +0.021 A 
ATOM     18  C   UNL     1      -7.561  -0.454  -0.280  0.00  0.00    +0.007 A 
ATOM     19  C   UNL     1      -7.144  -1.256   0.765  0.00  0.00    -0.014 A 
ATOM     20  C   UNL     1      -6.681  -2.535   0.517  0.00  0.00    +0.140 A 
ATOM     21  F   UNL     1      -6.279  -3.321   1.540  0.00  0.00    -0.204 F 
ATOM     22  C   UNL     1      -7.201  -0.739   2.180  0.00  0.00    +0.047 C 
ATOM     23 CL   UNL     1      -6.986  -2.772  -3.483  0.00  0.00    -0.083 Cl
ENDBRANCH  11  15
BRANCH   1  25
ATOM     24  N   UNL     1      -0.473  -3.490  -3.114  0.00  0.00    -0.315 N 
ATOM     25  C   UNL     1      -1.366  -3.757  -2.141  0.00  0.00    +0.218 C 
ATOM     26  O   UNL     1      -1.005  -3.806  -0.984  0.00  0.00    -0.275 OA
ATOM     27  H   UNL     1      -0.762  -3.451  -4.040  0.00  0.00    +0.149 HD
BRANCH  24  28
ATOM     28  C   UNL     1       0.933  -3.257  -2.775  0.00  0.00    +0.107 C 
BRANCH  28  29
ATOM     29  C   UNL     1       1.726  -2.978  -4.053  0.00  0.00    +0.006 C 
BRANCH  29  31
ATOM     30  C   UNL     1       1.927  -1.464  -6.031  0.00  0.00    +0.004 C 
ATOM     31  C   UNL     1       1.239  -1.669  -4.680  0.00  0.00    +0.002 C 
ENDBRANCH  29  31
BRANCH  29  32
ATOM     32  C   UNL     1       3.213  -2.858  -3.715  0.00  0.00    +0.002 C 
ATOM     33  C   UNL     1       3.733  -4.208  -3.216  0.00  0.00    +0.004 C 
ENDBRANCH  29  32
ENDBRANCH  28  29
ENDBRANCH  24  28
ENDBRANCH   1  25
TORSDOF 6
