REMARK  Name = ZINC03248137
REMARK  9 active torsions:
REMARK  status: ('A' for Active; 'I' for Inactive)
REMARK    1  A    between atoms: C_1  and  N_2
REMARK    2  A    between atoms: N_2  and  S_3
REMARK    3  A    between atoms: S_3  and  C_6
REMARK    4  A    between atoms: C_10  and  C_12
REMARK    5  A    between atoms: C_12  and  O_14
REMARK    6  A    between atoms: O_14  and  C_15
REMARK    7  A    between atoms: C_15  and  C_16
REMARK    8  A    between atoms: N_18  and  C_19
REMARK    9  A    between atoms: C_20  and  C_29
REMARK                            x       y       z     vdW  Elec       q    Type
REMARK                         _______ _______ _______ _____ _____    ______ ____
ROOT
ATOM      1  C   UNL     1      -2.809  -2.443  -7.264  0.00  0.00    +0.328 C 
ENDROOT
BRANCH   1   2
ATOM      2  C   UNL     1      -3.602  -1.986  -8.461  0.00  0.00    +0.255 C 
ATOM      3  O   UNL     1      -4.329  -1.020  -8.374  0.00  0.00    -0.272 OA
ATOM      4  N   UNL     1      -3.503  -2.652  -9.630  0.00  0.00    -0.276 N 
ATOM      5  H   UNL     1      -2.921  -3.425  -9.700  0.00  0.00    +0.155 HD
BRANCH   4   6
ATOM      6  C   UNL     1      -4.234  -2.231 -10.732  0.00  0.00    +0.090 A 
ATOM      7  C   UNL     1      -4.262  -2.789 -11.998  0.00  0.00    +0.084 A 
ATOM      8  C   UNL     1      -5.117  -2.155 -12.991  0.00  0.00    -0.018 A 
ATOM      9  C   UNL     1      -5.782  -1.074 -12.530  0.00  0.00    -0.004 A 
ATOM     10  S   UNL     1      -5.292  -0.932 -10.835  0.00  0.00    -0.077 S 
ATOM     11  C   UNL     1      -6.721  -0.187 -13.287  0.00  0.00    +0.043 C 
ATOM     12  C   UNL     1      -7.740  -1.056 -14.036  0.00  0.00    +0.005 C 
ATOM     13  C   UNL     1      -7.176  -1.392 -15.412  0.00  0.00    +0.001 C 
ATOM     14  C   UNL     1      -5.656  -1.524 -15.341  0.00  0.00    +0.005 C 
ATOM     15  C   UNL     1      -5.262  -2.671 -14.415  0.00  0.00    +0.037 C 
BRANCH   7  16
ATOM     16  C   UNL     1      -3.480  -3.945 -12.318  0.00  0.00    +0.102 C 
ATOM     17  N   UNL     1      -2.859  -4.862 -12.572  0.00  0.00    -0.191 NA
ENDBRANCH   7  16
ENDBRANCH   4   6
ENDBRANCH   1   2
BRANCH   1  18
ATOM     18  O   UNL     1      -3.081  -1.584  -6.156  0.00  0.00    -0.452 OA
BRANCH  18  19
ATOM     19  C   UNL     1      -2.447  -1.858  -4.999  0.00  0.00    +0.340 C 
ATOM     20  O   UNL     1      -1.683  -2.800  -4.934  0.00  0.00    -0.245 OA
BRANCH  19  25
ATOM     21  C   UNL     1      -2.247  -0.499  -1.505  0.00  0.00    +0.106 A 
ATOM     22  C   UNL     1      -3.118   0.574  -1.583  0.00  0.00    +0.028 A 
ATOM     23  C   UNL     1      -3.770   0.858  -2.769  0.00  0.00    +0.003 A 
ATOM     24  C   UNL     1      -3.557   0.072  -3.883  0.00  0.00    +0.015 A 
ATOM     25  C   UNL     1      -2.680  -1.012  -3.811  0.00  0.00    +0.061 A 
ATOM     26  C   UNL     1      -2.020  -1.289  -2.612  0.00  0.00    +0.043 A 
BRANCH  21  27
ATOM     27  S   UNL     1      -1.421  -0.852   0.011  0.00  0.00    +0.058 S 
ATOM     28  O   UNL     1      -1.073  -2.229  -0.027  0.00  0.00    -0.153 OA
ATOM     29  O   UNL     1      -2.218  -0.295   1.047  0.00  0.00    -0.153 OA
BRANCH  27  31
ATOM     30  C   UNL     1      -0.018   1.461   0.010  0.00  0.00    +0.127 C 
ATOM     31  N   UNL     1       0.002  -0.004   0.002  0.00  0.00    -0.193 NA
ATOM     32  H   UNL     1       0.849  -0.478  -0.009  0.00  0.00    +0.148 HD
ENDBRANCH  27  31
ENDBRANCH  21  27
ENDBRANCH  19  25
ENDBRANCH  18  19
ENDBRANCH   1  18
TORSDOF 8
