REMARK  Name = ZINC65312341
REMARK  3 active torsions:
REMARK  status: ('A' for Active; 'I' for Inactive)
REMARK    1  A    between atoms: C_15  and  C_18
REMARK    2  A    between atoms: N_20  and  C_21
REMARK    3  A    between atoms: C_21  and  C_22
REMARK                            x       y       z     vdW  Elec       q    Type
REMARK                         _______ _______ _______ _____ _____    ______ ____
ROOT
ATOM      1  C   UNL     1       2.918   2.448   2.832  0.00  0.00    +0.025 A 
ATOM      2  C   UNL     1       2.713   2.652   1.504  0.00  0.00    +0.050 A 
ATOM      3  C   UNL     1       3.003   1.615   0.595  0.00  0.00    +0.162 A 
ATOM      4  N   UNL     1       2.915   1.505  -0.718  0.00  0.00    -0.128 NA
ATOM      5  N   UNL     1       3.307   0.335  -1.082  0.00  0.00    -0.112 NA
ATOM      6  C   UNL     1       3.668  -0.371  -0.035  0.00  0.00    +0.224 A 
ATOM      7  N   UNL     1       3.489   0.413   1.065  0.00  0.00    -0.269 N 
ATOM      8  C   UNL     1       3.689   0.224   2.405  0.00  0.00    +0.116 A 
ATOM      9  C   UNL     1       3.415   1.210   3.283  0.00  0.00    +0.058 A 
ATOM     10 CL   UNL     1       3.676   0.952   4.980  0.00  0.00    -0.082 Cl
ATOM     11  N   UNL     1       4.145  -1.678  -0.047  0.00  0.00    -0.299 N 
ATOM     12  C   UNL     1       3.218  -2.814   0.059  0.00  0.00    +0.108 C 
ATOM     13  C   UNL     1       3.470  -3.767  -1.113  0.00  0.00    +0.020 C 
ATOM     14  C   UNL     1       4.948  -4.162  -1.136  0.00  0.00    +0.016 C 
ATOM     15  C   UNL     1       5.809  -2.912  -1.336  0.00  0.00    +0.092 C 
ATOM     16  C   UNL     1       5.583  -1.949  -0.172  0.00  0.00    +0.120 C 
ENDROOT
BRANCH  15  17
ATOM     17  C   UNL     1       7.262  -3.306  -1.392  0.00  0.00    +0.218 C 
ATOM     18  O   UNL     1       8.043  -2.859  -0.579  0.00  0.00    -0.275 OA
ATOM     19  N   UNL     1       7.695  -4.154  -2.346  0.00  0.00    -0.315 N 
ATOM     20  H   UNL     1       7.070  -4.512  -2.996  0.00  0.00    +0.149 HD
BRANCH  19  21
ATOM     21  C   UNL     1       9.108  -4.537  -2.400  0.00  0.00    +0.107 C 
BRANCH  21  22
ATOM     22  C   UNL     1       9.331  -5.502  -3.567  0.00  0.00    +0.006 C 
ATOM     23  C   UNL     1       8.569  -6.802  -3.306  0.00  0.00    +0.005 C 
ATOM     24  C   UNL     1       8.791  -7.767  -4.473  0.00  0.00    +0.000 C 
ATOM     25  C   UNL     1      10.285  -8.069  -4.606  0.00  0.00    +0.000 C 
ATOM     26  C   UNL     1      11.047  -6.768  -4.867  0.00  0.00    +0.000 C 
ATOM     27  C   UNL     1      10.824  -5.804  -3.700  0.00  0.00    +0.005 C 
ENDBRANCH  21  22
ENDBRANCH  19  21
ENDBRANCH  15  17
TORSDOF 3
