REMARK  Name = ZINC06187644
REMARK  6 active torsions:
REMARK  status: ('A' for Active; 'I' for Inactive)
REMARK    1  A    between atoms: C_1  and  C_2
REMARK    2  A    between atoms: C_15  and  C_17
REMARK    3  A    between atoms: C_17  and  N_53
REMARK    4  A    between atoms: C_18  and  N_53
REMARK    5  A    between atoms: C_19  and  C_20
REMARK    6  A    between atoms: C_19  and  N_53
REMARK                            x       y       z     vdW  Elec       q    Type
REMARK                         _______ _______ _______ _____ _____    ______ ____
ROOT
ATOM      1  C   UNL     1       0.978  -5.595  -3.605  0.00  0.00    -0.003 C 
ENDROOT
BRANCH   1  15
ATOM      2  C   UNL     1       1.397   3.572   0.259  0.00  0.00    +0.008 C 
ATOM      3  C   UNL     1       1.415   2.064  -0.000  0.00  0.00    -0.009 C 
ATOM      4  C   UNL     1      -0.019   1.524   0.010  0.00  0.00    +0.008 C 
ATOM      5  C   UNL     1       0.002  -0.004   0.002  0.00  0.00    +0.037 C 
ATOM      6  C   UNL     1       0.873  -0.481  -1.158  0.00  0.00    -0.023 A 
ATOM      7  C   UNL     1       1.763   0.357  -1.738  0.00  0.00    -0.004 A 
ATOM      8  S   UNL     1       2.538  -0.601  -3.016  0.00  0.00    -0.073 S 
ATOM      9  C   UNL     1       1.671  -2.118  -2.769  0.00  0.00    +0.116 A 
ATOM     10  C   UNL     1       0.801  -1.828  -1.695  0.00  0.00    +0.075 A 
ATOM     11  C   UNL     1      -0.058  -2.888  -1.248  0.00  0.00    +0.260 A 
ATOM     12  O   UNL     1      -0.845  -2.741  -0.329  0.00  0.00    -0.267 OA
ATOM     13  N   UNL     1       0.063  -4.061  -1.913  0.00  0.00    -0.312 N 
ATOM     14  H   UNL     1      -0.499  -4.805  -1.644  0.00  0.00    +0.170 HD
ATOM     15  C   UNL     1       0.930  -4.245  -2.937  0.00  0.00    +0.094 A 
ATOM     16  N   UNL     1       1.732  -3.300  -3.375  0.00  0.00    -0.229 NA
ATOM     17  C   UNL     1       2.034   1.785  -1.377  0.00  0.00    +0.046 C 
ENDBRANCH   1  15
BRANCH   1  19
ATOM     18  C   UNL     1       3.333  -5.405  -4.136  0.00  0.00    -0.095 C 
ATOM     19  N   UNL     1       1.974  -5.552  -4.697  0.00  0.00    +0.387 N 
ATOM     20  H   UNL     1       1.772  -4.745  -5.299  0.00  0.00    -0.081 HD
BRANCH  19  21
ATOM     21  C   UNL     1       1.891  -6.786  -5.505  0.00  0.00    -0.003 C 
BRANCH  21  22
ATOM     22  C   UNL     1       2.752  -6.623  -6.731  0.00  0.00    +0.095 A 
ATOM     23  N   UNL     1       4.007  -7.106  -6.697  0.00  0.00    -0.344 N 
ATOM     24  H   UNL     1       4.332  -7.546  -5.896  0.00  0.00    +0.167 HD
ATOM     25  C   UNL     1       4.834  -6.986  -7.796  0.00  0.00    +0.053 A 
ATOM     26  C   UNL     1       6.132  -7.478  -7.796  0.00  0.00    +0.026 A 
ATOM     27  C   UNL     1       6.919  -7.327  -8.918  0.00  0.00    +0.002 A 
ATOM     28  C   UNL     1       6.427  -6.689 -10.048  0.00  0.00    +0.001 A 
ATOM     29  C   UNL     1       5.141  -6.194 -10.068  0.00  0.00    +0.015 A 
ATOM     30  C   UNL     1       4.335  -6.339  -8.941  0.00  0.00    +0.065 A 
ATOM     31  C   UNL     1       2.952  -5.832  -8.898  0.00  0.00    +0.281 A 
ATOM     32  O   UNL     1       2.462  -5.263  -9.858  0.00  0.00    -0.265 OA
ATOM     33  N   UNL     1       2.244  -6.016  -7.767  0.00  0.00    -0.197 NA
ENDBRANCH  21  22
ENDBRANCH  19  21
ENDBRANCH   1  19
TORSDOF 4
