REMARK  Name = ZINC09579168
REMARK  5 active torsions:
REMARK  status: ('A' for Active; 'I' for Inactive)
REMARK    1  A    between atoms: C_6  and  S_7
REMARK    2  A    between atoms: S_7  and  N_10
REMARK    3  A    between atoms: C_17  and  S_19
REMARK    4  A    between atoms: S_19  and  C_20
REMARK    5  A    between atoms: C_20  and  C_21
REMARK                            x       y       z     vdW  Elec       q    Type
REMARK                         _______ _______ _______ _____ _____    ______ ____
ROOT
ATOM      1  C   UNL     1       4.866  -0.368  -0.762  0.00  0.00    +0.032 A 
ATOM      2  C   UNL     1       5.317  -0.660  -2.034  0.00  0.00    +0.050 A 
ATOM      3  C   UNL     1       4.868  -1.799  -2.682  0.00  0.00    +0.156 A 
ATOM      4  C   UNL     1       3.955  -2.652  -2.042  0.00  0.00    +0.112 A 
ATOM      5  C   UNL     1       3.513  -2.348  -0.754  0.00  0.00    +0.060 A 
ATOM      6  C   UNL     1       3.966  -1.208  -0.126  0.00  0.00    +0.108 A 
ATOM      7  N   UNL     1       3.700  -3.670  -2.908  0.00  0.00    -0.203 NA
ATOM      8  C   UNL     1       4.393  -3.475  -4.001  0.00  0.00    +0.258 A 
ATOM      9  O   UNL     1       5.114  -2.345  -3.895  0.00  0.00    -0.431 OA
ENDROOT
BRANCH   6  10
ATOM     10  S   UNL     1       3.402  -0.819   1.497  0.00  0.00    +0.061 S 
ATOM     11  O   UNL     1       4.396   0.011   2.084  0.00  0.00    -0.153 OA
ATOM     12  O   UNL     1       2.987  -2.043   2.087  0.00  0.00    -0.153 OA
BRANCH  10  13
ATOM     13  N   UNL     1       2.043   0.113   1.334  0.00  0.00    -0.177 NA
ATOM     14  C   UNL     1       0.714  -0.508   1.262  0.00  0.00    +0.109 C 
ATOM     15  C   UNL     1       0.002  -0.004   0.002  0.00  0.00    +0.017 C 
ATOM     16  C   UNL     1      -0.019   1.526   0.010  0.00  0.00    +0.003 C 
ATOM     17  C   UNL     1       1.417   2.058  -0.000  0.00  0.00    +0.017 C 
ATOM     18  C   UNL     1       2.144   1.577   1.259  0.00  0.00    +0.109 C 
ENDBRANCH  10  13
ENDBRANCH   6  10
BRANCH   8  19
ATOM     19  S   UNL     1       4.382  -4.538  -5.407  0.00  0.00    -0.059 S 
BRANCH  19  20
ATOM     20  C   UNL     1       5.539  -3.651  -6.480  0.00  0.00    +0.153 C 
BRANCH  20  21
ATOM     21  C   UNL     1       5.691  -4.398  -7.780  0.00  0.00    +0.121 A 
ATOM     22  N   UNL     1       6.524  -3.888  -8.725  0.00  0.00    -0.309 N 
ATOM     23  H   UNL     1       7.005  -3.062  -8.559  0.00  0.00    +0.170 HD
ATOM     24  C   UNL     1       6.676  -4.544  -9.900  0.00  0.00    +0.266 A 
ATOM     25  O   UNL     1       7.415  -4.112 -10.768  0.00  0.00    -0.267 OA
ATOM     26  C   UNL     1       5.961  -5.727 -10.090  0.00  0.00    +0.102 A 
ATOM     27  C   UNL     1       5.105  -6.233  -9.097  0.00  0.00    +0.085 A 
ATOM     28  N   UNL     1       5.026  -5.497  -7.940  0.00  0.00    -0.232 NA
ATOM     29  C   UNL     1       4.449  -7.429  -9.418  0.00  0.00    +0.036 A 
ATOM     30  C   UNL     1       4.657  -8.018 -10.615  0.00  0.00    +0.048 A 
ATOM     31  S   UNL     1       5.818  -6.913 -11.401  0.00  0.00    -0.090 S 
ENDBRANCH  20  21
ENDBRANCH  19  20
ENDBRANCH   8  19
TORSDOF 5
