REMARK  Name = ZINC08558963
REMARK  3 active torsions:
REMARK  status: ('A' for Active; 'I' for Inactive)
REMARK    1  A    between atoms: C_1  and  C_2
REMARK    2  A    between atoms: C_2  and  C_28
REMARK    3  A    between atoms: C_6  and  C_19
REMARK                            x       y       z     vdW  Elec       q    Type
REMARK                         _______ _______ _______ _____ _____    ______ ____
ROOT
ATOM      1  C   UNL     1       1.748  11.365   2.201  0.00  0.00    +0.011 C 
ATOM      2  C   UNL     1       1.538  11.780   0.744  0.00  0.00    -0.023 C 
ATOM      3  C   UNL     1       0.558  10.808   0.075  0.00  0.00    +0.059 C 
ATOM      4  C   UNL     1       1.203   9.438   0.049  0.00  0.00    +0.031 C 
ATOM      5  C   UNL     1       2.558   9.285   0.029  0.00  0.00    +0.040 C 
ATOM      6  C   UNL     1       2.843   7.810   0.020  0.00  0.00    +0.161 C 
ATOM      7  N   UNL     1       1.507   7.186   0.029  0.00  0.00    -0.219 N 
ATOM      8  N   UNL     1       0.581   8.239   0.037  0.00  0.00    -0.265 N 
ATOM      9  C   UNL     1       1.224   5.835   0.023  0.00  0.00    +0.179 A 
ATOM     10  N   UNL     1       0.053   5.238   0.030  0.00  0.00    -0.224 NA
ATOM     11  C   UNL     1      -0.075   3.893   0.024  0.00  0.00    +0.080 A 
ATOM     12  C   UNL     1      -1.265   3.130   0.031  0.00  0.00    +0.029 A 
ATOM     13  C   UNL     1      -1.219   1.760   0.017  0.00  0.00    +0.002 A 
ATOM     14  C   UNL     1      -0.013   1.076   0.008  0.00  0.00    +0.001 A 
ATOM     15  C   UNL     1       1.171   1.791   0.001  0.00  0.00    +0.017 A 
ATOM     16  C   UNL     1       1.135   3.162   0.008  0.00  0.00    +0.041 A 
ATOM     17  S   UNL     1       2.356   4.452   0.004  0.00  0.00    -0.051 S 
ATOM     18  C   UNL     1       3.454  10.361   0.023  0.00  0.00    +0.163 C 
ATOM     19  O   UNL     1       4.655  10.176   0.024  0.00  0.00    -0.292 OA
ATOM     20  C   UNL     1       2.882  11.762   0.014  0.00  0.00    +0.086 C 
ATOM     21  C   UNL     1       0.958  13.194   0.701  0.00  0.00    +0.011 C 
ATOM     22  H   UNL     1      -0.382   8.121   0.037  0.00  0.00    +0.170 HD
ENDROOT
BRANCH   6  23
ATOM     23  C   UNL     1       3.597   7.426  -1.227  0.00  0.00    -0.021 A 
ATOM     24  C   UNL     1       2.931   7.327  -2.435  0.00  0.00    +0.006 A 
ATOM     25  C   UNL     1       3.624   6.979  -3.579  0.00  0.00    +0.000 A 
ATOM     26  C   UNL     1       4.980   6.721  -3.515  0.00  0.00    +0.000 A 
ATOM     27  C   UNL     1       5.645   6.814  -2.307  0.00  0.00    +0.000 A 
ATOM     28  C   UNL     1       4.953   7.167  -1.163  0.00  0.00    +0.006 A 
ENDBRANCH   6  23
TORSDOF 1
