REMARK  Name = ZINC44027742
REMARK  10 active torsions:
REMARK  status: ('A' for Active; 'I' for Inactive)
REMARK    1  A    between atoms: C_1  and  C_2
REMARK    2  A    between atoms: C_7  and  O_28
REMARK    3  A    between atoms: C_8  and  C_12
REMARK    4  A    between atoms: C_13  and  C_14
REMARK    5  A    between atoms: C_14  and  C_16
REMARK    6  A    between atoms: C_20  and  S_22
REMARK    7  A    between atoms: S_22  and  N_25
REMARK    8  A    between atoms: N_25  and  C_26
REMARK    9  A    between atoms: N_25  and  C_27
REMARK   10  A    between atoms: O_28  and  C_29
REMARK                            x       y       z     vdW  Elec       q    Type
REMARK                         _______ _______ _______ _____ _____    ______ ____
ROOT
ATOM      1  C   UNL     1       0.108  -4.873   3.530  0.00  0.00    +0.015 C 
ATOM      2  C   UNL     1       1.318  -4.771   4.127  0.00  0.00    +0.052 C 
ENDROOT
BRANCH   1   9
ATOM      3  C   UNL     1      -0.019   1.526   0.010  0.00  0.00    +0.052 C 
ATOM      4  C   UNL     1       0.002  -0.004   0.002  0.00  0.00    +0.175 C 
ATOM      5  C   UNL     1      -1.435  -0.572   0.076  0.00  0.00    +0.083 C 
ATOM      6  C   UNL     1      -1.242  -1.805   0.938  0.00  0.00    +0.001 A 
ATOM      7  C   UNL     1      -2.043  -2.902   1.166  0.00  0.00    +0.053 A 
ATOM      8  C   UNL     1      -1.616  -3.913   2.013  0.00  0.00    +0.128 A 
ATOM      9  C   UNL     1      -0.360  -3.808   2.634  0.00  0.00    +0.020 A 
ATOM     10  C   UNL     1       0.442  -2.689   2.398  0.00  0.00    +0.057 A 
ATOM     11  C   UNL     1       0.002  -1.681   1.552  0.00  0.00    +0.125 A 
ATOM     12  O   UNL     1       0.612  -0.511   1.201  0.00  0.00    -0.488 OA
BRANCH   8  13
ATOM     13  O   UNL     1      -2.404  -4.995   2.240  0.00  0.00    -0.495 OA
ATOM     14  C   UNL     1      -3.666  -5.029   1.572  0.00  0.00    +0.277 C 
ENDBRANCH   8  13
ENDBRANCH   1   9
BRANCH   2  15
ATOM     15  C   UNL     1       1.770  -5.799   4.992  0.00  0.00    +0.186 C 
ATOM     16  O   UNL     1       1.071  -6.774   5.197  0.00  0.00    -0.287 OA
BRANCH  15  17
ATOM     17  C   UNL     1       3.093  -5.688   5.645  0.00  0.00    +0.024 A 
ATOM     18  C   UNL     1       3.896  -4.568   5.417  0.00  0.00    +0.012 A 
ATOM     19  C   UNL     1       5.127  -4.470   6.029  0.00  0.00    +0.003 A 
ATOM     20  C   UNL     1       5.569  -5.479   6.868  0.00  0.00    +0.028 A 
ATOM     21  C   UNL     1       4.778  -6.590   7.099  0.00  0.00    +0.106 A 
ATOM     22  C   UNL     1       3.542  -6.698   6.497  0.00  0.00    +0.040 A 
BRANCH  21  23
ATOM     23  S   UNL     1       5.350  -7.869   8.168  0.00  0.00    +0.060 S 
ATOM     24  O   UNL     1       4.661  -9.053   7.790  0.00  0.00    -0.153 OA
ATOM     25  O   UNL     1       6.768  -7.783   8.182  0.00  0.00    -0.153 OA
BRANCH  23  26
ATOM     26  N   UNL     1       4.839  -7.492   9.698  0.00  0.00    -0.183 NA
ATOM     27  C   UNL     1       3.539  -7.972  10.175  0.00  0.00    +0.131 C 
ATOM     28  C   UNL     1       5.686  -6.679  10.574  0.00  0.00    +0.131 C 
ENDBRANCH  23  26
ENDBRANCH  21  23
ENDBRANCH  15  17
ENDBRANCH   2  15
TORSDOF 6
