REMARK  Name = ZINC20082520
REMARK  8 active torsions:
REMARK  status: ('A' for Active; 'I' for Inactive)
REMARK    1  A    between atoms: C_1  and  C_2
REMARK    2  A    between atoms: C_2  and  C_3
REMARK    3  A    between atoms: C_10  and  C_15
REMARK    4  A    between atoms: C_15  and  C_17
REMARK    5  A    between atoms: C_15  and  N_27
REMARK    6  A    between atoms: N_21  and  C_22
REMARK    7  A    between atoms: N_30  and  C_33
REMARK    8  A    between atoms: C_33  and  C_34
REMARK                            x       y       z     vdW  Elec       q    Type
REMARK                         _______ _______ _______ _____ _____    ______ ____
ROOT
ATOM      1  C   UNL     1      -2.723   1.794  -4.897  0.00  0.00    +0.162 C 
ENDROOT
BRANCH   1   9
ATOM      2  C   UNL     1      -8.885   1.380  -5.264  0.00  0.00    -0.047 A 
ATOM      3  C   UNL     1      -8.950  -0.007  -5.239  0.00  0.00    +0.005 A 
ATOM      4  C   UNL     1      -7.801  -0.763  -5.154  0.00  0.00    +0.026 A 
ATOM      5  C   UNL     1      -6.563  -0.132  -5.091  0.00  0.00    +0.049 A 
ATOM      6  C   UNL     1      -6.501   1.274  -5.116  0.00  0.00    -0.001 A 
ATOM      7  C   UNL     1      -7.681   2.021  -5.204  0.00  0.00    +0.013 A 
ATOM      8  C   UNL     1      -5.193   1.928  -5.050  0.00  0.00    +0.021 A 
ATOM      9  C   UNL     1      -4.084   1.153  -4.966  0.00  0.00    +0.042 A 
ATOM     10  C   UNL     1      -4.200  -0.254  -4.950  0.00  0.00    +0.254 A 
ATOM     11  O   UNL     1      -3.190  -0.933  -4.880  0.00  0.00    -0.268 OA
ATOM     12  N   UNL     1      -5.397  -0.864  -5.005  0.00  0.00    -0.322 N 
ATOM     13  H   UNL     1      -5.438  -1.963  -4.981  0.00  0.00    +0.169 HD
BRANCH   2  15
ATOM     14  C   UNL     1     -10.498   2.428  -6.829  0.00  0.00    +0.009 C 
ATOM     15  C   UNL     1     -10.156   2.185  -5.358  0.00  0.00    +0.032 C 
ENDBRANCH   2  15
ENDBRANCH   1   9
BRANCH   1  16
ATOM     16  N   UNL     1      -2.012   1.308  -3.707  0.00  0.00    -0.286 NA
ATOM     17  C   UNL     1      -0.677   1.914  -3.606  0.00  0.00    +0.101 C 
ATOM     18  C   UNL     1       0.059   1.323  -2.401  0.00  0.00    +0.100 C 
ATOM     19  N   UNL     1      -0.723   1.572  -1.182  0.00  0.00    -0.296 NA
ATOM     20  C   UNL     1      -2.058   0.966  -1.283  0.00  0.00    +0.100 C 
ATOM     21  C   UNL     1      -2.794   1.557  -2.488  0.00  0.00    +0.101 C 
BRANCH  19  22
ATOM     22  C   UNL     1      -0.013   1.086   0.008  0.00  0.00    +0.119 C 
BRANCH  22  23
ATOM     23  C   UNL     1      -0.718   1.572   1.248  0.00  0.00    -0.033 A 
ATOM     24  C   UNL     1      -0.360   2.779   1.818  0.00  0.00    +0.006 A 
ATOM     25  C   UNL     1      -1.010   3.228   2.952  0.00  0.00    +0.020 A 
ATOM     26  C   UNL     1      -2.012   2.464   3.523  0.00  0.00    +0.041 A 
ATOM     27  C   UNL     1      -2.367   1.253   2.955  0.00  0.00    +0.020 A 
ATOM     28  C   UNL     1      -1.719   0.808   1.817  0.00  0.00    +0.006 A 
ATOM     29 CL   UNL     1      -2.825   3.024   4.951  0.00  0.00    -0.084 Cl
ENDBRANCH  22  23
ENDBRANCH  19  22
ENDBRANCH   1  16
BRANCH   1  30
ATOM     30  C   UNL     1      -1.936   1.439  -6.132  0.00  0.00    +0.173 A 
ATOM     31  N   UNL     1      -1.374   0.284  -6.397  0.00  0.00    -0.111 NA
ATOM     32  N   UNL     1      -0.797   0.377  -7.545  0.00  0.00    -0.023 NA
ATOM     33  N   UNL     1      -0.977   1.560  -8.020  0.00  0.00    -0.044 NA
ATOM     34  N   UNL     1      -1.679   2.243  -7.180  0.00  0.00    -0.224 N 
BRANCH  34  35
ATOM     35  C   UNL     1      -2.112   3.634  -7.337  0.00  0.00    +0.111 C 
ATOM     36  C   UNL     1      -2.948   3.785  -8.624  0.00  0.00    +0.027 C 
ATOM     37  C   UNL     1      -2.539   5.172  -9.181  0.00  0.00    +0.002 C 
ATOM     38  C   UNL     1      -1.021   5.230  -8.876  0.00  0.00    +0.002 C 
ATOM     39  C   UNL     1      -0.887   4.552  -7.496  0.00  0.00    +0.027 C 
ENDBRANCH  34  35
ENDBRANCH   1  30
TORSDOF 7
