REMARK  Name = ZINC10784972
REMARK  13 active torsions:
REMARK  status: ('A' for Active; 'I' for Inactive)
REMARK    1  A    between atoms: C_1  and  C_2
REMARK    2  A    between atoms: C_5  and  C_8
REMARK    3  A    between atoms: C_11  and  S_14
REMARK    4  A    between atoms: N_12  and  N_13
REMARK    5  A    between atoms: S_14  and  C_15
REMARK    6  A    between atoms: C_15  and  C_17
REMARK    7  A    between atoms: C_15  and  C_18
REMARK    8  A    between atoms: N_20  and  C_21
REMARK    9  A    between atoms: C_21  and  C_22
REMARK   10  A    between atoms: C_21  and  C_23
REMARK   11  A    between atoms: C_21  and  C_25
REMARK   12  A    between atoms: C_25  and  C_26
REMARK   13  A    between atoms: C_25  and  C_27
REMARK                            x       y       z     vdW  Elec       q    Type
REMARK                         _______ _______ _______ _____ _____    ______ ____
ROOT
ATOM      1  C   UNL     1       3.700   2.600   2.846  0.00  0.00    +0.182 A 
ATOM      2  N   UNL     1       3.184   3.113   1.754  0.00  0.00    -0.127 NA
ATOM      3  N   UNL     1       1.992   2.665   1.579  0.00  0.00    -0.121 NA
ATOM      4  C   UNL     1       1.675   1.838   2.550  0.00  0.00    +0.209 A 
ATOM      5  N   UNL     1       2.747   1.772   3.393  0.00  0.00    -0.224 N 
ENDROOT
BRANCH   1  10
ATOM      6  C   UNL     1       8.948   3.639   4.965  0.00  0.00    +0.044 C 
ATOM      7  C   UNL     1       7.574   3.367   4.410  0.00  0.00    -0.050 A 
ATOM      8  C   UNL     1       7.048   4.197   3.436  0.00  0.00    +0.004 A 
ATOM      9  C   UNL     1       5.790   3.954   2.924  0.00  0.00    +0.012 A 
ATOM     10  C   UNL     1       5.048   2.867   3.390  0.00  0.00    +0.021 A 
ATOM     11  C   UNL     1       5.583   2.037   4.376  0.00  0.00    +0.012 A 
ATOM     12  C   UNL     1       6.844   2.288   4.876  0.00  0.00    +0.004 A 
ENDBRANCH   1  10
BRANCH   5  13
ATOM     13  N   UNL     1       2.852   1.036   4.539  0.00  0.00    -0.295 N 
ATOM     14  H   UNL     1       2.010   0.410   4.869  0.00  0.00    +0.163 HD
ATOM     15  H   UNL     1       3.778   1.070   5.131  0.00  0.00    +0.163 HD
ENDBRANCH   5  13
BRANCH   4  16
ATOM     16  S   UNL     1       0.147   0.980   2.733  0.00  0.00    -0.072 S 
BRANCH  16  17
ATOM     17  C   UNL     1      -0.729   1.579   1.267  0.00  0.00    +0.137 C 
ATOM     18  C   UNL     1      -0.013   1.086   0.008  0.00  0.00    +0.029 C 
BRANCH  17  19
ATOM     19  C   UNL     1      -2.143   1.058   1.278  0.00  0.00    +0.227 C 
ATOM     20  O   UNL     1      -2.427   0.089   1.950  0.00  0.00    -0.275 OA
ATOM     21  N   UNL     1      -3.091   1.667   0.539  0.00  0.00    -0.296 N 
ATOM     22  H   UNL     1      -2.834   2.546  -0.071  0.00  0.00    +0.150 HD
BRANCH  21  23
ATOM     23  C   UNL     1      -4.466   1.160   0.550  0.00  0.00    +0.121 C 
ATOM     24  C   UNL     1      -5.017   1.211   1.976  0.00  0.00    +0.048 C 
BRANCH  23  25
ATOM     25  C   UNL     1      -5.336   2.025  -0.364  0.00  0.00    +0.020 C 
ATOM     26  C   UNL     1      -6.740   1.423  -0.452  0.00  0.00    +0.010 C 
ATOM     27  C   UNL     1      -5.423   3.442   0.206  0.00  0.00    +0.010 C 
ENDBRANCH  23  25
BRANCH  23  28
ATOM     28  C   UNL     1      -4.479  -0.231   0.068  0.00  0.00    +0.088 C 
ATOM     29  N   UNL     1      -4.490  -1.304  -0.304  0.00  0.00    -0.194 NA
ENDBRANCH  23  28
ENDBRANCH  21  23
ENDBRANCH  17  19
ENDBRANCH  16  17
ENDBRANCH   4  16
TORSDOF 8
