REMARK  Name = ZINC39611103
REMARK  6 active torsions:
REMARK  status: ('A' for Active; 'I' for Inactive)
REMARK    1  A    between atoms: C_9  and  C_12
REMARK    2  A    between atoms: C_12  and  O_14
REMARK    3  A    between atoms: O_14  and  C_15
REMARK    4  A    between atoms: C_15  and  C_16
REMARK    5  A    between atoms: N_18  and  C_19
REMARK    6  A    between atoms: C_21  and  C_30
REMARK                            x       y       z     vdW  Elec       q    Type
REMARK                         _______ _______ _______ _____ _____    ______ ____
ROOT
ATOM      1  C   UNL     1      -0.662  -6.459  -0.246  0.00  0.00    +0.252 C 
ATOM      2  O   UNL     1       0.488  -6.831  -0.343  0.00  0.00    -0.272 OA
ATOM      3  N   UNL     1      -1.665  -7.359  -0.256  0.00  0.00    -0.299 N 
ATOM      4  H   UNL     1      -2.585  -7.062  -0.179  0.00  0.00    +0.150 HD
ENDROOT
BRANCH   3   5
ATOM      5  C   UNL     1      -1.365  -8.788  -0.386  0.00  0.00    +0.151 C 
ATOM      6  C   UNL     1      -2.265  -9.643   0.539  0.00  0.00    +0.132 C 
ATOM      7  C   UNL     1      -2.674 -10.934  -0.124  0.00  0.00    -0.046 C 
ATOM      8  C   UNL     1      -2.572 -11.007  -1.446  0.00  0.00    -0.013 C 
ATOM      9  S   UNL     1      -1.921  -9.451  -2.012  0.00  0.00    -0.106 S 
ATOM     10  C   UNL     1      -2.933 -12.177  -2.317  0.00  0.00    +0.042 C 
ATOM     11  C   UNL     1      -3.076 -13.424  -1.436  0.00  0.00    +0.005 C 
ATOM     12  C   UNL     1      -3.951 -13.069  -0.230  0.00  0.00    +0.005 C 
ATOM     13  C   UNL     1      -3.187 -12.119   0.692  0.00  0.00    +0.032 C 
BRANCH   6  14
ATOM     14  C   UNL     1      -3.503  -8.856   0.885  0.00  0.00    +0.220 C 
ATOM     15  O   UNL     1      -4.596  -9.272   0.563  0.00  0.00    -0.275 OA
ATOM     16  N   UNL     1      -3.396  -7.691   1.554  0.00  0.00    -0.329 N 
ATOM     17  H   UNL     1      -2.522  -7.358   1.811  0.00  0.00    +0.145 HD
ATOM     18  H   UNL     1      -4.193  -7.185   1.776  0.00  0.00    +0.145 HD
ENDBRANCH   6  14
ENDBRANCH   3   5
BRANCH   1  19
ATOM     19  C   UNL     1      -0.971  -4.990  -0.113  0.00  0.00    +0.328 C 
BRANCH  19  20
ATOM     20  O   UNL     1       0.248  -4.244  -0.127  0.00  0.00    -0.452 OA
BRANCH  20  21
ATOM     21  C   UNL     1       0.147  -2.904  -0.017  0.00  0.00    +0.337 C 
ATOM     22  O   UNL     1      -0.945  -2.384   0.089  0.00  0.00    -0.245 OA
BRANCH  21  31
ATOM     23  C   UNL     1       4.058  -4.590   0.003  0.00  0.00    +0.001 A 
ATOM     24  C   UNL     1       5.183  -3.755  -0.004  0.00  0.00    +0.002 A 
ATOM     25  C   UNL     1       5.091  -2.403  -0.017  0.00  0.00    +0.024 A 
ATOM     26  C   UNL     1       3.827  -1.772  -0.024  0.00  0.00    +0.041 A 
ATOM     27  N   UNL     1       3.744  -0.450  -0.037  0.00  0.00    -0.285 N 
ATOM     28  C   UNL     1       2.591   0.208  -0.044  0.00  0.00    +0.222 C 
ATOM     29  O   UNL     1       2.585   1.424  -0.057  0.00  0.00    -0.275 OA
ATOM     30  C   UNL     1       1.286  -0.555  -0.038  0.00  0.00    +0.139 C 
ATOM     31  C   UNL     1       1.365  -2.069  -0.024  0.00  0.00    +0.054 C 
ATOM     32  C   UNL     1       2.624  -2.632  -0.018  0.00  0.00    +0.007 A 
ATOM     33  C   UNL     1       2.800  -4.085  -0.004  0.00  0.00    +0.010 A 
ATOM     34  H   UNL     1       4.567   0.063  -0.041  0.00  0.00    +0.155 HD
ENDBRANCH  21  31
ENDBRANCH  20  21
ENDBRANCH  19  20
ENDBRANCH   1  19
TORSDOF 6
