REMARK  Name = ZINC09468530
REMARK  6 active torsions:
REMARK  status: ('A' for Active; 'I' for Inactive)
REMARK    1  A    between atoms: C_1  and  C_2
REMARK    2  A    between atoms: C_9  and  C_27
REMARK    3  A    between atoms: C_10  and  N_11
REMARK    4  A    between atoms: C_12  and  C_14
REMARK    5  A    between atoms: C_14  and  C_15
REMARK    6  A    between atoms: C_15  and  N_16
REMARK                            x       y       z     vdW  Elec       q    Type
REMARK                         _______ _______ _______ _____ _____    ______ ____
ROOT
ATOM      1  N   UNL     1       0.002  -0.004   0.002  0.00  0.00    -0.270 N 
ATOM      2  C   UNL     1      -0.008   1.338   0.124  0.00  0.00    +0.220 C 
ATOM      3  O   UNL     1       1.036   1.944   0.243  0.00  0.00    -0.275 OA
ATOM      4  H   UNL     1      -0.833  -0.497  -0.002  0.00  0.00    +0.156 HD
ENDROOT
BRANCH   1  14
ATOM      5  C   UNL     1       5.652  -2.062  -1.019  0.00  0.00    +0.047 C 
ATOM      6  C   UNL     1       4.601  -0.986  -1.116  0.00  0.00    -0.008 A 
ATOM      7  C   UNL     1       4.891   0.205  -1.705  0.00  0.00    +0.008 A 
ATOM      8  C   UNL     1       3.902   1.201  -1.789  0.00  0.00    +0.018 A 
ATOM      9  C   UNL     1       2.669   0.981  -1.290  0.00  0.00    +0.094 A 
ATOM     10  N   UNL     1       2.362  -0.212  -0.694  0.00  0.00    -0.287 N 
ATOM     11  C   UNL     1       3.308  -1.205  -0.597  0.00  0.00    +0.143 A 
ATOM     12  N   UNL     1       2.765  -2.246   0.014  0.00  0.00    -0.226 NA
ATOM     13  C   UNL     1       1.488  -1.962   0.325  0.00  0.00    +0.112 A 
ATOM     14  C   UNL     1       1.215  -0.685  -0.119  0.00  0.00    +0.137 A 
BRANCH  13  15
ATOM     15  C   UNL     1       0.540  -2.864   1.021  0.00  0.00    +0.004 A 
ATOM     16  C   UNL     1      -0.401  -2.341   1.907  0.00  0.00    +0.010 A 
ATOM     17  C   UNL     1      -1.284  -3.185   2.549  0.00  0.00    +0.001 A 
ATOM     18  C   UNL     1      -1.230  -4.549   2.322  0.00  0.00    +0.000 A 
ATOM     19  C   UNL     1      -0.295  -5.074   1.447  0.00  0.00    +0.001 A 
ATOM     20  C   UNL     1       0.590  -4.239   0.796  0.00  0.00    +0.010 A 
ENDBRANCH  13  15
ENDBRANCH   1  14
BRANCH   2  21
ATOM     21  C   UNL     1      -1.316   2.087   0.107  0.00  0.00    +0.115 C 
BRANCH  21  22
ATOM     22  C   UNL     1      -1.048   3.585   0.262  0.00  0.00    +0.127 C 
BRANCH  22  23
ATOM     23  N   UNL     1      -2.319   4.313   0.246  0.00  0.00    -0.224 N 
ATOM     24  C   UNL     1      -3.051   4.588   1.347  0.00  0.00    +0.247 C 
ATOM     25  O   UNL     1      -2.792   4.293   2.494  0.00  0.00    -0.273 OA
ATOM     26  C   UNL     1      -4.256   5.341   0.846  0.00  0.00    +0.113 C 
ATOM     27  C   UNL     1      -4.331   6.741   1.470  0.00  0.00    +0.035 C 
ATOM     28  C   UNL     1      -5.851   6.994   1.641  0.00  0.00    +0.003 C 
ATOM     29  C   UNL     1      -6.390   5.598   2.044  0.00  0.00    +0.003 C 
ATOM     30  C   UNL     1      -5.554   4.611   1.199  0.00  0.00    +0.035 C 
ATOM     31  N   UNL     1      -4.064   5.418  -0.604  0.00  0.00    -0.285 N 
ATOM     32  C   UNL     1      -2.898   4.792  -0.863  0.00  0.00    +0.309 C 
ATOM     33  O   UNL     1      -2.427   4.674  -1.977  0.00  0.00    -0.252 OA
ATOM     34  H   UNL     1      -4.655   5.838  -1.248  0.00  0.00    +0.151 HD
ENDBRANCH  22  23
ENDBRANCH  21  22
ENDBRANCH   2  21
TORSDOF 5
