REMARK  Name = ZINC09700484
REMARK  9 active torsions:
REMARK  status: ('A' for Active; 'I' for Inactive)
REMARK    1  A    between atoms: C_1  and  O_2
REMARK    2  A    between atoms: O_2  and  C_3
REMARK    3  A    between atoms: C_6  and  N_9
REMARK    4  A    between atoms: C_11  and  C_16
REMARK    5  A    between atoms: C_21  and  C_24
REMARK    6  A    between atoms: C_24  and  C_25
REMARK    7  A    between atoms: N_27  and  C_28
REMARK    8  A    between atoms: C_33  and  S_34
REMARK    9  A    between atoms: S_34  and  C_35
REMARK                            x       y       z     vdW  Elec       q    Type
REMARK                         _______ _______ _______ _____ _____    ______ ____
ROOT
ATOM      1  C   UNL     1      -2.865   8.643   9.267  0.00  0.00    +0.224 C 
ATOM      2  O   UNL     1      -4.028   8.504   9.579  0.00  0.00    -0.275 OA
ATOM      3  N   UNL     1      -2.288   7.777   8.411  0.00  0.00    -0.264 N 
ATOM      4  C   UNL     1      -3.027   6.723   7.885  0.00  0.00    +0.165 A 
ATOM      5  N   UNL     1      -2.646   5.783   7.043  0.00  0.00    -0.229 NA
ATOM      6  C   UNL     1      -3.482   4.846   6.640  0.00  0.00    +0.059 A 
ATOM      7  C   UNL     1      -4.754   4.872   7.107  0.00  0.00    +0.072 A 
ATOM      8  S   UNL     1      -4.689   6.309   8.168  0.00  0.00    -0.060 S 
ATOM      9  H   UNL     1      -1.357   7.888   8.161  0.00  0.00    +0.157 HD
ENDROOT
BRANCH   1  12
ATOM     10  N   UNL     1      -3.480  11.717   9.955  0.00  0.00    -0.271 N 
ATOM     11  C   UNL     1      -2.925  10.644  10.789  0.00  0.00    +0.127 C 
ATOM     12  C   UNL     1      -2.063   9.785   9.837  0.00  0.00    +0.102 C 
ATOM     13  C   UNL     1      -1.696  10.807   8.736  0.00  0.00    +0.110 C 
ATOM     14  C   UNL     1      -2.805  11.834   8.798  0.00  0.00    +0.221 C 
ATOM     15  O   UNL     1      -3.050  12.645   7.930  0.00  0.00    -0.275 OA
BRANCH  10  19
ATOM     16  C   UNL     1      -6.731  14.094  11.034  0.00  0.00    +0.120 A 
ATOM     17  C   UNL     1      -6.212  13.177  11.937  0.00  0.00    +0.047 A 
ATOM     18  C   UNL     1      -5.136  12.389  11.580  0.00  0.00    +0.027 A 
ATOM     19  C   UNL     1      -4.572  12.515  10.318  0.00  0.00    +0.036 A 
ATOM     20  C   UNL     1      -5.088  13.437   9.416  0.00  0.00    +0.027 A 
ATOM     21  C   UNL     1      -6.169  14.220   9.773  0.00  0.00    +0.047 A 
BRANCH  16  23
ATOM     22  C   UNL     1      -8.274  15.792  10.408  0.00  0.00    +0.277 C 
ATOM     23  O   UNL     1      -7.791  14.869  11.386  0.00  0.00    -0.495 OA
ENDBRANCH  16  23
ENDBRANCH  10  19
ENDBRANCH   1  12
BRANCH   6  24
ATOM     24  C   UNL     1      -3.036   3.776   5.677  0.00  0.00    +0.152 C 
BRANCH  24  25
ATOM     25  C   UNL     1      -2.462   4.420   4.441  0.00  0.00    +0.223 C 
ATOM     26  O   UNL     1      -2.419   5.629   4.351  0.00  0.00    -0.275 OA
ATOM     27  N   UNL     1      -1.996   3.653   3.436  0.00  0.00    -0.284 N 
ATOM     28  H   UNL     1      -2.103   2.689   3.472  0.00  0.00    +0.155 HD
BRANCH  27  29
ATOM     29  C   UNL     1      -1.356   4.247   2.340  0.00  0.00    +0.047 A 
ATOM     30  C   UNL     1      -0.744   5.483   2.478  0.00  0.00    +0.024 A 
ATOM     31  C   UNL     1      -0.120   6.070   1.393  0.00  0.00    +0.002 A 
ATOM     32  C   UNL     1      -0.097   5.425   0.170  0.00  0.00    +0.001 A 
ATOM     33  C   UNL     1      -0.699   4.190   0.025  0.00  0.00    +0.016 A 
ATOM     34  C   UNL     1      -1.329   3.593   1.108  0.00  0.00    +0.029 A 
BRANCH  34  35
ATOM     35  S   UNL     1      -2.097   2.018   0.925  0.00  0.00    -0.127 S 
ATOM     36  C   UNL     1      -1.811   1.588  -0.814  0.00  0.00    +0.090 C 
ENDBRANCH  34  35
ENDBRANCH  27  29
ENDBRANCH  24  25
ENDBRANCH   6  24
TORSDOF 7
