REMARK  Name = ZINC55341488
REMARK  12 active torsions:
REMARK  status: ('A' for Active; 'I' for Inactive)
REMARK    1  A    between atoms: C_1  and  C_2
REMARK    2  A    between atoms: C_2  and  O_3
REMARK    3  A    between atoms: O_3  and  C_4
REMARK    4  A    between atoms: C_9  and  C_10
REMARK    5  A    between atoms: C_10  and  N_11
REMARK    6  A    between atoms: N_11  and  C_12
REMARK    7  A    between atoms: N_11  and  C_16
REMARK    8  A    between atoms: C_12  and  C_13
REMARK    9  A    between atoms: C_13  and  O_14
REMARK   10  A    between atoms: O_14  and  C_15
REMARK   11  A    between atoms: C_16  and  C_17
REMARK   12  A    between atoms: N_22  and  C_24
REMARK                            x       y       z     vdW  Elec       q    Type
REMARK                         _______ _______ _______ _____ _____    ______ ____
ROOT
ATOM      1  C   UNL     1       3.930   0.193  -3.880  0.00  0.00    +0.086 C 
ENDROOT
BRANCH   1   2
ATOM      2  C   UNL     1       5.120   0.842  -3.170  0.00  0.00    -0.014 C 
ATOM      3  C   UNL     1       4.666   1.402  -1.819  0.00  0.00    +0.001 C 
ATOM      4  C   UNL     1       5.845   2.118  -1.152  0.00  0.00    -0.018 C 
ATOM      5  C   UNL     1       6.366   3.211  -2.087  0.00  0.00    -0.078 C 
ATOM      6  N   UNL     1       6.808   2.609  -3.351  0.00  0.00    +0.382 N 
ATOM      7  C   UNL     1       5.669   1.982  -4.031  0.00  0.00    -0.074 C 
ATOM      8  H   UNL     1       7.511   1.910  -3.161  0.00  0.00    -0.081 HD
BRANCH   6   9
ATOM      9  C   UNL     1       7.379   3.651  -4.215  0.00  0.00    -0.060 C 
ATOM     10  C   UNL     1       8.014   3.030  -5.477  0.00  0.00    +0.020 C 
ATOM     11  C   UNL     1       9.225   3.888  -5.774  0.00  0.00    -0.046 A 
ATOM     12  C   UNL     1       9.979   4.007  -6.930  0.00  0.00    +0.004 A 
ATOM     13  C   UNL     1      11.059   4.867  -6.970  0.00  0.00    +0.000 A 
ATOM     14  C   UNL     1      11.390   5.611  -5.853  0.00  0.00    +0.000 A 
ATOM     15  C   UNL     1      10.639   5.494  -4.699  0.00  0.00    +0.004 A 
ATOM     16  C   UNL     1       9.556   4.632  -4.657  0.00  0.00    -0.046 A 
ATOM     17  C   UNL     1       8.589   4.326  -3.534  0.00  0.00    +0.020 C 
ENDBRANCH   6   9
ENDBRANCH   1   2
BRANCH   1  18
ATOM     18  N   UNL     1       3.441  -0.939  -3.080  0.00  0.00    -0.296 NA
BRANCH  18  19
ATOM     19  C   UNL     1       2.231  -1.520  -3.676  0.00  0.00    +0.123 C 
BRANCH  19  25
ATOM     20  C   UNL     1       0.843  -2.056  -1.658  0.00  0.00    +0.125 A 
ATOM     21  C   UNL     1       0.279  -2.967  -0.776  0.00  0.00    +0.046 A 
ATOM     22  C   UNL     1       0.498  -4.320  -0.949  0.00  0.00    +0.004 A 
ATOM     23  C   UNL     1       1.279  -4.766  -2.000  0.00  0.00    +0.001 A 
ATOM     24  C   UNL     1       1.842  -3.860  -2.879  0.00  0.00    +0.008 A 
ATOM     25  C   UNL     1       1.621  -2.506  -2.714  0.00  0.00    +0.008 A 
BRANCH  20  26
ATOM     26  O   UNL     1       0.629  -0.724  -1.490  0.00  0.00    -0.492 OA
BRANCH  26  28
ATOM     27  C   UNL     1      -0.311   1.192  -0.356  0.00  0.00    +0.048 C 
ATOM     28  C   UNL     1      -0.183  -0.333  -0.381  0.00  0.00    +0.225 C 
ENDBRANCH  26  28
ENDBRANCH  20  26
ENDBRANCH  19  25
ENDBRANCH  18  19
BRANCH  18  29
ATOM     29  C   UNL     1       4.487  -1.956  -2.914  0.00  0.00    +0.112 C 
BRANCH  29  30
ATOM     30  C   UNL     1       4.749  -2.643  -4.256  0.00  0.00    +0.174 C 
BRANCH  30  31
ATOM     31  O   UNL     1       5.338  -1.709  -5.162  0.00  0.00    -0.382 OA
ATOM     32  C   UNL     1       5.727  -2.279  -6.414  0.00  0.00    +0.194 C 
ENDBRANCH  30  31
ENDBRANCH  29  30
ENDBRANCH  18  29
ENDBRANCH   1  18
TORSDOF 10
