REMARK  Name = ZINC06239429
REMARK  7 active torsions:
REMARK  status: ('A' for Active; 'I' for Inactive)
REMARK    1  A    between atoms: C_1  and  C_2
REMARK    2  A    between atoms: C_2  and  C_3
REMARK    3  A    between atoms: C_2  and  C_4
REMARK    4  A    between atoms: C_7  and  C_10
REMARK    5  A    between atoms: C_13  and  C_19
REMARK    6  A    between atoms: C_14  and  N_18
REMARK    7  A    between atoms: C_15  and  C_16
REMARK                            x       y       z     vdW  Elec       q    Type
REMARK                         _______ _______ _______ _____ _____    ______ ____
ROOT
ATOM      1  C   UNL     1      -2.739   4.007  -0.336  0.00  0.00    +0.006 A 
ATOM      2  C   UNL     1      -1.481   3.404  -0.396  0.00  0.00    -0.019 A 
ATOM      3  C   UNL     1      -1.317   2.099   0.040  0.00  0.00    +0.007 A 
ATOM      4  C   UNL     1      -2.431   1.382   0.542  0.00  0.00    +0.082 A 
ATOM      5  C   UNL     1      -3.693   1.982   0.602  0.00  0.00    +0.061 A 
ATOM      6  C   UNL     1      -3.851   3.304   0.161  0.00  0.00    +0.082 A 
ATOM      7  C   UNL     1      -0.017   1.394   0.010  0.00  0.00    -0.003 A 
ATOM      8  C   UNL     1       0.002  -0.004   0.002  0.00  0.00    +0.009 A 
ATOM      9  C   UNL     1       1.205  -0.677  -0.004  0.00  0.00    +0.001 A 
ATOM     10  C   UNL     1       2.402   0.021  -0.003  0.00  0.00    +0.001 A 
ATOM     11  C   UNL     1       2.401   1.403   0.001  0.00  0.00    +0.015 A 
ATOM     12  C   UNL     1       1.197   2.091   0.002  0.00  0.00    +0.016 A 
ATOM     13  S   UNL     1       1.176   3.854  -0.019  0.00  0.00    -0.120 S 
ATOM     14  C   UNL     1      -0.341   4.225  -0.943  0.00  0.00    +0.110 C 
ENDROOT
BRANCH   1  18
ATOM     15  C   UNL     1      -3.214   8.012  -1.676  0.00  0.00    -0.045 A 
ATOM     16  C   UNL     1      -3.850   6.982  -2.345  0.00  0.00    +0.004 A 
ATOM     17  C   UNL     1      -3.700   5.679  -1.915  0.00  0.00    +0.009 A 
ATOM     18  C   UNL     1      -2.905   5.402  -0.803  0.00  0.00    -0.016 A 
ATOM     19  C   UNL     1      -2.270   6.446  -0.130  0.00  0.00    +0.009 A 
ATOM     20  C   UNL     1      -2.424   7.744  -0.572  0.00  0.00    +0.004 A 
BRANCH  15  22
ATOM     21  C   UNL     1      -4.006  10.273  -1.034  0.00  0.00    +0.012 C 
ATOM     22  C   UNL     1      -3.383   9.432  -2.151  0.00  0.00    +0.013 C 
ATOM     23  C   UNL     1      -2.016  10.011  -2.523  0.00  0.00    +0.012 C 
ENDBRANCH  15  22
ENDBRANCH   1  18
BRANCH   5  24
ATOM     24  N   UNL     1      -4.778   1.277   1.093  0.00  0.00    -0.356 N 
ATOM     25  H   UNL     1      -4.665   0.362   1.397  0.00  0.00    +0.142 HD
ATOM     26  H   UNL     1      -5.652   1.696   1.133  0.00  0.00    +0.142 HD
ENDBRANCH   5  24
BRANCH   6  27
ATOM     27  C   UNL     1      -5.136   3.934   0.216  0.00  0.00    +0.102 C 
ATOM     28  N   UNL     1      -6.155   4.433   0.260  0.00  0.00    -0.191 NA
ENDBRANCH   6  27
BRANCH   4  29
ATOM     29  C   UNL     1      -2.264   0.032   0.992  0.00  0.00    +0.102 C 
ATOM     30  N   UNL     1      -2.132  -1.038   1.348  0.00  0.00    -0.191 NA
ENDBRANCH   4  29
TORSDOF 5
