REMARK  Name = ZINC02913607
REMARK  7 active torsions:
REMARK  status: ('A' for Active; 'I' for Inactive)
REMARK    1  A    between atoms: C_1  and  C_2
REMARK    2  A    between atoms: C_2  and  C_3
REMARK    3  A    between atoms: C_3  and  C_4
REMARK    4  A    between atoms: C_4  and  C_5
REMARK    5  A    between atoms: C_8  and  C_10
REMARK    6  A    between atoms: N_12  and  N_13
REMARK    7  A    between atoms: N_16  and  C_17
REMARK                            x       y       z     vdW  Elec       q    Type
REMARK                         _______ _______ _______ _____ _____    ______ ____
ROOT
ATOM      1  N   UNL     1      -5.588  -6.363  -1.729  0.00  0.00    -0.218 N 
ATOM      2  C   UNL     1      -5.813  -7.685  -1.864  0.00  0.00    +0.320 C 
ATOM      3  O   UNL     1      -6.790  -8.076  -2.474  0.00  0.00    -0.251 OA
ATOM      4  N   UNL     1      -4.956  -8.573  -1.323  0.00  0.00    -0.268 N 
ATOM      5  H   UNL     1      -6.204  -5.723  -2.119  0.00  0.00    +0.174 HD
ATOM      6  H   UNL     1      -4.143  -8.264  -0.895  0.00  0.00    +0.156 HD
ENDROOT
BRANCH   4   7
ATOM      7  C   UNL     1      -5.240  -9.942  -1.378  0.00  0.00    +0.035 A 
ATOM      8  C   UNL     1      -4.873 -10.772  -0.327  0.00  0.00    +0.023 A 
ATOM      9  C   UNL     1      -5.159 -12.122  -0.382  0.00  0.00    +0.002 A 
ATOM     10  C   UNL     1      -5.801 -12.650  -1.488  0.00  0.00    +0.000 A 
ATOM     11  C   UNL     1      -6.163 -11.827  -2.539  0.00  0.00    +0.002 A 
ATOM     12  C   UNL     1      -5.885 -10.475  -2.487  0.00  0.00    +0.023 A 
ENDBRANCH   4   7
BRANCH   1  15
ATOM     13  C   UNL     1      -4.237  -4.590  -0.892  0.00  0.00    +0.232 C 
ATOM     14  O   UNL     1      -5.008  -3.791  -1.379  0.00  0.00    -0.274 OA
ATOM     15  N   UNL     1      -4.462  -5.912  -1.027  0.00  0.00    -0.233 N 
ATOM     16  H   UNL     1      -3.846  -6.552  -0.637  0.00  0.00    +0.173 HD
BRANCH  13  19
ATOM     17  C   UNL     1      -2.826  -2.593  -0.018  0.00  0.00    +0.002 C 
ATOM     18  C   UNL     1      -3.264  -3.405   1.203  0.00  0.00    +0.017 C 
ATOM     19  C   UNL     1      -3.026  -4.106  -0.136  0.00  0.00    +0.080 C 
BRANCH  17  20
ATOM     20  C   UNL     1      -1.389  -2.067  -0.039  0.00  0.00    +0.004 C 
BRANCH  20  21
ATOM     21  C   UNL     1      -1.407  -0.537  -0.036  0.00  0.00    +0.000 C 
BRANCH  21  23
ATOM     22  C   UNL     1       0.013   1.518  -0.054  0.00  0.00    +0.004 C 
ATOM     23  C   UNL     1       0.030  -0.011  -0.057  0.00  0.00    -0.003 C 
ENDBRANCH  21  23
ENDBRANCH  20  21
ENDBRANCH  17  20
ENDBRANCH  13  19
ENDBRANCH   1  15
TORSDOF 6
