REMARK  Name = ZINC19972991
REMARK  13 active torsions:
REMARK  status: ('A' for Active; 'I' for Inactive)
REMARK    1  A    between atoms: C_1  and  C_2
REMARK    2  A    between atoms: C_2  and  C_3
REMARK    3  A    between atoms: C_10  and  C_15
REMARK    4  A    between atoms: C_15  and  C_17
REMARK    5  A    between atoms: C_15  and  N_26
REMARK    6  A    between atoms: N_21  and  C_22
REMARK    7  A    between atoms: C_22  and  C_23
REMARK    8  A    between atoms: C_22  and  C_24
REMARK    9  A    between atoms: C_22  and  C_25
REMARK   10  A    between atoms: N_26  and  C_27
REMARK   11  A    between atoms: N_26  and  C_34
REMARK   12  A    between atoms: C_27  and  C_28
REMARK   13  A    between atoms: C_34  and  C_35
REMARK                            x       y       z     vdW  Elec       q    Type
REMARK                         _______ _______ _______ _____ _____    ______ ____
ROOT
ATOM      1  C   UNL     1       6.508  -0.645  -3.099  0.00  0.00    +0.163 C 
ENDROOT
BRANCH   1   9
ATOM      2  C   UNL     1      10.068  -2.265  -7.893  0.00  0.00    -0.047 A 
ATOM      3  C   UNL     1      10.005  -1.046  -8.553  0.00  0.00    +0.005 A 
ATOM      4  C   UNL     1       9.279   0.002  -8.028  0.00  0.00    +0.026 A 
ATOM      5  C   UNL     1       8.604  -0.163  -6.823  0.00  0.00    +0.049 A 
ATOM      6  C   UNL     1       8.670  -1.401  -6.157  0.00  0.00    -0.001 A 
ATOM      7  C   UNL     1       9.412  -2.450  -6.709  0.00  0.00    +0.013 A 
ATOM      8  C   UNL     1       7.960  -1.562  -4.887  0.00  0.00    +0.021 A 
ATOM      9  C   UNL     1       7.254  -0.511  -4.402  0.00  0.00    +0.042 A 
ATOM     10  C   UNL     1       7.219   0.710  -5.110  0.00  0.00    +0.254 A 
ATOM     11  O   UNL     1       6.581   1.643  -4.654  0.00  0.00    -0.268 OA
ATOM     12  N   UNL     1       7.872   0.868  -6.274  0.00  0.00    -0.322 N 
ATOM     13  H   UNL     1       7.815   1.838  -6.790  0.00  0.00    +0.169 HD
BRANCH   2  15
ATOM     14  C   UNL     1       9.970  -4.228  -9.406  0.00  0.00    +0.009 C 
ATOM     15  C   UNL     1      10.868  -3.396  -8.488  0.00  0.00    +0.032 C 
ENDBRANCH   2  15
ENDBRANCH   1   9
BRANCH   1  16
ATOM     16  C   UNL     1       7.115   0.279  -2.075  0.00  0.00    +0.174 A 
ATOM     17  N   UNL     1       6.990   1.583  -2.026  0.00  0.00    -0.111 NA
ATOM     18  N   UNL     1       7.653   2.008  -1.006  0.00  0.00    -0.023 NA
ATOM     19  N   UNL     1       8.204   1.009  -0.408  0.00  0.00    -0.043 NA
ATOM     20  N   UNL     1       7.896  -0.074  -1.037  0.00  0.00    -0.222 N 
BRANCH  20  21
ATOM     21  C   UNL     1       8.316  -1.433  -0.687  0.00  0.00    +0.059 C 
ATOM     22  C   UNL     1       9.048  -2.062  -1.874  0.00  0.00    +0.036 C 
ATOM     23  C   UNL     1       9.254  -1.382   0.521  0.00  0.00    +0.036 C 
ATOM     24  C   UNL     1       7.086  -2.275  -0.343  0.00  0.00    +0.036 C 
ENDBRANCH  20  21
ENDBRANCH   1  16
BRANCH   1  25
ATOM     25  N   UNL     1       5.097  -0.289  -3.304  0.00  0.00    -0.280 NA
BRANCH  25  26
ATOM     26  C   UNL     1       4.311  -0.532  -2.087  0.00  0.00    +0.121 C 
BRANCH  26  27
ATOM     27  C   UNL     1       4.444   0.648  -1.159  0.00  0.00    -0.033 A 
ATOM     28  C   UNL     1       3.644   1.762  -1.339  0.00  0.00    +0.005 A 
ATOM     29  C   UNL     1       3.766   2.844  -0.488  0.00  0.00    +0.000 A 
ATOM     30  C   UNL     1       4.688   2.814   0.542  0.00  0.00    +0.000 A 
ATOM     31  C   UNL     1       5.487   1.700   0.722  0.00  0.00    +0.000 A 
ATOM     32  C   UNL     1       5.365   0.617  -0.129  0.00  0.00    +0.005 A 
ENDBRANCH  26  27
ENDBRANCH  25  26
BRANCH  25  33
ATOM     33  C   UNL     1       4.532  -1.016  -4.449  0.00  0.00    +0.128 C 
BRANCH  33  34
ATOM     34  C   UNL     1       3.290  -0.309  -4.928  0.00  0.00    +0.004 A 
ATOM     35  C   UNL     1       3.174   0.698  -5.827  0.00  0.00    +0.012 A 
ATOM     36  C   UNL     1       1.918   1.197  -6.117  0.00  0.00    +0.008 A 
ATOM     37  C   UNL     1       0.839   0.663  -5.494  0.00  0.00    +0.045 A 
ATOM     38  S   UNL     1       1.589  -0.589  -4.465  0.00  0.00    -0.100 S 
ENDBRANCH  33  34
ENDBRANCH  25  33
ENDBRANCH   1  25
TORSDOF 9
