REMARK  Name = ZINC60336450
REMARK  5 active torsions:
REMARK  status: ('A' for Active; 'I' for Inactive)
REMARK    1  A    between atoms: C_1  and  N_2
REMARK    2  A    between atoms: C_4  and  C_11
REMARK    3  A    between atoms: C_11  and  C_12
REMARK    4  A    between atoms: N_14  and  O_15
REMARK    5  A    between atoms: O_15  and  C_16
REMARK                            x       y       z     vdW  Elec       q    Type
REMARK                         _______ _______ _______ _____ _____    ______ ____
ROOT
ATOM      1  C   UNL     1       0.039  -3.258  -1.721  0.00  0.00    +0.135 C 
ENDROOT
BRANCH   1   5
ATOM      2  C   UNL     1      -0.018   1.461   0.010  0.00  0.00    +0.149 C 
ATOM      3  N   UNL     1       0.002  -0.004   0.002  0.00  0.00    -0.349 N 
ATOM      4  C   UNL     1       0.008  -0.784  -1.122  0.00  0.00    +0.090 A 
ATOM      5  C   UNL     1       0.027  -2.082  -0.779  0.00  0.00    -0.013 A 
ATOM      6  C   UNL     1       0.034  -2.138   0.685  0.00  0.00    +0.003 A 
ATOM      7  C   UNL     1       0.024  -0.801   1.125  0.00  0.00    +0.049 A 
ATOM      8  C   UNL     1       0.032  -0.533   2.489  0.00  0.00    +0.026 A 
ATOM      9  C   UNL     1       0.055  -1.574   3.391  0.00  0.00    +0.002 A 
ATOM     10  C   UNL     1       0.069  -2.891   2.952  0.00  0.00    +0.001 A 
ATOM     11  C   UNL     1       0.051  -3.177   1.616  0.00  0.00    +0.010 A 
ENDBRANCH   1   5
BRANCH   1  12
ATOM     12  C   UNL     1      -1.371  -3.746  -1.933  0.00  0.00    +0.240 C 
ATOM     13  O   UNL     1      -2.295  -3.193  -1.373  0.00  0.00    -0.273 OA
ATOM     14  N   UNL     1      -1.606  -4.797  -2.743  0.00  0.00    -0.192 N 
ATOM     15  H   UNL     1      -0.868  -5.239  -3.191  0.00  0.00    +0.183 HD
BRANCH  14  16
ATOM     16  O   UNL     1      -2.931  -5.255  -2.942  0.00  0.00    -0.248 OA
BRANCH  16  17
ATOM     17  C   UNL     1      -3.032  -6.375  -3.824  0.00  0.00    +0.276 C 
ATOM     18  C   UNL     1      -4.238  -7.230  -3.427  0.00  0.00    +0.063 C 
ATOM     19  C   UNL     1      -4.376  -8.394  -4.413  0.00  0.00    +0.007 C 
ATOM     20  C   UNL     1      -4.503  -7.834  -5.833  0.00  0.00    +0.028 C 
ATOM     21  C   UNL     1      -3.287  -6.955  -6.137  0.00  0.00    +0.163 C 
ATOM     22  O   UNL     1      -3.200  -5.911  -5.165  0.00  0.00    -0.349 OA
ENDBRANCH  16  17
ENDBRANCH  14  16
ENDBRANCH   1  12
TORSDOF 4
