REMARK  Name = ZINC39973387
REMARK  7 active torsions:
REMARK  status: ('A' for Active; 'I' for Inactive)
REMARK    1  A    between atoms: C_1  and  C_2
REMARK    2  A    between atoms: C_2  and  C_3
REMARK    3  A    between atoms: C_2  and  C_4
REMARK    4  A    between atoms: C_2  and  C_5
REMARK    5  A    between atoms: C_11  and  N_13
REMARK    6  A    between atoms: N_13  and  S_14
REMARK    7  A    between atoms: S_14  and  C_17
REMARK                            x       y       z     vdW  Elec       q    Type
REMARK                         _______ _______ _______ _____ _____    ______ ____
ROOT
ATOM      1  N   UNL     1       2.163   1.387  -1.333  0.00  0.00    -0.187 NA
ATOM      2  H   UNL     1       1.475   1.933  -1.746  0.00  0.00    +0.148 HD
ENDROOT
BRANCH   1   8
ATOM      3  C   UNL     1       0.606  -0.499  -1.314  0.00  0.00    +0.013 C 
ATOM      4  C   UNL     1      -0.165   0.107  -2.488  0.00  0.00    +0.005 C 
ATOM      5  C   UNL     1       0.439  -0.387  -3.804  0.00  0.00    +0.000 C 
ATOM      6  C   UNL     1       1.907   0.038  -3.883  0.00  0.00    +0.002 C 
ATOM      7  C   UNL     1       2.678  -0.568  -2.709  0.00  0.00    +0.020 C 
ATOM      8  C   UNL     1       2.074  -0.074  -1.393  0.00  0.00    +0.080 C 
BRANCH   3  10
ATOM      9  C   UNL     1      -0.051   1.525  -0.004  0.00  0.00    +0.011 C 
ATOM     10  C   UNL     1       0.002  -0.004   0.002  0.00  0.00    -0.033 C 
ATOM     11  C   UNL     1       0.867  -0.479   1.171  0.00  0.00    +0.011 C 
ATOM     12  C   UNL     1      -1.414  -0.563   0.155  0.00  0.00    +0.011 C 
ENDBRANCH   3  10
ENDBRANCH   1   8
BRANCH   1  13
ATOM     13  S   UNL     1       3.438   2.109  -0.561  0.00  0.00    +0.061 S 
ATOM     14  O   UNL     1       3.255   3.511  -0.698  0.00  0.00    -0.153 OA
ATOM     15  O   UNL     1       3.556   1.476   0.705  0.00  0.00    -0.153 OA
BRANCH  13  16
ATOM     16  C   UNL     1       4.894   1.700  -1.466  0.00  0.00    +0.133 A 
ATOM     17  C   UNL     1       5.599   2.675  -2.087  0.00  0.00    +0.031 A 
ATOM     18  C   UNL     1       6.756   2.388  -2.812  0.00  0.00    +0.004 A 
ATOM     19  C   UNL     1       7.223   1.123  -2.926  0.00  0.00    +0.031 A 
ATOM     20  C   UNL     1       6.534   0.049  -2.301  0.00  0.00    +0.102 A 
ATOM     21  C   UNL     1       5.328   0.349  -1.539  0.00  0.00    +0.126 A 
ATOM     22  N   UNL     1       4.770  -0.733  -0.993  0.00  0.00    -0.189 NA
ATOM     23  S   UNL     1       5.708  -1.968  -1.420  0.00  0.00    +0.117 S 
ATOM     24  N   UNL     1       6.843  -1.249  -2.305  0.00  0.00    -0.191 NA
ENDBRANCH  13  16
ENDBRANCH   1  13
TORSDOF 4
