REMARK  Name = ZINC43942588
REMARK  10 active torsions:
REMARK  status: ('A' for Active; 'I' for Inactive)
REMARK    1  A    between atoms: C_1  and  C_2
REMARK    2  A    between atoms: C_5  and  N_30
REMARK    3  A    between atoms: C_7  and  N_8
REMARK    4  A    between atoms: C_9  and  C_11
REMARK    5  A    between atoms: N_13  and  C_14
REMARK    6  A    between atoms: C_14  and  C_15
REMARK    7  A    between atoms: N_18  and  C_21
REMARK    8  A    between atoms: C_21  and  C_22
REMARK    9  A    between atoms: C_27  and  S_28
REMARK   10  A    between atoms: S_28  and  C_29
REMARK                            x       y       z     vdW  Elec       q    Type
REMARK                         _______ _______ _______ _____ _____    ______ ____
ROOT
ATOM      1  C   UNL     1       0.217   0.031   4.831  0.00  0.00    +0.299 C 
ATOM      2  O   UNL     1       0.121   1.241   4.837  0.00  0.00    -0.265 OA
ATOM      3  N   UNL     1       0.091  -0.660   5.981  0.00  0.00    -0.307 N 
ATOM      4  H   UNL     1       0.168  -1.627   5.977  0.00  0.00    +0.149 HD
ENDROOT
BRANCH   1   6
ATOM      5  N   UNL     1       0.602  -0.000   2.400  0.00  0.00    -0.277 N 
ATOM      6  C   UNL     1       0.475  -0.692   3.550  0.00  0.00    +0.303 C 
ATOM      7  O   UNL     1       0.572  -1.902   3.545  0.00  0.00    -0.265 OA
ATOM      8  H   UNL     1       0.592   0.970   2.414  0.00  0.00    +0.155 HD
BRANCH   5  15
ATOM      9  C   UNL     1      -0.568   1.142   0.072  0.00  0.00    +0.045 C 
ATOM     10  C   UNL     1       0.191  -0.159   0.027  0.00  0.00    -0.029 A 
ATOM     11  C   UNL     1       0.340  -0.831  -1.171  0.00  0.00    +0.007 A 
ATOM     12  C   UNL     1       1.036  -2.025  -1.213  0.00  0.00    +0.033 A 
ATOM     13  C   UNL     1       1.585  -2.551  -0.057  0.00  0.00    +0.128 A 
ATOM     14  C   UNL     1       1.439  -1.884   1.143  0.00  0.00    +0.056 A 
ATOM     15  C   UNL     1       0.746  -0.681   1.188  0.00  0.00    +0.039 A 
BRANCH  13  16
ATOM     16  N   UNL     1       2.329  -3.829  -0.107  0.00  0.00    +0.056 N 
ATOM     17  O   UNL     1       2.457  -4.414  -1.157  0.00  0.00    -0.126 OA
ATOM     18  O   UNL     1       2.809  -4.289   0.903  0.00  0.00    -0.126 OA
ENDBRANCH  13  16
ENDBRANCH   5  15
ENDBRANCH   1   6
BRANCH   3  19
ATOM     19  C   UNL     1      -0.162   0.049   7.238  0.00  0.00    +0.108 C 
BRANCH  19  20
ATOM     20  C   UNL     1      -0.263  -0.962   8.383  0.00  0.00    +0.003 C 
ATOM     21  C   UNL     1       1.093  -1.647   8.581  0.00  0.00    -0.014 C 
ATOM     22  C   UNL     1       1.007  -2.597   9.777  0.00  0.00    -0.078 C 
ATOM     23  N   UNL     1       0.659  -1.840  10.985  0.00  0.00    +0.382 N 
ATOM     24  C   UNL     1      -0.671  -1.239  10.830  0.00  0.00    -0.078 C 
ATOM     25  C   UNL     1      -0.650  -0.236   9.674  0.00  0.00    -0.014 C 
ATOM     26  H   UNL     1       1.341  -1.111  11.132  0.00  0.00    -0.081 HD
BRANCH  23  27
ATOM     27  C   UNL     1       0.655  -2.743  12.143  0.00  0.00    -0.042 C 
BRANCH  27  28
ATOM     28  C   UNL     1       0.446  -1.942  13.403  0.00  0.00    -0.051 A 
ATOM     29  C   UNL     1      -0.798  -1.905  14.000  0.00  0.00    +0.003 A 
ATOM     30  C   UNL     1      -0.991  -1.171  15.157  0.00  0.00    +0.000 A 
ATOM     31  C   UNL     1       0.062  -0.472  15.719  0.00  0.00    +0.001 A 
ATOM     32  C   UNL     1       1.309  -0.505  15.128  0.00  0.00    +0.015 A 
ATOM     33  C   UNL     1       1.508  -1.247  13.969  0.00  0.00    +0.009 A 
BRANCH  33  34
ATOM     34  S   UNL     1       3.099  -1.297  13.215  0.00  0.00    -0.128 S 
ATOM     35  C   UNL     1       4.128  -0.262  14.291  0.00  0.00    +0.090 C 
ENDBRANCH  33  34
ENDBRANCH  27  28
ENDBRANCH  23  27
ENDBRANCH  19  20
ENDBRANCH   3  19
TORSDOF 8
