REMARK  Name = ZINC14743529
REMARK  7 active torsions:
REMARK  status: ('A' for Active; 'I' for Inactive)
REMARK    1  A    between atoms: C_4  and  C_7
REMARK    2  A    between atoms: C_8  and  C_13
REMARK    3  A    between atoms: C_13  and  N_67
REMARK    4  A    between atoms: C_15  and  O_28
REMARK    5  A    between atoms: N_18  and  C_22
REMARK    6  A    between atoms: O_28  and  C_29
REMARK    7  A    between atoms: C_29  and  C_30
REMARK                            x       y       z     vdW  Elec       q    Type
REMARK                         _______ _______ _______ _____ _____    ______ ____
ROOT
ATOM      1  C   UNL     1       5.614   3.364   1.327  0.00  0.00    -0.044 C 
ATOM      2  C   UNL     1       6.711   2.695   0.522  0.00  0.00    +0.120 C 
ATOM      3  C   UNL     1       7.204   3.618  -0.596  0.00  0.00    +0.137 C 
ATOM      4  N   UNL     1       6.327   3.442  -1.765  0.00  0.00    -0.298 N 
ATOM      5  C   UNL     1       5.067   3.886  -1.725  0.00  0.00    +0.199 C 
ATOM      6  O   UNL     1       4.342   3.732  -2.685  0.00  0.00    -0.278 OA
ATOM      7  C   UNL     1       4.543   4.581  -0.487  0.00  0.00    +0.019 C 
ATOM      8  N   UNL     1       4.362   3.552   0.566  0.00  0.00    +0.390 N 
ATOM      9  H   UNL     1       4.111   2.663   0.118  0.00  0.00    -0.081 HD
ENDROOT
BRANCH   4  10
ATOM     10  C   UNL     1       6.834   2.779  -2.970  0.00  0.00    +0.076 C 
ATOM     11  C   UNL     1       6.745   3.741  -4.156  0.00  0.00    +0.022 C 
ATOM     12  C   UNL     1       7.274   3.050  -5.414  0.00  0.00    +0.002 C 
ATOM     13  C   UNL     1       6.434   1.804  -5.704  0.00  0.00    +0.000 C 
ATOM     14  C   UNL     1       6.523   0.843  -4.517  0.00  0.00    +0.002 C 
ATOM     15  C   UNL     1       5.993   1.534  -3.259  0.00  0.00    +0.022 C 
ENDBRANCH   4  10
BRANCH   8  16
ATOM     16  C   UNL     1       3.278   3.949   1.478  0.00  0.00    -0.039 C 
BRANCH  16  18
ATOM     17  C   UNL     1       1.168   3.571   0.010  0.00  0.00    +0.094 A 
ATOM     18  C   UNL     1       2.096   4.405   0.663  0.00  0.00    -0.019 A 
ATOM     19  C   UNL     1       1.739   5.686   0.427  0.00  0.00    +0.107 A 
ATOM     20  N   UNL     1       0.626   5.674  -0.337  0.00  0.00    -0.284 N 
ATOM     21  H   UNL     1       0.132   6.479  -0.667  0.00  0.00    +0.188 HD
ATOM     22  N   UNL     1       0.283   4.340  -0.588  0.00  0.00    -0.174 NA
BRANCH  17  26
ATOM     23  C   UNL     1       1.208  -0.682  -0.013  0.00  0.00    +0.000 A 
ATOM     24  C   UNL     1       0.002  -0.004   0.002  0.00  0.00    +0.001 A 
ATOM     25  C   UNL     1      -0.017   1.376   0.010  0.00  0.00    +0.010 A 
ATOM     26  C   UNL     1       1.182   2.086   0.002  0.00  0.00    +0.002 A 
ATOM     27  C   UNL     1       2.393   1.399  -0.013  0.00  0.00    +0.010 A 
ATOM     28  C   UNL     1       2.401   0.018  -0.021  0.00  0.00    +0.001 A 
ENDBRANCH  17  26
ENDBRANCH  16  18
ENDBRANCH   8  16
BRANCH   2  29
ATOM     29  O   UNL     1       7.803   2.379   1.387  0.00  0.00    -0.372 OA
BRANCH  29  30
ATOM     30  C   UNL     1       7.716   1.083   1.984  0.00  0.00    +0.195 C 
BRANCH  30  31
ATOM     31  C   UNL     1       8.913   0.858   2.871  0.00  0.00    -0.019 A 
ATOM     32  C   UNL     1      10.070   0.281   2.369  0.00  0.00    +0.025 A 
ATOM     33  C   UNL     1      11.149   0.093   3.212  0.00  0.00    +0.111 A 
ATOM     34  N   UNL     1      11.084   0.447   4.481  0.00  0.00    -0.263 NA
ATOM     35  C   UNL     1       9.998   0.993   4.994  0.00  0.00    +0.111 A 
ATOM     36  C   UNL     1       8.882   1.216   4.210  0.00  0.00    +0.025 A 
ENDBRANCH  30  31
ENDBRANCH  29  30
ENDBRANCH   2  29
TORSDOF 7
