REMARK  Name = ZINC12053845
REMARK  13 active torsions:
REMARK  status: ('A' for Active; 'I' for Inactive)
REMARK    1  A    between atoms: C_1  and  C_2
REMARK    2  A    between atoms: C_2  and  C_4
REMARK    3  A    between atoms: C_2  and  C_10
REMARK    4  A    between atoms: C_4  and  C_5
REMARK    5  A    between atoms: C_5  and  C_6
REMARK    6  A    between atoms: C_7  and  C_8
REMARK    7  A    between atoms: C_7  and  C_9
REMARK    8  A    between atoms: C_10  and  N_67
REMARK    9  A    between atoms: C_14  and  C_24
REMARK   10  A    between atoms: C_15  and  O_22
REMARK   11  A    between atoms: O_22  and  C_23
REMARK   12  A    between atoms: N_26  and  C_27
REMARK   13  A    between atoms: C_27  and  C_28
REMARK                            x       y       z     vdW  Elec       q    Type
REMARK                         _______ _______ _______ _____ _____    ______ ____
ROOT
ATOM      1  C   UNL     1      -3.615  -1.246   0.785  0.00  0.00    -0.073 C 
ATOM      2  C   UNL     1      -4.689  -0.877   1.806  0.00  0.00    +0.036 C 
ATOM      3  C   UNL     1      -4.755  -1.888   2.925  0.00  0.00    +0.036 A 
ATOM      4  C   UNL     1      -5.986  -2.049   3.544  0.00  0.00    +0.098 A 
ATOM      5  C   UNL     1      -6.109  -2.973   4.673  0.00  0.00    +0.139 A 
ATOM      6  C   UNL     1      -4.975  -3.646   5.080  0.00  0.00    +0.116 A 
ATOM      7  C   UNL     1      -3.779  -3.432   4.395  0.00  0.00    +0.255 A 
ATOM      8  O   UNL     1      -2.775  -4.020   4.763  0.00  0.00    -0.268 OA
ATOM      9  N   UNL     1      -3.694  -2.592   3.336  0.00  0.00    -0.313 N 
ATOM     10  C   UNL     1      -2.389  -2.510   2.673  0.00  0.00    +0.106 C 
ATOM     11  C   UNL     1      -1.941  -1.056   2.515  0.00  0.00    -0.057 C 
ATOM     12  N   UNL     1      -2.338  -0.609   1.167  0.00  0.00    +0.381 N 
ATOM     13  H   UNL     1      -1.613  -0.884   0.495  0.00  0.00    -0.082 HD
ENDROOT
BRANCH   4  14
ATOM     14  C   UNL     1      -7.160  -1.296   3.071  0.00  0.00    +0.250 C 
ATOM     15  O   UNL     1      -7.991  -1.842   2.370  0.00  0.00    -0.270 OA
ATOM     16  N   UNL     1      -7.314  -0.002   3.413  0.00  0.00    -0.304 N 
ATOM     17  H   UNL     1      -6.614   0.456   3.906  0.00  0.00    +0.149 HD
BRANCH  16  18
ATOM     18  C   UNL     1      -8.537   0.714   3.042  0.00  0.00    +0.179 C 
BRANCH  18  19
ATOM     19  C   UNL     1      -8.458   2.134   3.540  0.00  0.00    +0.122 A 
ATOM     20  C   UNL     1      -7.954   3.180   2.860  0.00  0.00    +0.046 A 
ATOM     21  C   UNL     1      -8.079   4.312   3.697  0.00  0.00    +0.041 A 
ATOM     22  C   UNL     1      -8.652   3.891   4.839  0.00  0.00    +0.195 A 
ATOM     23  O   UNL     1      -8.885   2.572   4.736  0.00  0.00    -0.466 OA
ENDBRANCH  18  19
ENDBRANCH  16  18
ENDBRANCH   4  14
BRANCH   5  24
ATOM     24  O   UNL     1      -7.295  -3.160   5.297  0.00  0.00    -0.494 OA
ATOM     25  C   UNL     1      -7.316  -4.081   6.389  0.00  0.00    +0.277 C 
ENDBRANCH   5  24
BRANCH  12  26
ATOM     26  C   UNL     1      -2.480   0.864   1.144  0.00  0.00    -0.076 C 
BRANCH  26  28
ATOM     27  C   UNL     1      -0.206   1.134   0.144  0.00  0.00    +0.005 C 
ATOM     28  C   UNL     1      -1.100   1.497   1.332  0.00  0.00    -0.030 C 
BRANCH  28  29
ATOM     29  C   UNL     1      -1.245   3.018   1.415  0.00  0.00    +0.005 C 
BRANCH  29  30
ATOM     30  C   UNL     1       0.117   3.643   1.727  0.00  0.00    +0.027 C 
BRANCH  30  31
ATOM     31  C   UNL     1      -0.026   5.141   1.809  0.00  0.00    -0.028 C 
ATOM     32  C   UNL     1       0.374   5.779   2.880  0.00  0.00    -0.080 C 
ATOM     33  C   UNL     1       1.077   5.032   3.984  0.00  0.00    +0.038 C 
ATOM     34  C   UNL     1       0.132   7.261   3.009  0.00  0.00    +0.038 C 
ENDBRANCH  30  31
ENDBRANCH  29  30
ENDBRANCH  28  29
ENDBRANCH  26  28
ENDBRANCH  12  26
TORSDOF 9
