REMARK  Name = ZINC39022317
REMARK  3 active torsions:
REMARK  status: ('A' for Active; 'I' for Inactive)
REMARK    1  A    between atoms: C_1  and  C_2
REMARK    2  A    between atoms: N_10  and  C_11
REMARK    3  A    between atoms: C_11  and  C_13
REMARK                            x       y       z     vdW  Elec       q    Type
REMARK                         _______ _______ _______ _____ _____    ______ ____
ROOT
ATOM      1  C   UNL     1       0.102  -6.317   3.038  0.00  0.00    +0.280 C 
ATOM      2  O   UNL     1       0.095  -5.451   3.892  0.00  0.00    -0.270 OA
ENDROOT
BRANCH   1  12
ATOM      3  C   UNL     1      -0.018   1.503   0.010  0.00  0.00    +0.044 C 
ATOM      4  C   UNL     1       0.002  -0.004   0.002  0.00  0.00    -0.049 A 
ATOM      5  C   UNL     1       0.006  -0.697  -1.197  0.00  0.00    +0.005 A 
ATOM      6  C   UNL     1       0.024  -2.072  -1.225  0.00  0.00    +0.027 A 
ATOM      7  C   UNL     1       0.040  -2.810  -0.034  0.00  0.00    +0.055 A 
ATOM      8  C   UNL     1       0.036  -2.084   1.166  0.00  0.00    +0.039 A 
ATOM      9  C   UNL     1       0.023  -0.709   1.192  0.00  0.00    +0.020 A 
ATOM     10  S   UNL     1       0.059  -3.352   2.405  0.00  0.00    -0.052 S 
ATOM     11  C   UNL     1       0.071  -4.698   1.399  0.00  0.00    +0.164 A 
ATOM     12  N   UNL     1       0.090  -5.982   1.752  0.00  0.00    -0.153 NA
ATOM     13  N   UNL     1       0.059  -4.181   0.144  0.00  0.00    -0.335 N 
ATOM     14  H   UNL     1       0.063  -4.771  -0.626  0.00  0.00    +0.168 HD
ENDBRANCH   1  12
BRANCH   1  15
ATOM     15  C   UNL     1       0.124  -7.770   3.438  0.00  0.00    +0.268 C 
ATOM     16  C   UNL     1       1.442  -8.408   2.977  0.00  0.00    +0.134 C 
ATOM     17  C   UNL     1       1.423  -9.856   3.435  0.00  0.00    +0.171 C 
ATOM     18  O   UNL     1       1.843 -10.752   2.734  0.00  0.00    -0.292 OA
ATOM     19  C   UNL     1       0.868 -10.115   4.775  0.00  0.00    +0.059 A 
ATOM     20  C   UNL     1       1.030 -11.360   5.386  0.00  0.00    +0.015 A 
ATOM     21  C   UNL     1       0.496 -11.578   6.638  0.00  0.00    +0.001 A 
ATOM     22  C   UNL     1      -0.199 -10.568   7.285  0.00  0.00    +0.004 A 
ATOM     23  C   UNL     1      -0.364  -9.333   6.691  0.00  0.00    +0.046 A 
ATOM     24  C   UNL     1       0.169  -9.090   5.433  0.00  0.00    +0.132 A 
ATOM     25  O   UNL     1       0.017  -7.875   4.857  0.00  0.00    -0.478 OA
ENDBRANCH   1  15
TORSDOF 2
