REMARK  Name = ZINC63817315
REMARK  10 active torsions:
REMARK  status: ('A' for Active; 'I' for Inactive)
REMARK    1  A    between atoms: C_7  and  C_10
REMARK    2  A    between atoms: C_10  and  C_11
REMARK    3  A    between atoms: C_11  and  N_12
REMARK    4  A    between atoms: C_13  and  C_15
REMARK    5  A    between atoms: C_15  and  C_16
REMARK    6  A    between atoms: C_16  and  N_17
REMARK    7  A    between atoms: N_17  and  S_18
REMARK    8  A    between atoms: S_18  and  C_21
REMARK    9  A    between atoms: C_24  and  O_27
REMARK   10  A    between atoms: O_27  and  C_28
REMARK                            x       y       z     vdW  Elec       q    Type
REMARK                         _______ _______ _______ _____ _____    ______ ____
ROOT
ATOM      1  C   UNL     1      -1.752  -6.557  -2.622  0.00  0.00    +0.112 C 
ENDROOT
BRANCH   1   3
ATOM      2  N   UNL     1      -0.458  -4.798  -1.460  0.00  0.00    -0.315 N 
ATOM      3  C   UNL     1      -0.811  -5.380  -2.623  0.00  0.00    +0.214 C 
ATOM      4  O   UNL     1      -0.371  -4.957  -3.671  0.00  0.00    -0.276 OA
ATOM      5  H   UNL     1      -0.810  -5.136  -0.622  0.00  0.00    +0.149 HD
BRANCH   2   6
ATOM      6  C   UNL     1       0.457  -3.653  -1.462  0.00  0.00    +0.108 C 
BRANCH   6   7
ATOM      7  C   UNL     1       0.691  -3.186  -0.024  0.00  0.00    +0.052 C 
BRANCH   7  14
ATOM      8  C   UNL     1      -0.016   1.348   0.009  0.00  0.00    +0.001 A 
ATOM      9  C   UNL     1       1.166   2.101   0.002  0.00  0.00    +0.002 A 
ATOM     10  C   UNL     1       2.391   1.535  -0.013  0.00  0.00    +0.026 A 
ATOM     11  C   UNL     1       2.529   0.120  -0.022  0.00  0.00    +0.043 A 
ATOM     12  N   UNL     1       3.587  -0.654  -0.037  0.00  0.00    -0.380 N 
ATOM     13  C   UNL     1       3.143  -2.053  -0.041  0.00  0.00    +0.144 C 
ATOM     14  C   UNL     1       1.631  -2.008  -0.025  0.00  0.00    -0.040 C 
ATOM     15  C   UNL     1       1.295  -0.698  -0.014  0.00  0.00    -0.001 A 
ATOM     16  C   UNL     1       0.002  -0.004   0.002  0.00  0.00    +0.010 A 
ATOM     17  H   UNL     1       4.509  -0.353  -0.045  0.00  0.00    +0.160 HD
ENDBRANCH   7  14
ENDBRANCH   6   7
ENDBRANCH   2   6
ENDBRANCH   1   3
BRANCH   1  18
ATOM     18  C   UNL     1      -1.986  -7.025  -4.059  0.00  0.00    +0.115 C 
BRANCH  18  19
ATOM     19  N   UNL     1      -2.901  -8.169  -4.058  0.00  0.00    -0.189 NA
ATOM     20  H   UNL     1      -3.082  -8.645  -3.232  0.00  0.00    +0.148 HD
BRANCH  19  21
ATOM     21  S   UNL     1      -3.626  -8.652  -5.466  0.00  0.00    +0.058 S 
ATOM     22  O   UNL     1      -4.420  -9.786  -5.147  0.00  0.00    -0.153 OA
ATOM     23  O   UNL     1      -4.171  -7.483  -6.063  0.00  0.00    -0.153 OA
BRANCH  21  24
ATOM     24  C   UNL     1      -2.350  -9.218  -6.542  0.00  0.00    +0.105 A 
ATOM     25  C   UNL     1      -1.726  -8.331  -7.400  0.00  0.00    +0.032 A 
ATOM     26  C   UNL     1      -0.726  -8.773  -8.244  0.00  0.00    +0.048 A 
ATOM     27  C   UNL     1      -0.347 -10.107  -8.230  0.00  0.00    +0.130 A 
ATOM     28  C   UNL     1      -0.974 -10.995  -7.368  0.00  0.00    +0.048 A 
ATOM     29  C   UNL     1      -1.970 -10.547  -6.522  0.00  0.00    +0.032 A 
BRANCH  27  30
ATOM     30  O   UNL     1       0.636 -10.544  -9.060  0.00  0.00    -0.406 OA
BRANCH  30  31
ATOM     31  C   UNL     1       0.975 -11.931  -8.992  0.00  0.00    +0.575 C 
ATOM     32  F   UNL     1      -0.150 -12.701  -9.304  0.00  0.00    -0.133 F 
ATOM     33  F   UNL     1       1.997 -12.207  -9.906  0.00  0.00    -0.133 F 
ATOM     34  F   UNL     1       1.409 -12.241  -7.699  0.00  0.00    -0.133 F 
ENDBRANCH  30  31
ENDBRANCH  27  30
ENDBRANCH  21  24
ENDBRANCH  19  21
ENDBRANCH  18  19
ENDBRANCH   1  18
TORSDOF 10
