REMARK  Name = ZINC39664061
REMARK  11 active torsions:
REMARK  status: ('A' for Active; 'I' for Inactive)
REMARK    1  A    between atoms: C_1  and  C_2
REMARK    2  A    between atoms: C_2  and  C_3
REMARK    3  A    between atoms: C_3  and  C_5
REMARK    4  A    between atoms: C_3  and  C_6
REMARK    5  A    between atoms: C_10  and  C_19
REMARK    6  A    between atoms: N_21  and  C_22
REMARK    7  A    between atoms: C_22  and  C_23
REMARK    8  A    between atoms: C_23  and  C_25
REMARK    9  A    between atoms: C_23  and  N_33
REMARK   10  A    between atoms: C_28  and  O_31
REMARK   11  A    between atoms: O_31  and  C_32
REMARK                            x       y       z     vdW  Elec       q    Type
REMARK                         _______ _______ _______ _____ _____    ______ ____
ROOT
ATOM      1  C   UNL     1       0.066  -2.905   5.346  0.00  0.00    +0.218 C 
ATOM      2  O   UNL     1      -0.773  -2.337   4.680  0.00  0.00    -0.275 OA
ATOM      3  N   UNL     1      -0.239  -3.342   6.584  0.00  0.00    -0.316 N 
ATOM      4  H   UNL     1       0.432  -3.797   7.117  0.00  0.00    +0.149 HD
ENDROOT
BRANCH   1   9
ATOM      5  C   UNL     1       0.845  -2.092   1.371  0.00  0.00    +0.218 C 
ATOM      6  O   UNL     1       0.545  -2.762   0.406  0.00  0.00    -0.275 OA
ATOM      7  N   UNL     1       1.433  -2.671   2.437  0.00  0.00    -0.300 N 
ATOM      8  C   UNL     1       1.781  -2.045   3.734  0.00  0.00    +0.121 C 
ATOM      9  C   UNL     1       1.449  -3.124   4.790  0.00  0.00    +0.100 C 
ATOM     10  C   UNL     1       1.517  -4.456   4.024  0.00  0.00    -0.004 C 
ATOM     11  C   UNL     1       1.873  -4.080   2.578  0.00  0.00    +0.115 C 
ATOM     12  C   UNL     1       2.597  -5.353   4.619  0.00  0.00    -0.010 C 
ATOM     13  C   UNL     1       2.606  -6.694   3.879  0.00  0.00    -0.082 C 
ATOM     14  N   UNL     1       1.290  -7.332   4.002  0.00  0.00    +0.379 N 
ATOM     15  C   UNL     1       0.270  -6.505   3.345  0.00  0.00    -0.082 C 
ATOM     16  C   UNL     1       0.162  -5.157   4.063  0.00  0.00    -0.010 C 
ATOM     17  H   UNL     1       1.316  -8.241   3.566  0.00  0.00    -0.086 HD
ATOM     18  H   UNL     1       1.058  -7.436   4.978  0.00  0.00    -0.086 HD
BRANCH   5  19
ATOM     19  C   UNL     1       0.560  -0.613   1.380  0.00  0.00    +0.072 C 
ATOM     20  C   UNL     1      -0.735  -0.339   0.613  0.00  0.00    +0.017 C 
BRANCH  19  22
ATOM     21  C   UNL     1       1.486   1.642   0.831  0.00  0.00    +0.004 C 
ATOM     22  C   UNL     1       1.716   0.134   0.712  0.00  0.00    +0.009 C 
ENDBRANCH  19  22
ENDBRANCH   5  19
ENDBRANCH   1   9
BRANCH   3  23
ATOM     23  C   UNL     1      -1.584  -3.130   7.126  0.00  0.00    +0.093 C 
BRANCH  23  24
ATOM     24  C   UNL     1      -1.627  -3.599   8.581  0.00  0.00    -0.020 C 
BRANCH  24  25
ATOM     25  C   UNL     1      -0.729  -2.724   9.418  0.00  0.00    -0.059 A 
ATOM     26  C   UNL     1      -1.173  -1.486   9.844  0.00  0.00    +0.005 A 
ATOM     27  C   UNL     1      -0.351  -0.683  10.611  0.00  0.00    +0.046 A 
ATOM     28  C   UNL     1       0.921  -1.120  10.953  0.00  0.00    +0.120 A 
ATOM     29  C   UNL     1       1.364  -2.362  10.524  0.00  0.00    +0.046 A 
ATOM     30  C   UNL     1       0.536  -3.164   9.762  0.00  0.00    +0.005 A 
BRANCH  28  31
ATOM     31  O   UNL     1       1.732  -0.331  11.706  0.00  0.00    -0.495 OA
ATOM     32  C   UNL     1       3.027  -0.845  12.020  0.00  0.00    +0.277 C 
ENDBRANCH  28  31
ENDBRANCH  24  25
BRANCH  24  33
ATOM     33  N   UNL     1      -3.005  -3.508   9.084  0.00  0.00    +0.385 N 
ATOM     34  C   UNL     1      -3.877  -4.469   8.363  0.00  0.00    -0.078 C 
ATOM     35  C   UNL     1      -5.069  -4.663   9.334  0.00  0.00    -0.020 C 
ATOM     36  C   UNL     1      -4.390  -4.643  10.723  0.00  0.00    -0.020 C 
ATOM     37  C   UNL     1      -3.056  -3.906  10.507  0.00  0.00    -0.078 C 
ATOM     38  H   UNL     1      -3.355  -2.568   8.973  0.00  0.00    -0.081 HD
ENDBRANCH  24  33
ENDBRANCH  23  24
ENDBRANCH   3  23
TORSDOF 8
