REMARK  Name = ZINC04224455
REMARK  5 active torsions:
REMARK  status: ('A' for Active; 'I' for Inactive)
REMARK    1  A    between atoms: C_1  and  C_2
REMARK    2  A    between atoms: C_5  and  N_9
REMARK    3  A    between atoms: C_7  and  C_8
REMARK    4  A    between atoms: C_10  and  N_17
REMARK    5  A    between atoms: C_18  and  C_20
REMARK                            x       y       z     vdW  Elec       q    Type
REMARK                         _______ _______ _______ _____ _____    ______ ____
ROOT
ATOM      1  N   UNL     1      -0.112   3.823  -0.159  0.00  0.00    -0.218 N 
ATOM      2  C   UNL     1       1.217   3.568  -0.251  0.00  0.00    +0.133 A 
ATOM      3  C   UNL     1       1.395   2.217  -0.060  0.00  0.00    +0.026 A 
ATOM      4  C   UNL     1       0.149   1.651   0.150  0.00  0.00    +0.079 A 
ATOM      5  N   UNL     1      -0.761   2.612   0.086  0.00  0.00    -0.168 NA
ATOM      6  C   UNL     1       0.111   0.142   0.386  0.00  0.00    +0.127 C 
ATOM      7  S   UNL     1       1.875  -0.226   0.758  0.00  0.00    -0.150 S 
ATOM      8  C   UNL     1       2.594   1.271  -0.033  0.00  0.00    +0.110 C 
ENDROOT
BRANCH   1  13
ATOM      9  C   UNL     1      -2.589   8.901  -0.697  0.00  0.00    +0.044 C 
ATOM     10  C   UNL     1      -1.932   7.553  -0.554  0.00  0.00    -0.047 A 
ATOM     11  C   UNL     1      -0.752   7.432   0.158  0.00  0.00    +0.006 A 
ATOM     12  C   UNL     1      -0.147   6.198   0.291  0.00  0.00    +0.028 A 
ATOM     13  C   UNL     1      -0.724   5.077  -0.292  0.00  0.00    +0.068 A 
ATOM     14  C   UNL     1      -1.905   5.202  -1.010  0.00  0.00    +0.031 A 
ATOM     15  C   UNL     1      -2.509   6.438  -1.134  0.00  0.00    -0.046 A 
ATOM     16  C   UNL     1      -3.795   6.574  -1.909  0.00  0.00    +0.044 C 
ENDBRANCH   1  13
BRANCH   2  17
ATOM     17  N   UNL     1       2.220   4.504  -0.495  0.00  0.00    -0.263 N 
ATOM     18  C   UNL     1       3.366   4.124  -1.093  0.00  0.00    +0.285 C 
ATOM     19  O   UNL     1       3.490   2.984  -1.502  0.00  0.00    -0.266 OA
ATOM     20  H   UNL     1       2.093   5.430  -0.233  0.00  0.00    +0.157 HD
BRANCH  18  21
ATOM     21  C   UNL     1       4.463   5.083  -1.252  0.00  0.00    +0.189 A 
ATOM     22  C   UNL     1       5.671   4.831  -1.837  0.00  0.00    +0.054 A 
ATOM     23  C   UNL     1       6.408   6.024  -1.772  0.00  0.00    +0.042 A 
ATOM     24  C   UNL     1       5.627   6.941  -1.159  0.00  0.00    +0.196 A 
ATOM     25  O   UNL     1       4.454   6.372  -0.852  0.00  0.00    -0.458 OA
ENDBRANCH  18  21
ENDBRANCH   2  17
TORSDOF 3
