REMARK  Name = ZINC20109298
REMARK  10 active torsions:
REMARK  status: ('A' for Active; 'I' for Inactive)
REMARK    1  A    between atoms: C_1  and  C_2
REMARK    2  A    between atoms: C_2  and  C_3
REMARK    3  A    between atoms: C_10  and  C_15
REMARK    4  A    between atoms: C_15  and  C_17
REMARK    5  A    between atoms: C_15  and  N_30
REMARK    6  A    between atoms: N_21  and  C_22
REMARK    7  A    between atoms: C_22  and  C_23
REMARK    8  A    between atoms: C_23  and  C_24
REMARK    9  A    between atoms: N_33  and  C_36
REMARK   10  A    between atoms: C_36  and  C_37
REMARK                            x       y       z     vdW  Elec       q    Type
REMARK                         _______ _______ _______ _____ _____    ______ ____
ROOT
ATOM      1  C   UNL     1      -1.332   7.432   0.049  0.00  0.00    +0.162 C 
ENDROOT
BRANCH   1   9
ATOM      2  C   UNL     1       1.185   1.779   0.000  0.00  0.00    -0.047 A 
ATOM      3  C   UNL     1      -0.013   1.076   0.008  0.00  0.00    +0.005 A 
ATOM      4  C   UNL     1      -1.219   1.741   0.017  0.00  0.00    +0.026 A 
ATOM      5  C   UNL     1      -1.240   3.132   0.030  0.00  0.00    +0.049 A 
ATOM      6  C   UNL     1      -0.025   3.842   0.022  0.00  0.00    -0.001 A 
ATOM      7  C   UNL     1       1.188   3.145   0.007  0.00  0.00    +0.013 A 
ATOM      8  C   UNL     1      -0.057   5.306   0.029  0.00  0.00    +0.021 A 
ATOM      9  C   UNL     1      -1.263   5.926   0.042  0.00  0.00    +0.042 A 
ATOM     10  C   UNL     1      -2.453   5.168   0.050  0.00  0.00    +0.254 A 
ATOM     11  O   UNL     1      -3.526   5.746   0.062  0.00  0.00    -0.268 OA
ATOM     12  N   UNL     1      -2.433   3.824   0.043  0.00  0.00    -0.322 N 
ATOM     13  H   UNL     1      -3.386   3.275   0.050  0.00  0.00    +0.169 HD
BRANCH   2  15
ATOM     14  C   UNL     1       2.920   0.782  -1.463  0.00  0.00    +0.009 C 
ATOM     15  C   UNL     1       2.491   1.029  -0.015  0.00  0.00    +0.032 C 
ENDBRANCH   2  15
ENDBRANCH   1   9
BRANCH   1  16
ATOM     16  N   UNL     1      -2.158   7.890  -1.076  0.00  0.00    -0.286 NA
ATOM     17  C   UNL     1      -1.642   7.375  -2.352  0.00  0.00    +0.101 C 
ATOM     18  C   UNL     1      -2.574   7.807  -3.487  0.00  0.00    +0.100 C 
ATOM     19  N   UNL     1      -2.664   9.273  -3.512  0.00  0.00    -0.296 NA
ATOM     20  C   UNL     1      -3.179   9.788  -2.236  0.00  0.00    +0.100 C 
ATOM     21  C   UNL     1      -2.248   9.356  -1.101  0.00  0.00    +0.101 C 
BRANCH  19  22
ATOM     22  C   UNL     1      -3.490   9.731  -4.637  0.00  0.00    +0.119 C 
BRANCH  22  23
ATOM     23  C   UNL     1      -2.802   9.395  -5.935  0.00  0.00    -0.033 A 
ATOM     24  C   UNL     1      -1.934  10.303  -6.512  0.00  0.00    +0.005 A 
ATOM     25  C   UNL     1      -1.299   9.993  -7.700  0.00  0.00    +0.000 A 
ATOM     26  C   UNL     1      -1.541   8.780  -8.317  0.00  0.00    +0.000 A 
ATOM     27  C   UNL     1      -2.414   7.874  -7.743  0.00  0.00    +0.000 A 
ATOM     28  C   UNL     1      -3.044   8.182  -6.552  0.00  0.00    +0.005 A 
ENDBRANCH  22  23
ENDBRANCH  19  22
ENDBRANCH   1  16
BRANCH   1  29
ATOM     29  C   UNL     1      -1.942   7.901   1.345  0.00  0.00    +0.173 A 
ATOM     30  N   UNL     1      -3.210   7.851   1.675  0.00  0.00    -0.111 NA
ATOM     31  N   UNL     1      -3.331   8.343   2.860  0.00  0.00    -0.023 NA
ATOM     32  N   UNL     1      -2.176   8.713   3.290  0.00  0.00    -0.044 NA
ATOM     33  N   UNL     1      -1.293   8.457   2.384  0.00  0.00    -0.227 N 
BRANCH  33  34
ATOM     34  C   UNL     1       0.145   8.722   2.471  0.00  0.00    +0.152 C 
BRANCH  34  35
ATOM     35  C   UNL     1       0.440  10.122   1.929  0.00  0.00    +0.058 C 
BRANCH  35  36
ATOM     36  C   UNL     1       1.919  10.394   2.019  0.00  0.00    -0.046 A 
ATOM     37  C   UNL     1       2.447  10.980   3.154  0.00  0.00    +0.004 A 
ATOM     38  C   UNL     1       3.805  11.225   3.238  0.00  0.00    +0.000 A 
ATOM     39  C   UNL     1       4.633  10.894   2.182  0.00  0.00    +0.000 A 
ATOM     40  C   UNL     1       4.105  10.314   1.045  0.00  0.00    +0.000 A 
ATOM     41  C   UNL     1       2.748  10.063   0.963  0.00  0.00    +0.004 A 
ENDBRANCH  35  36
ENDBRANCH  34  35
ENDBRANCH  33  34
ENDBRANCH   1  29
TORSDOF 9
