REMARK  Name = ZINC08765130
REMARK  5 active torsions:
REMARK  status: ('A' for Active; 'I' for Inactive)
REMARK    1  A    between atoms: C_1  and  C_2
REMARK    2  A    between atoms: C_6  and  O_37
REMARK    3  A    between atoms: C_7  and  O_36
REMARK    4  A    between atoms: C_12  and  C_13
REMARK    5  A    between atoms: C_13  and  C_14
REMARK                            x       y       z     vdW  Elec       q    Type
REMARK                         _______ _______ _______ _____ _____    ______ ____
ROOT
ATOM      1  C   UNL     1      -1.762   2.330   1.444  0.00  0.00    +0.221 C 
ATOM      2  O   UNL     1      -1.120   1.852   2.355  0.00  0.00    -0.275 OA
ATOM      3  N   UNL     1      -2.916   2.977   1.699  0.00  0.00    -0.294 N 
ATOM      4  C   UNL     1      -3.724   3.559   0.614  0.00  0.00    +0.109 C 
ATOM      5  C   UNL     1      -5.205   3.497   0.990  0.00  0.00    +0.023 C 
ATOM      6  C   UNL     1      -5.487   4.394   2.198  0.00  0.00    +0.034 C 
ATOM      7  C   UNL     1      -4.269   4.375   3.104  0.00  0.00    -0.053 C 
ATOM      8  C   UNL     1      -4.007   5.408   3.841  0.00  0.00    -0.024 C 
ATOM      9  C   UNL     1      -2.803   5.492   4.739  0.00  0.00    -0.002 C 
ATOM     10  C   UNL     1      -1.704   4.584   4.174  0.00  0.00    +0.010 C 
ATOM     11  C   UNL     1      -2.285   3.170   4.075  0.00  0.00    -0.002 C 
ATOM     12  C   UNL     1      -3.422   3.125   3.071  0.00  0.00    +0.103 C 
ATOM     13  C   UNL     1      -2.742   2.703   5.451  0.00  0.00    -0.073 C 
ATOM     14  C   UNL     1      -3.199   4.987   6.135  0.00  0.00    -0.062 C 
ATOM     15  C   UNL     1      -4.272   5.929   6.690  0.00  0.00    -0.015 C 
ATOM     16  C   UNL     1      -4.757   5.423   8.049  0.00  0.00    -0.003 C 
ATOM     17  C   UNL     1      -5.302   4.001   7.878  0.00  0.00    -0.019 C 
ATOM     18  C   UNL     1      -4.191   3.111   7.320  0.00  0.00    -0.078 C 
ATOM     19  N   UNL     1      -3.757   3.616   6.005  0.00  0.00    +0.382 N 
ATOM     20  H   UNL     1      -4.565   3.646   5.372  0.00  0.00    -0.081 HD
ENDROOT
BRANCH   1  21
ATOM     21  C   UNL     1      -1.269   2.200   0.026  0.00  0.00    +0.138 C 
BRANCH  21  33
ATOM     22  C   UNL     1      -1.265  -0.678  -0.219  0.00  0.00    +0.045 C 
ATOM     23  C   UNL     1       0.029   0.086  -0.104  0.00  0.00    -0.029 A 
ATOM     24  C   UNL     1       1.317  -0.611  -0.117  0.00  0.00    +0.025 A 
ATOM     25  C   UNL     1       1.382  -2.004  -0.236  0.00  0.00    +0.015 A 
ATOM     26  C   UNL     1       2.595  -2.630  -0.246  0.00  0.00    +0.050 A 
ATOM     27  C   UNL     1       3.772  -1.893  -0.138  0.00  0.00    +0.162 A 
ATOM     28  C   UNL     1       3.728  -0.510  -0.018  0.00  0.00    +0.202 A 
ATOM     29  C   UNL     1       2.500   0.142  -0.007  0.00  0.00    +0.184 A 
ATOM     30  O   UNL     1       2.434   1.487   0.108  0.00  0.00    -0.418 OA
ATOM     31  C   UNL     1       1.257   2.131   0.120  0.00  0.00    +0.341 A 
ATOM     32  O   UNL     1       1.245   3.345   0.226  0.00  0.00    -0.245 OA
ATOM     33  C   UNL     1       0.033   1.439   0.014  0.00  0.00    +0.049 A 
BRANCH  28  34
ATOM     34  O   UNL     1       4.882   0.203   0.088  0.00  0.00    -0.501 OA
ATOM     35  H   UNL     1       5.249   0.487  -0.760  0.00  0.00    +0.292 HD
ENDBRANCH  28  34
BRANCH  27  36
ATOM     36  O   UNL     1       4.971  -2.531  -0.149  0.00  0.00    -0.503 OA
ATOM     37  H   UNL     1       5.350  -2.639  -1.032  0.00  0.00    +0.292 HD
ENDBRANCH  27  36
ENDBRANCH  21  33
ENDBRANCH   1  21
TORSDOF 4
