REMARK  Name = ZINC03404539
REMARK  7 active torsions:
REMARK  status: ('A' for Active; 'I' for Inactive)
REMARK    1  A    between atoms: C_1  and  C_2
REMARK    2  A    between atoms: C_5  and  C_7
REMARK    3  A    between atoms: N_9  and  N_10
REMARK    4  A    between atoms: C_11  and  C_13
REMARK    5  A    between atoms: C_15  and  C_29
REMARK    6  A    between atoms: C_19  and  C_28
REMARK    7  A    between atoms: N_21  and  C_22
REMARK                            x       y       z     vdW  Elec       q    Type
REMARK                         _______ _______ _______ _____ _____    ______ ____
ROOT
ATOM      1  C   UNL     1       2.781   6.491   0.427  0.00  0.00    +0.053 A 
ATOM      2  C   UNL     1       2.281   5.197   0.512  0.00  0.00    +0.042 A 
ATOM      3  C   UNL     1       0.898   4.991   0.439  0.00  0.00    +0.081 A 
ATOM      4  N   UNL     1       0.057   6.004   0.285  0.00  0.00    -0.227 NA
ATOM      5  C   UNL     1       0.479   7.257   0.204  0.00  0.00    +0.165 A 
ATOM      6  C   UNL     1       1.856   7.550   0.269  0.00  0.00    +0.054 A 
ATOM      7  C   UNL     1       1.989   8.950   0.150  0.00  0.00    +0.070 A 
ATOM      8  N   UNL     1       0.801   9.472   0.024  0.00  0.00    -0.169 NA
ATOM      9  N   UNL     1      -0.166   8.460   0.052  0.00  0.00    -0.214 N 
ATOM     10  C   UNL     1       3.287   9.714   0.165  0.00  0.00    +0.068 C 
ENDROOT
BRANCH   9  11
ATOM     11  C   UNL     1      -1.550   8.643  -0.057  0.00  0.00    +0.068 A 
ATOM     12  C   UNL     1      -2.326   7.702  -0.722  0.00  0.00    +0.028 A 
ATOM     13  C   UNL     1      -3.691   7.883  -0.823  0.00  0.00    +0.002 A 
ATOM     14  C   UNL     1      -4.285   9.005  -0.274  0.00  0.00    +0.000 A 
ATOM     15  C   UNL     1      -3.514   9.946   0.385  0.00  0.00    +0.002 A 
ATOM     16  C   UNL     1      -2.149   9.768   0.494  0.00  0.00    +0.028 A 
ENDBRANCH   9  11
BRANCH   3  17
ATOM     17  C   UNL     1       0.366   3.618   0.529  0.00  0.00    +0.038 A 
ATOM     18  C   UNL     1      -0.936   3.191   0.482  0.00  0.00    +0.017 A 
ATOM     19  C   UNL     1      -1.194   1.843   0.581  0.00  0.00    +0.008 A 
ATOM     20  C   UNL     1      -0.156   0.980   0.734  0.00  0.00    +0.046 A 
ATOM     21  S   UNL     1       1.250   2.080   0.727  0.00  0.00    -0.095 S 
ENDBRANCH   3  17
BRANCH   1  23
ATOM     22  N   UNL     1       5.086   5.750   0.795  0.00  0.00    -0.230 N 
ATOM     23  C   UNL     1       4.234   6.753   0.499  0.00  0.00    +0.261 C 
ATOM     24  O   UNL     1       4.662   7.872   0.293  0.00  0.00    -0.269 OA
ATOM     25  H   UNL     1       4.745   4.857   0.960  0.00  0.00    +0.173 HD
BRANCH  22  28
ATOM     26  C   UNL     1       7.314   4.996   1.160  0.00  0.00    +0.295 C 
ATOM     27  O   UNL     1       6.886   3.876   1.367  0.00  0.00    -0.265 OA
ATOM     28  N   UNL     1       6.463   5.998   0.864  0.00  0.00    -0.228 N 
ATOM     29  H   UNL     1       6.804   6.891   0.699  0.00  0.00    +0.173 HD
BRANCH  26  34
ATOM     30  C   UNL     1      11.703   7.402   1.026  0.00  0.00    +0.086 C 
ATOM     31  C   UNL     1      10.682   6.304   1.175  0.00  0.00    +0.103 A 
ATOM     32  C   UNL     1      10.950   5.016   1.480  0.00  0.00    +0.045 A 
ATOM     33  C   UNL     1       9.723   4.337   1.525  0.00  0.00    +0.055 A 
ATOM     34  C   UNL     1       8.756   5.256   1.232  0.00  0.00    +0.191 A 
ATOM     35  O   UNL     1       9.358   6.445   1.026  0.00  0.00    -0.455 OA
ENDBRANCH  26  34
ENDBRANCH  22  28
ENDBRANCH   1  23
TORSDOF 5
