REMARK  Name = ZINC00229847
REMARK  10 active torsions:
REMARK  status: ('A' for Active; 'I' for Inactive)
REMARK    1  A    between atoms: C_1  and  C_2
REMARK    2  A    between atoms: C_2  and  O_3
REMARK    3  A    between atoms: O_3  and  C_4
REMARK    4  A    between atoms: C_8  and  C_11
REMARK    5  A    between atoms: C_9  and  O_10
REMARK    6  A    between atoms: N_12  and  N_13
REMARK    7  A    between atoms: C_14  and  C_16
REMARK    8  A    between atoms: C_16  and  C_17
REMARK    9  A    between atoms: C_19  and  C_24
REMARK   10  A    between atoms: C_22  and  O_23
REMARK                            x       y       z     vdW  Elec       q    Type
REMARK                         _______ _______ _______ _____ _____    ______ ____
ROOT
ATOM      1  N   UNL     1       3.426  -4.073   5.735  0.00  0.00    -0.207 N 
ATOM      2  C   UNL     1       3.957  -3.259   6.668  0.00  0.00    +0.237 C 
ATOM      3  O   UNL     1       3.866  -2.055   6.546  0.00  0.00    -0.274 OA
ATOM      4  H   UNL     1       3.499  -5.035   5.833  0.00  0.00    +0.177 HD
ENDROOT
BRANCH   1   6
ATOM      5  C   UNL     1       2.257  -4.314   3.725  0.00  0.00    +0.142 C 
ATOM      6  N   UNL     1       2.768  -3.530   4.624  0.00  0.00    -0.188 NA
BRANCH   5  11
ATOM      7  C   UNL     1       0.802  -1.825   1.306  0.00  0.00    +0.162 A 
ATOM      8  C   UNL     1       0.260  -2.672   0.351  0.00  0.00    +0.049 A 
ATOM      9  C   UNL     1       0.366  -4.045   0.493  0.00  0.00    +0.004 A 
ATOM     10  C   UNL     1       1.013  -4.583   1.586  0.00  0.00    +0.013 A 
ATOM     11  C   UNL     1       1.565  -3.742   2.556  0.00  0.00    +0.040 A 
ATOM     12  C   UNL     1       1.462  -2.353   2.409  0.00  0.00    +0.167 A 
BRANCH  12  13
ATOM     13  O   UNL     1       2.000  -1.526   3.343  0.00  0.00    -0.503 OA
ATOM     14  H   UNL     1       1.394  -1.300   4.063  0.00  0.00    +0.292 HD
ENDBRANCH  12  13
BRANCH   7  15
ATOM     15  O   UNL     1       0.693  -0.477   1.160  0.00  0.00    -0.489 OA
BRANCH  15  17
ATOM     16  C   UNL     1      -0.019   1.526   0.010  0.00  0.00    +0.048 C 
ATOM     17  C   UNL     1       0.002  -0.004   0.002  0.00  0.00    +0.226 C 
ENDBRANCH  15  17
ENDBRANCH   7  15
ENDBRANCH   5  11
ENDBRANCH   1   6
BRANCH   2  18
ATOM     18  C   UNL     1       4.664  -3.843   7.864  0.00  0.00    +0.139 C 
BRANCH  18  19
ATOM     19  C   UNL     1       5.162  -2.729   8.748  0.00  0.00    +0.044 A 
ATOM     20  C   UNL     1       6.367  -2.120   8.660  0.00  0.00    +0.040 A 
ATOM     21  N   UNL     1       6.426  -1.180   9.626  0.00  0.00    -0.278 N 
ATOM     22  N   UNL     1       5.217  -1.208  10.333  0.00  0.00    -0.136 NA
ATOM     23  C   UNL     1       4.455  -2.134   9.803  0.00  0.00    +0.235 A 
ATOM     24  C   UNL     1       7.451  -2.438   7.663  0.00  0.00    +0.065 C 
ATOM     25  H   UNL     1       7.174  -0.588   9.800  0.00  0.00    +0.189 HD
BRANCH  23  27
ATOM     26  H   UNL     1       3.172  -3.152  10.886  0.00  0.00    +0.294 HD
ATOM     27  O   UNL     1       3.199  -2.463  10.209  0.00  0.00    -0.491 OA
ENDBRANCH  23  27
ENDBRANCH  18  19
ENDBRANCH   2  18
TORSDOF 8
