REMARK  Name = ZINC47146228
REMARK  10 active torsions:
REMARK  status: ('A' for Active; 'I' for Inactive)
REMARK    1  A    between atoms: C_1  and  C_2
REMARK    2  A    between atoms: C_2  and  C_3
REMARK    3  A    between atoms: C_2  and  C_4
REMARK    4  A    between atoms: C_4  and  C_5
REMARK    5  A    between atoms: C_8  and  S_11
REMARK    6  A    between atoms: S_11  and  N_14
REMARK    7  A    between atoms: N_14  and  C_15
REMARK    8  A    between atoms: C_15  and  C_16
REMARK    9  A    between atoms: N_24  and  C_25
REMARK   10  A    between atoms: C_25  and  C_26
REMARK                            x       y       z     vdW  Elec       q    Type
REMARK                         _______ _______ _______ _____ _____    ______ ____
ROOT
ATOM      1  C   UNL     1       7.187   2.152   2.735  0.00  0.00    +0.128 A 
ATOM      2  N   UNL     1       8.426   2.092   3.126  0.00  0.00    -0.229 NA
ATOM      3  C   UNL     1       8.629   2.983   4.128  0.00  0.00    +0.108 A 
ATOM      4  C   UNL     1       9.739   3.335   4.902  0.00  0.00    +0.033 A 
ATOM      5  C   UNL     1       9.580   4.314   5.864  0.00  0.00    +0.022 A 
ATOM      6  C   UNL     1       8.340   4.912   6.032  0.00  0.00    +0.113 A 
ATOM      7  N   UNL     1       7.307   4.565   5.293  0.00  0.00    -0.236 NA
ATOM      8  C   UNL     1       7.404   3.634   4.358  0.00  0.00    +0.161 A 
ATOM      9  N   UNL     1       6.514   3.090   3.457  0.00  0.00    -0.307 N 
ENDROOT
BRANCH   1  10
ATOM     10  C   UNL     1       6.585   1.312   1.638  0.00  0.00    +0.180 C 
BRANCH  10  11
ATOM     11  N   UNL     1       6.736   2.003   0.355  0.00  0.00    -0.183 NA
ATOM     12  H   UNL     1       6.968   2.945   0.336  0.00  0.00    +0.148 HD
BRANCH  11  13
ATOM     13  S   UNL     1       6.512   1.176  -1.062  0.00  0.00    +0.059 S 
ATOM     14  O   UNL     1       7.276  -0.018  -0.961  0.00  0.00    -0.153 OA
ATOM     15  O   UNL     1       6.699   2.114  -2.113  0.00  0.00    -0.153 OA
BRANCH  13  19
ATOM     16  C   UNL     1       2.165  -0.079  -1.208  0.00  0.00    -0.047 A 
ATOM     17  C   UNL     1       2.551   1.137  -1.739  0.00  0.00    +0.005 A 
ATOM     18  C   UNL     1       3.879   1.521  -1.694  0.00  0.00    +0.029 A 
ATOM     19  C   UNL     1       4.820   0.688  -1.118  0.00  0.00    +0.105 A 
ATOM     20  C   UNL     1       4.434  -0.528  -0.587  0.00  0.00    +0.029 A 
ATOM     21  C   UNL     1       3.106  -0.910  -0.627  0.00  0.00    +0.005 A 
BRANCH  16  22
ATOM     22  C   UNL     1       0.718  -0.497  -1.257  0.00  0.00    +0.038 C 
BRANCH  22  24
ATOM     23  C   UNL     1      -0.019   1.526   0.010  0.00  0.00    +0.007 C 
ATOM     24  C   UNL     1       0.002  -0.004   0.002  0.00  0.00    -0.013 C 
ATOM     25  C   UNL     1      -1.433  -0.534   0.013  0.00  0.00    +0.007 C 
ENDBRANCH  22  24
ENDBRANCH  16  22
ENDBRANCH  13  19
ENDBRANCH  11  13
ENDBRANCH  10  11
ENDBRANCH   1  10
BRANCH   9  26
ATOM     26  C   UNL     1       5.103   3.451   3.307  0.00  0.00    +0.160 C 
BRANCH  26  27
ATOM     27  C   UNL     1       4.263   2.585   4.209  0.00  0.00    -0.027 A 
ATOM     28  C   UNL     1       3.770   1.379   3.746  0.00  0.00    +0.008 A 
ATOM     29  C   UNL     1       3.000   0.583   4.573  0.00  0.00    +0.038 A 
ATOM     30  C   UNL     1       2.723   0.994   5.866  0.00  0.00    +0.123 A 
ATOM     31  C   UNL     1       3.217   2.201   6.329  0.00  0.00    +0.038 A 
ATOM     32  C   UNL     1       3.991   2.993   5.502  0.00  0.00    +0.008 A 
ATOM     33  F   UNL     1       1.970   0.217   6.675  0.00  0.00    -0.205 F 
ENDBRANCH  26  27
ENDBRANCH   9  26
TORSDOF 8
