REMARK  Name = ZINC00033314
REMARK  2 active torsions:
REMARK  status: ('A' for Active; 'I' for Inactive)
REMARK    1  A    between atoms: C_4  and  C_7
REMARK    2  A    between atoms: C_13  and  C_15
REMARK                            x       y       z     vdW  Elec       q    Type
REMARK                         _______ _______ _______ _____ _____    ______ ____
ROOT
ATOM      1  C   UNL     1       0.002  -0.004   0.002  0.00  0.00    +0.107 A 
ATOM      2  N   UNL     1       0.511  -0.839  -0.882  0.00  0.00    -0.144 NA
ATOM      3  N   UNL     1       0.428  -2.087  -0.712  0.00  0.00    -0.126 NA
ATOM      4  C   UNL     1      -0.165  -2.608   0.348  0.00  0.00    +0.188 A 
ATOM      5  S   UNL     1      -0.650  -1.168   1.194  0.00  0.00    -0.035 S 
ATOM      6  N   UNL     1      -0.346  -3.943   0.695  0.00  0.00    -0.263 N 
ATOM      7  C   UNL     1       0.120  -4.918  -0.110  0.00  0.00    +0.222 C 
ATOM      8  O   UNL     1       0.698  -4.631  -1.137  0.00  0.00    -0.275 OA
ATOM      9  H   UNL     1      -0.808  -4.172   1.517  0.00  0.00    +0.157 HD
ENDROOT
BRANCH   1  13
ATOM     10  C   UNL     1       0.656   4.069  -1.232  0.00  0.00    +0.000 C 
ATOM     11  C   UNL     1       1.396   3.562   0.008  0.00  0.00    +0.001 C 
ATOM     12  C   UNL     1       1.417   2.032  -0.001  0.00  0.00    +0.010 C 
ATOM     13  C   UNL     1      -0.018   1.503   0.010  0.00  0.00    +0.047 C 
ATOM     14  C   UNL     1      -0.758   2.010  -1.229  0.00  0.00    +0.010 C 
ATOM     15  C   UNL     1      -0.779   3.539  -1.221  0.00  0.00    +0.001 C 
ENDBRANCH   1  13
BRANCH   7  16
ATOM     16  C   UNL     1      -0.076  -6.364   0.266  0.00  0.00    +0.075 C 
ATOM     17  C   UNL     1       0.603  -6.639   1.609  0.00  0.00    +0.013 C 
ATOM     18  C   UNL     1       0.403  -8.107   1.990  0.00  0.00    +0.001 C 
ATOM     19  C   UNL     1       1.022  -9.002   0.915  0.00  0.00    +0.000 C 
ATOM     20  C   UNL     1       0.343  -8.727  -0.429  0.00  0.00    +0.001 C 
ATOM     21  C   UNL     1       0.542  -7.259  -0.810  0.00  0.00    +0.013 C 
ENDBRANCH   7  16
TORSDOF 2
