REMARK  Name = ZINC52016873
REMARK  5 active torsions:
REMARK  status: ('A' for Active; 'I' for Inactive)
REMARK    1  A    between atoms: C_4  and  N_19
REMARK    2  A    between atoms: C_5  and  C_7
REMARK    3  A    between atoms: N_9  and  C_10
REMARK    4  A    between atoms: C_16  and  O_18
REMARK    5  A    between atoms: N_19  and  N_20
REMARK                            x       y       z     vdW  Elec       q    Type
REMARK                         _______ _______ _______ _____ _____    ______ ____
ROOT
ATOM      1  C   UNL     1       1.562  -2.135  -0.048  0.00  0.00    +0.246 C 
ATOM      2  O   UNL     1       2.681  -2.606   0.024  0.00  0.00    -0.270 OA
ATOM      3  N   UNL     1       0.494  -2.951  -0.147  0.00  0.00    -0.306 N 
ATOM      4  H   UNL     1      -0.399  -2.576  -0.204  0.00  0.00    +0.149 HD
ENDROOT
BRANCH   1   9
ATOM      5  C   UNL     1      -0.081   1.237   0.032  0.00  0.00    +0.001 A 
ATOM      6  C   UNL     1       1.020   2.079   0.014  0.00  0.00    +0.002 A 
ATOM      7  C   UNL     1       2.297   1.558  -0.023  0.00  0.00    +0.025 A 
ATOM      8  C   UNL     1       2.487   0.182  -0.044  0.00  0.00    +0.053 A 
ATOM      9  C   UNL     1       1.374  -0.673  -0.026  0.00  0.00    +0.059 A 
ATOM     10  C   UNL     1       0.087  -0.130   0.012  0.00  0.00    +0.015 A 
BRANCH   8  11
ATOM     11  N   UNL     1       3.772  -0.345  -0.083  0.00  0.00    -0.282 N 
ATOM     12  H   UNL     1       3.905  -1.303  -0.017  0.00  0.00    +0.166 HD
BRANCH  11  13
ATOM     13  N   UNL     1       4.847   0.487  -0.213  0.00  0.00    -0.256 NA
ATOM     14  H   UNL     1       5.710  -0.036  -0.226  0.00  0.00    +0.140 HD
ATOM     15  H   UNL     1       4.761   1.063  -1.038  0.00  0.00    +0.140 HD
ENDBRANCH  11  13
ENDBRANCH   8  11
ENDBRANCH   1   9
BRANCH   3  16
ATOM     16  C   UNL     1       0.680  -4.404  -0.169  0.00  0.00    +0.102 C 
ATOM     17  C   UNL     1       0.976  -4.859  -1.599  0.00  0.00    +0.025 C 
ATOM     18  C   UNL     1      -0.196  -4.481  -2.507  0.00  0.00    +0.002 C 
ATOM     19  C   UNL     1      -1.469  -5.167  -2.007  0.00  0.00    +0.003 C 
ATOM     20  C   UNL     1      -1.765  -4.712  -0.577  0.00  0.00    +0.033 C 
ATOM     21  C   UNL     1      -0.593  -5.089   0.331  0.00  0.00    +0.135 C 
BRANCH  21  22
ATOM     22  O   UNL     1      -0.869  -4.664   1.667  0.00  0.00    -0.390 OA
ATOM     23  H   UNL     1      -1.665  -5.060   2.049  0.00  0.00    +0.210 HD
ENDBRANCH  21  22
ENDBRANCH   3  16
TORSDOF 5
