REMARK  Name = ZINC13064895
REMARK  13 active torsions:
REMARK  status: ('A' for Active; 'I' for Inactive)
REMARK    1  A    between atoms: C_1  and  C_2
REMARK    2  A    between atoms: C_2  and  C_3
REMARK    3  A    between atoms: C_3  and  C_5
REMARK    4  A    between atoms: C_3  and  N_76
REMARK    5  A    between atoms: N_9  and  C_10
REMARK    6  A    between atoms: C_10  and  C_11
REMARK    7  A    between atoms: C_14  and  O_17
REMARK    8  A    between atoms: O_17  and  C_18
REMARK    9  A    between atoms: C_19  and  C_20
REMARK   10  A    between atoms: C_19  and  N_76
REMARK   11  A    between atoms: C_23  and  C_33
REMARK   12  A    between atoms: C_25  and  C_32
REMARK   13  A    between atoms: C_34  and  N_76
REMARK                            x       y       z     vdW  Elec       q    Type
REMARK                         _______ _______ _______ _____ _____    ______ ____
ROOT
ATOM      1  N   UNL     1      -0.907  -2.177  -0.762  0.00  0.00    +0.391 N 
ATOM      2  H   UNL     1      -0.524  -2.124  -1.713  0.00  0.00    -0.080 HD
ENDROOT
BRANCH   1   3
ATOM      3  C   UNL     1       0.122  -2.733   0.141  0.00  0.00    -0.067 C 
ATOM      4  C   UNL     1      -0.331  -2.630   1.599  0.00  0.00    -0.015 C 
ATOM      5  C   UNL     1       0.753  -3.207   2.512  0.00  0.00    -0.002 C 
ATOM      6  C   UNL     1       2.050  -2.419   2.325  0.00  0.00    -0.000 C 
ATOM      7  C   UNL     1       2.504  -2.521   0.867  0.00  0.00    -0.002 C 
ATOM      8  C   UNL     1       1.420  -1.944  -0.046  0.00  0.00    -0.015 C 
ENDBRANCH   1   3
BRANCH   1   9
ATOM      9  C   UNL     1      -1.286  -0.818  -0.321  0.00  0.00    +0.003 C 
BRANCH   9  10
ATOM     10  C   UNL     1      -2.197  -0.887   0.878  0.00  0.00    +0.138 A 
ATOM     11  N   UNL     1      -3.259  -1.645   1.011  0.00  0.00    -0.115 NA
ATOM     12  N   UNL     1      -3.767  -1.417   2.173  0.00  0.00    -0.023 NA
ATOM     13  N   UNL     1      -3.056  -0.535   2.785  0.00  0.00    -0.044 NA
ATOM     14  N   UNL     1      -2.079  -0.183   2.019  0.00  0.00    -0.226 N 
BRANCH  14  15
ATOM     15  C   UNL     1      -1.034   0.793   2.334  0.00  0.00    +0.182 C 
BRANCH  15  16
ATOM     16  C   UNL     1      -1.476   2.163   1.887  0.00  0.00    -0.026 A 
ATOM     17  C   UNL     1      -1.173   2.604   0.612  0.00  0.00    +0.009 A 
ATOM     18  C   UNL     1      -1.581   3.857   0.197  0.00  0.00    +0.046 A 
ATOM     19  C   UNL     1      -2.286   4.678   1.066  0.00  0.00    +0.120 A 
ATOM     20  C   UNL     1      -2.584   4.236   2.346  0.00  0.00    +0.046 A 
ATOM     21  C   UNL     1      -2.178   2.979   2.754  0.00  0.00    +0.009 A 
BRANCH  19  22
ATOM     22  O   UNL     1      -2.684   5.913   0.662  0.00  0.00    -0.495 OA
ATOM     23  C   UNL     1      -2.343   6.301  -0.670  0.00  0.00    +0.277 C 
ENDBRANCH  19  22
ENDBRANCH  15  16
ENDBRANCH  14  15
ENDBRANCH   9  10
BRANCH   9  25
ATOM     24  C   UNL     1      -1.045   0.065  -2.645  0.00  0.00    +0.002 C 
ATOM     25  C   UNL     1      -2.008  -0.113  -1.470  0.00  0.00    -0.011 C 
ENDBRANCH   9  25
ENDBRANCH   1   9
BRANCH   1  26
ATOM     26  C   UNL     1      -2.097  -3.055  -0.772  0.00  0.00    -0.036 C 
BRANCH  26  27
ATOM     27  C   UNL     1      -1.779  -4.290  -1.574  0.00  0.00    +0.001 A 
ATOM     28  C   UNL     1      -1.388  -5.424  -0.941  0.00  0.00    +0.017 A 
ATOM     29  C   UNL     1      -1.091  -6.609  -1.749  0.00  0.00    +0.002 A 
ATOM     30  C   UNL     1      -0.688  -7.808  -1.153  0.00  0.00    -0.041 A 
ATOM     31  C   UNL     1      -0.414  -8.895  -1.935  0.00  0.00    +0.007 A 
ATOM     32  C   UNL     1      -0.531  -8.818  -3.316  0.00  0.00    -0.048 A 
ATOM     33  C   UNL     1      -0.926  -7.647  -3.925  0.00  0.00    +0.029 A 
ATOM     34  C   UNL     1      -1.211  -6.528  -3.149  0.00  0.00    +0.050 A 
ATOM     35  N   UNL     1      -1.608  -5.343  -3.732  0.00  0.00    -0.322 N 
ATOM     36  H   UNL     1      -1.690  -5.289  -4.696  0.00  0.00    +0.169 HD
ATOM     37  C   UNL     1      -1.884  -4.262  -2.981  0.00  0.00    +0.251 A 
ATOM     38  O   UNL     1      -2.233  -3.231  -3.530  0.00  0.00    -0.268 OA
ATOM     39  C   UNL     1      -0.223 -10.029  -4.158  0.00  0.00    +0.044 C 
ATOM     40  C   UNL     1      -0.557  -7.902   0.346  0.00  0.00    +0.044 C 
ENDBRANCH  26  27
ENDBRANCH   1  26
TORSDOF 9
