REMARK  Name = ZINC46561726
REMARK  9 active torsions:
REMARK  status: ('A' for Active; 'I' for Inactive)
REMARK    1  A    between atoms: C_1  and  C_2
REMARK    2  A    between atoms: C_2  and  C_3
REMARK    3  A    between atoms: C_10  and  C_15
REMARK    4  A    between atoms: C_15  and  N_16
REMARK    5  A    between atoms: N_16  and  C_17
REMARK    6  A    between atoms: N_16  and  C_28
REMARK    7  A    between atoms: C_17  and  C_18
REMARK    8  A    between atoms: C_21  and  C_24
REMARK    9  A    between atoms: N_26  and  C_27
REMARK                            x       y       z     vdW  Elec       q    Type
REMARK                         _______ _______ _______ _____ _____    ______ ____
ROOT
ATOM      1  N   UNL     1       1.450  -3.242  -6.227  0.00  0.00    +0.387 N 
ATOM      2  H   UNL     1       1.868  -4.159  -6.178  0.00  0.00    -0.080 HD
ENDROOT
BRANCH   1   3
ATOM      3  C   UNL     1       0.284  -3.187  -5.336  0.00  0.00    -0.068 C 
ATOM      4  C   UNL     1       0.182  -4.249  -4.239  0.00  0.00    -0.017 C 
ATOM      5  C   UNL     1      -0.748  -4.311  -5.452  0.00  0.00    -0.017 C 
ENDBRANCH   1   3
BRANCH   1   6
ATOM      6  C   UNL     1       2.433  -2.233  -5.810  0.00  0.00    -0.041 C 
BRANCH   6  14
ATOM      7  C   UNL     1       1.095  -1.415  -0.866  0.00  0.00    -0.026 A 
ATOM      8  C   UNL     1       2.254  -2.162  -0.813  0.00  0.00    +0.052 A 
ATOM      9  C   UNL     1       2.880  -2.555  -1.989  0.00  0.00    +0.140 A 
ATOM     10  C   UNL     1       2.323  -2.185  -3.226  0.00  0.00    +0.020 A 
ATOM     11  C   UNL     1       1.149  -1.428  -3.265  0.00  0.00    +0.032 A 
ATOM     12  C   UNL     1       0.541  -1.054  -2.087  0.00  0.00    +0.045 A 
ATOM     13 CL   UNL     1      -0.922  -0.120  -2.128  0.00  0.00    -0.083 Cl
ATOM     14  C   UNL     1       2.993  -2.605  -4.461  0.00  0.00    -0.046 A 
ATOM     15  C   UNL     1       4.130  -3.339  -4.356  0.00  0.00    +0.094 A 
ATOM     16  C   UNL     1       4.633  -3.674  -3.080  0.00  0.00    +0.337 A 
ATOM     17  O   UNL     1       5.654  -4.332  -3.000  0.00  0.00    -0.245 OA
ATOM     18  O   UNL     1       4.015  -3.286  -1.954  0.00  0.00    -0.422 OA
BRANCH   7  20
ATOM     19  C   UNL     1       0.779   0.463   0.722  0.00  0.00    +0.009 C 
ATOM     20  C   UNL     1       0.421  -0.993   0.414  0.00  0.00    +0.033 C 
ENDBRANCH   7  20
ENDBRANCH   6  14
ENDBRANCH   1   6
BRANCH   1  21
ATOM     21  C   UNL     1       1.025  -2.970  -7.607  0.00  0.00    -0.042 C 
BRANCH  21  22
ATOM     22  C   UNL     1       0.134  -4.086  -8.087  0.00  0.00    -0.064 A 
ATOM     23  C   UNL     1       0.693  -5.267  -8.541  0.00  0.00    +0.002 A 
ATOM     24  C   UNL     1      -0.118  -6.293  -8.982  0.00  0.00    +0.013 A 
ATOM     25  C   UNL     1      -1.505  -6.137  -8.969  0.00  0.00    +0.037 A 
ATOM     26  C   UNL     1      -2.062  -4.943  -8.509  0.00  0.00    +0.013 A 
ATOM     27  C   UNL     1      -1.241  -3.927  -8.066  0.00  0.00    +0.002 A 
BRANCH  25  28
ATOM     28  C   UNL     1      -2.379  -7.232  -9.441  0.00  0.00    +0.244 C 
ATOM     29  O   UNL     1      -1.891  -8.270  -9.841  0.00  0.00    -0.270 OA
ATOM     30  N   UNL     1      -3.718  -7.078  -9.427  0.00  0.00    -0.314 N 
ATOM     31  C   UNL     1      -4.585  -8.163  -9.894  0.00  0.00    +0.128 C 
ATOM     32  H   UNL     1      -4.108  -6.249  -9.108  0.00  0.00    +0.149 HD
ENDBRANCH  25  28
ENDBRANCH  21  22
ENDBRANCH   1  21
TORSDOF 7
