REMARK  Name = ZINC25533447
REMARK  9 active torsions:
REMARK  status: ('A' for Active; 'I' for Inactive)
REMARK    1  A    between atoms: C_1  and  C_2
REMARK    2  A    between atoms: C_4  and  N_24
REMARK    3  A    between atoms: C_6  and  C_7
REMARK    4  A    between atoms: N_9  and  N_10
REMARK    5  A    between atoms: C_11  and  C_13
REMARK    6  A    between atoms: C_25  and  C_27
REMARK    7  A    between atoms: C_27  and  C_28
REMARK    8  A    between atoms: C_27  and  C_29
REMARK    9  A    between atoms: C_27  and  C_30
REMARK                            x       y       z     vdW  Elec       q    Type
REMARK                         _______ _______ _______ _____ _____    ______ ____
ROOT
ATOM      1  C   UNL     1       1.141   2.087   0.002  0.00  0.00    +0.267 C 
ATOM      2  O   UNL     1       2.204   1.492  -0.011  0.00  0.00    -0.268 OA
ATOM      3  N   UNL     1      -0.017   1.397   0.010  0.00  0.00    -0.230 N 
ATOM      4  H   UNL     1      -0.977   1.934   0.022  0.00  0.00    +0.173 HD
ENDROOT
BRANCH   1  10
ATOM      5  C   UNL     1       3.614   3.946   0.002  0.00  0.00    +0.045 C 
ATOM      6  C   UNL     1       2.188   4.435   0.011  0.00  0.00    -0.029 A 
ATOM      7  C   UNL     1       1.894   5.772   0.015  0.00  0.00    +0.035 A 
ATOM      8  C   UNL     1       0.571   6.160   0.030  0.00  0.00    +0.073 A 
ATOM      9  S   UNL     1      -0.281   4.650   0.030  0.00  0.00    -0.069 S 
ATOM     10  C   UNL     1       1.121   3.548   0.010  0.00  0.00    +0.080 A 
BRANCH   8  11
ATOM     11  N   UNL     1       0.049   7.447   0.042  0.00  0.00    -0.280 N 
ATOM     12  C   UNL     1      -1.286   7.632   0.057  0.00  0.00    +0.223 C 
ATOM     13  O   UNL     1      -2.031   6.675   0.059  0.00  0.00    -0.275 OA
ATOM     14  H   UNL     1       0.725   8.315   0.041  0.00  0.00    +0.155 HD
BRANCH  12  15
ATOM     15  C   UNL     1      -1.853   9.028   0.070  0.00  0.00    +0.039 C 
ATOM     16  C   UNL     1      -3.381   8.958   0.085  0.00  0.00    +0.020 C 
ATOM     17  C   UNL     1      -1.364   9.765   1.319  0.00  0.00    +0.020 C 
ATOM     18  C   UNL     1      -1.389   9.779  -1.179  0.00  0.00    +0.020 C 
ENDBRANCH  12  15
ENDBRANCH   8  11
ENDBRANCH   1  10
BRANCH   3  19
ATOM     19  N   UNL     1       0.002  -0.004   0.002  0.00  0.00    -0.231 N 
ATOM     20  C   UNL     1      -1.156  -0.694   0.009  0.00  0.00    +0.273 C 
ATOM     21  O   UNL     1      -2.214  -0.102   0.023  0.00  0.00    -0.270 OA
ATOM     22  H   UNL     1       0.962  -0.541  -0.010  0.00  0.00    +0.173 HD
BRANCH  20  23
ATOM     23  C   UNL     1      -1.135  -2.201   0.001  0.00  0.00    +0.297 C 
ATOM     24  C   UNL     1      -0.533  -2.717   1.315  0.00  0.00    +0.283 C 
ATOM     25  O   UNL     1      -0.541  -4.149   1.279  0.00  0.00    -0.484 OA
ATOM     26  C   UNL     1      -1.693  -4.743   0.864  0.00  0.00    +0.162 A 
ATOM     27  C   UNL     1      -1.902  -6.087   1.138  0.00  0.00    +0.049 A 
ATOM     28  C   UNL     1      -3.065  -6.705   0.720  0.00  0.00    +0.004 A 
ATOM     29  C   UNL     1      -4.022  -5.988   0.028  0.00  0.00    +0.004 A 
ATOM     30  C   UNL     1      -3.820  -4.649  -0.248  0.00  0.00    +0.049 A 
ATOM     31  C   UNL     1      -2.656  -4.021   0.169  0.00  0.00    +0.163 A 
ATOM     32  O   UNL     1      -2.473  -2.701  -0.106  0.00  0.00    -0.472 OA
ENDBRANCH  20  23
ENDBRANCH   3  19
TORSDOF 5
