REMARK  Name = ZINC66615108
REMARK  6 active torsions:
REMARK  status: ('A' for Active; 'I' for Inactive)
REMARK    1  A    between atoms: C_1  and  C_2
REMARK    2  A    between atoms: C_2  and  C_4
REMARK    3  A    between atoms: C_2  and  N_19
REMARK    4  A    between atoms: C_4  and  C_5
REMARK    5  A    between atoms: N_7  and  C_8
REMARK    6  A    between atoms: C_20  and  C_22
REMARK                            x       y       z     vdW  Elec       q    Type
REMARK                         _______ _______ _______ _____ _____    ______ ____
ROOT
ATOM      1  C   UNL     1      -1.416  -2.035  -0.119  0.00  0.00    +0.215 C 
ATOM      2  O   UNL     1      -0.359  -2.623  -0.213  0.00  0.00    -0.276 OA
ATOM      3  N   UNL     1      -2.574  -2.724  -0.133  0.00  0.00    -0.314 N 
ATOM      4  H   UNL     1      -3.419  -2.253  -0.058  0.00  0.00    +0.149 HD
ENDROOT
BRANCH   3   5
ATOM      5  C   UNL     1      -2.558  -4.183  -0.262  0.00  0.00    +0.058 C 
ATOM      6  C   UNL     1      -2.566  -4.597  -1.756  0.00  0.00    +0.002 C 
ATOM      7  C   UNL     1      -3.906  -5.354  -1.953  0.00  0.00    -0.077 C 
ATOM      8  N   UNL     1      -4.759  -4.826  -0.876  0.00  0.00    +0.383 N 
ATOM      9  C   UNL     1      -3.847  -4.786   0.302  0.00  0.00    -0.048 C 
ATOM     10  C   UNL     1      -4.515  -3.940   1.377  0.00  0.00    -0.014 C 
ATOM     11  C   UNL     1      -5.805  -4.663   1.796  0.00  0.00    -0.003 C 
ATOM     12  C   UNL     1      -6.693  -4.927   0.581  0.00  0.00    -0.019 C 
ATOM     13  C   UNL     1      -5.906  -5.654  -0.529  0.00  0.00    -0.078 C 
ATOM     14  H   UNL     1      -5.067  -3.894  -1.109  0.00  0.00    -0.081 HD
ENDBRANCH   3   5
BRANCH   1  15
ATOM     15  C   UNL     1      -1.433  -0.534   0.013  0.00  0.00    +0.117 C 
BRANCH  15  17
ATOM     16  C   UNL     1      -0.019   1.526   0.010  0.00  0.00    +0.028 C 
ATOM     17  C   UNL     1       0.002  -0.004   0.002  0.00  0.00    +0.079 C 
BRANCH  17  18
ATOM     18  N   UNL     1       0.711  -0.489   1.189  0.00  0.00    -0.312 N 
ATOM     19  C   UNL     1       2.054  -0.600   1.174  0.00  0.00    +0.216 C 
ATOM     20  O   UNL     1       2.676  -0.297   0.177  0.00  0.00    -0.276 OA
ATOM     21  H   UNL     1       0.213  -0.731   1.986  0.00  0.00    +0.149 HD
BRANCH  19  22
ATOM     22  C   UNL     1       2.783  -1.099   2.395  0.00  0.00    +0.075 C 
ATOM     23  C   UNL     1       2.300  -2.510   2.736  0.00  0.00    +0.013 C 
ATOM     24  C   UNL     1       3.040  -3.017   3.975  0.00  0.00    +0.001 C 
ATOM     25  C   UNL     1       4.543  -3.046   3.695  0.00  0.00    +0.000 C 
ATOM     26  C   UNL     1       5.026  -1.635   3.354  0.00  0.00    +0.001 C 
ATOM     27  C   UNL     1       4.287  -1.129   2.114  0.00  0.00    +0.013 C 
ENDBRANCH  19  22
ENDBRANCH  17  18
ENDBRANCH  15  17
ENDBRANCH   1  15
TORSDOF 5
