REMARK  Name = ZINC35458556
REMARK  12 active torsions:
REMARK  status: ('A' for Active; 'I' for Inactive)
REMARK    1  A    between atoms: C_1  and  C_2
REMARK    2  A    between atoms: C_9  and  O_15
REMARK    3  A    between atoms: O_15  and  C_16
REMARK    4  A    between atoms: C_17  and  C_42
REMARK    5  A    between atoms: C_21  and  C_40
REMARK    6  A    between atoms: C_21  and  C_41
REMARK    7  A    between atoms: C_22  and  O_39
REMARK    8  A    between atoms: C_23  and  O_28
REMARK    9  A    between atoms: C_25  and  O_27
REMARK   10  A    between atoms: O_28  and  C_29
REMARK   11  A    between atoms: C_29  and  C_31
REMARK   12  A    between atoms: C_32  and  C_33
REMARK                            x       y       z     vdW  Elec       q    Type
REMARK                         _______ _______ _______ _____ _____    ______ ____
ROOT
ATOM      1  C   UNL     1      -1.328   2.349  -0.539  0.00  0.00    +0.013 C 
ATOM      2  C   UNL     1      -1.258   0.886  -0.958  0.00  0.00    +0.024 C 
ATOM      3  C   UNL     1      -2.402   0.024  -0.439  0.00  0.00    +0.032 C 
ATOM      4  C   UNL     1      -2.224  -0.628   0.903  0.00  0.00    +0.011 C 
ATOM      5  C   UNL     1      -0.858  -1.237   1.171  0.00  0.00    +0.088 C 
ATOM      6  C   UNL     1       0.312  -0.343   0.809  0.00  0.00    +0.239 C 
ATOM      7  C   UNL     1       0.054   0.277  -0.546  0.00  0.00    +0.011 C 
ATOM      8  C   UNL     1       1.185   0.192  -1.229  0.00  0.00    +0.097 C 
ATOM      9  C   UNL     1       2.167  -0.531  -0.409  0.00  0.00    +0.335 C 
ATOM     10  O   UNL     1       3.354  -0.623  -0.638  0.00  0.00    -0.246 OA
ATOM     11  O   UNL     1       1.522  -1.101   0.634  0.00  0.00    -0.425 OA
ATOM     12  C   UNL     1      -2.824   0.095   2.086  0.00  0.00    +0.004 C 
ATOM     13  C   UNL     1      -2.656  -0.741   3.362  0.00  0.00    +0.010 C 
ATOM     14  C   UNL     1      -3.489  -2.016   3.241  0.00  0.00    +0.001 C 
ATOM     15  C   UNL     1      -4.955  -1.594   3.259  0.00  0.00    +0.009 C 
ATOM     16  C   UNL     1      -5.282  -0.700   2.058  0.00  0.00    -0.002 C 
ATOM     17  C   UNL     1      -4.300   0.431   1.860  0.00  0.00    +0.116 C 
ATOM     18  C   UNL     1      -4.463   1.202   0.562  0.00  0.00    +0.238 C 
ATOM     19  C   UNL     1      -3.746   0.685  -0.660  0.00  0.00    +0.162 C 
ATOM     20  C   UNL     1      -6.673  -0.095   2.386  0.00  0.00    +0.014 C 
ATOM     21  C   UNL     1      -5.455  -1.591   0.830  0.00  0.00    +0.014 C 
ATOM     22  C   UNL     1      -2.099   1.425   2.367  0.00  0.00    +0.014 C 
ENDROOT
BRANCH   6  23
ATOM     23  O   UNL     1       0.558   0.656   1.799  0.00  0.00    -0.339 OA
ATOM     24  C   UNL     1       1.655   1.520   1.493  0.00  0.00    +0.199 C 
ENDBRANCH   6  23
BRANCH  19  25
ATOM     25  O   UNL     1      -4.596  -0.186  -1.425  0.00  0.00    -0.388 OA
ATOM     26  H   UNL     1      -5.474   0.178  -1.603  0.00  0.00    +0.210 HD
ENDBRANCH  19  25
BRANCH  17  27
ATOM     27  O   UNL     1      -4.616   1.400   2.913  0.00  0.00    -0.384 OA
ATOM     28  H   UNL     1      -5.531   1.711   2.899  0.00  0.00    +0.210 HD
ENDBRANCH  17  27
BRANCH  18  29
ATOM     29  O   UNL     1      -5.846   1.410   0.239  0.00  0.00    -0.453 OA
BRANCH  29  30
ATOM     30  C   UNL     1      -6.151   2.525  -0.457  0.00  0.00    +0.332 C 
ATOM     31  O   UNL     1      -5.271   3.299  -0.782  0.00  0.00    -0.246 OA
BRANCH  30  32
ATOM     32  C   UNL     1      -7.540   2.802  -0.821  0.00  0.00    +0.092 C 
ATOM     33  C   UNL     1      -7.845   3.917  -1.518  0.00  0.00    +0.015 C 
BRANCH  33  34
ATOM     34  C   UNL     1      -9.243   4.196  -1.884  0.00  0.00    -0.025 A 
ATOM     35  C   UNL     1     -10.259   3.311  -1.507  0.00  0.00    +0.008 A 
ATOM     36  C   UNL     1     -11.566   3.580  -1.854  0.00  0.00    +0.001 A 
ATOM     37  C   UNL     1     -11.874   4.721  -2.573  0.00  0.00    +0.000 A 
ATOM     38  C   UNL     1     -10.875   5.602  -2.950  0.00  0.00    +0.001 A 
ATOM     39  C   UNL     1      -9.564   5.350  -2.606  0.00  0.00    +0.008 A 
ENDBRANCH  33  34
ENDBRANCH  30  32
ENDBRANCH  29  30
ENDBRANCH  18  29
TORSDOF 7
