REMARK  Name = ZINC34777999
REMARK  10 active torsions:
REMARK  status: ('A' for Active; 'I' for Inactive)
REMARK    1  A    between atoms: C_1  and  C_2
REMARK    2  A    between atoms: N_6  and  C_26
REMARK    3  A    between atoms: N_9  and  C_16
REMARK    4  A    between atoms: C_12  and  C_13
REMARK    5  A    between atoms: C_13  and  C_15
REMARK    6  A    between atoms: C_16  and  C_17
REMARK    7  A    between atoms: N_19  and  C_20
REMARK    8  A    between atoms: C_26  and  C_27
REMARK    9  A    between atoms: C_27  and  C_28
REMARK   10  A    between atoms: C_28  and  C_29
REMARK                            x       y       z     vdW  Elec       q    Type
REMARK                         _______ _______ _______ _____ _____    ______ ____
ROOT
ATOM      1  C   UNL     1      -0.018   1.503   0.010  0.00  0.00    +0.046 C 
ATOM      2  C   UNL     1       0.002  -0.004   0.002  0.00  0.00    -0.018 A 
ATOM      3  C   UNL     1       0.006  -0.730  -1.193  0.00  0.00    +0.074 A 
ATOM      4  C   UNL     1      -0.009  -0.217  -2.585  0.00  0.00    +0.265 A 
ATOM      5  O   UNL     1      -0.026   0.981  -2.801  0.00  0.00    -0.267 OA
ATOM      6  N   UNL     1      -0.002  -1.092  -3.606  0.00  0.00    -0.260 N 
ATOM      7  C   UNL     1       0.017  -2.419  -3.400  0.00  0.00    +0.333 A 
ATOM      8  O   UNL     1       0.022  -3.168  -4.358  0.00  0.00    -0.246 OA
ATOM      9  N   UNL     1       0.031  -2.938  -2.159  0.00  0.00    -0.278 N 
ATOM     10  C   UNL     1       0.026  -2.127  -1.061  0.00  0.00    +0.098 A 
ATOM     11  S   UNL     1       0.039  -2.415   0.586  0.00  0.00    -0.067 S 
ATOM     12  C   UNL     1       0.024  -0.733   1.174  0.00  0.00    +0.060 A 
ENDROOT
BRANCH  12  13
ATOM     13  C   UNL     1       0.030  -0.264   2.504  0.00  0.00    +0.167 C 
ATOM     14  O   UNL     1       0.016   0.929   2.728  0.00  0.00    -0.292 OA
ATOM     15  C   UNL     1       0.055  -1.245   3.649  0.00  0.00    +0.092 C 
ENDBRANCH  12  13
BRANCH   9  16
ATOM     16  C   UNL     1       0.052  -4.393  -1.984  0.00  0.00    +0.223 C 
BRANCH  16  17
ATOM     17  C   UNL     1       1.479  -4.872  -1.932  0.00  0.00    +0.233 C 
ATOM     18  O   UNL     1       2.390  -4.077  -2.031  0.00  0.00    -0.274 OA
ATOM     19  N   UNL     1       1.744  -6.184  -1.775  0.00  0.00    -0.311 N 
ATOM     20  H   UNL     1       1.016  -6.820  -1.696  0.00  0.00    +0.149 HD
BRANCH  19  21
ATOM     21  C   UNL     1       3.132  -6.651  -1.725  0.00  0.00    +0.073 C 
ATOM     22  C   UNL     1       3.650  -6.866  -3.148  0.00  0.00    +0.022 C 
ATOM     23  C   UNL     1       5.099  -7.353  -3.095  0.00  0.00    +0.002 C 
ATOM     24  C   UNL     1       5.167  -8.672  -2.323  0.00  0.00    +0.000 C 
ATOM     25  C   UNL     1       4.649  -8.456  -0.899  0.00  0.00    +0.002 C 
ATOM     26  C   UNL     1       3.200  -7.969  -0.952  0.00  0.00    +0.022 C 
ENDBRANCH  19  21
ENDBRANCH  16  17
ENDBRANCH   9  16
BRANCH   6  27
ATOM     27  C   UNL     1      -0.017  -0.584  -4.980  0.00  0.00    +0.130 C 
BRANCH  27  28
ATOM     28  C   UNL     1       1.421  -0.388  -5.466  0.00  0.00    +0.026 C 
BRANCH  28  29
ATOM     29  C   UNL     1       1.405   0.143  -6.902  0.00  0.00    +0.037 C 
BRANCH  29  30
ATOM     30  C   UNL     1       2.821   0.336  -7.380  0.00  0.00    -0.047 A 
ATOM     31  C   UNL     1       3.459   1.546  -7.180  0.00  0.00    +0.003 A 
ATOM     32  C   UNL     1       4.757   1.724  -7.620  0.00  0.00    +0.000 A 
ATOM     33  C   UNL     1       5.418   0.692  -8.259  0.00  0.00    +0.000 A 
ATOM     34  C   UNL     1       4.781  -0.518  -8.458  0.00  0.00    +0.000 A 
ATOM     35  C   UNL     1       3.483  -0.698  -8.015  0.00  0.00    +0.003 A 
ENDBRANCH  29  30
ENDBRANCH  28  29
ENDBRANCH  27  28
ENDBRANCH   6  27
TORSDOF 8
