REMARK  Name = ZINC41026184
REMARK  10 active torsions:
REMARK  status: ('A' for Active; 'I' for Inactive)
REMARK    1  A    between atoms: C_1  and  C_2
REMARK    2  A    between atoms: C_2  and  N_3
REMARK    3  A    between atoms: N_3  and  C_4
REMARK    4  A    between atoms: N_3  and  C_6
REMARK    5  A    between atoms: C_4  and  C_5
REMARK    6  A    between atoms: C_6  and  C_7
REMARK    7  A    between atoms: C_7  and  N_8
REMARK    8  A    between atoms: N_15  and  C_18
REMARK    9  A    between atoms: N_24  and  C_25
REMARK   10  A    between atoms: C_32  and  C_35
REMARK                            x       y       z     vdW  Elec       q    Type
REMARK                         _______ _______ _______ _____ _____    ______ ____
ROOT
ATOM      1  N   UNL     1      -2.892  -4.092   0.191  0.00  0.00    -0.315 N 
ATOM      2  C   UNL     1      -4.076  -4.804   0.112  0.00  0.00    +0.219 A 
ATOM      3  N   UNL     1      -5.204  -4.145  -0.127  0.00  0.00    -0.199 NA
ATOM      4  C   UNL     1      -6.366  -4.781  -0.211  0.00  0.00    +0.141 A 
ATOM      5  C   UNL     1      -6.380  -6.180  -0.042  0.00  0.00    +0.079 A 
ATOM      6  C   UNL     1      -7.386  -7.170  -0.061  0.00  0.00    +0.148 A 
ATOM      7  N   UNL     1      -6.832  -8.328   0.159  0.00  0.00    -0.172 NA
ATOM      8  N   UNL     1      -5.451  -8.165   0.332  0.00  0.00    -0.214 N 
ATOM      9  C   UNL     1      -5.160  -6.836   0.210  0.00  0.00    +0.170 A 
ATOM     10  N   UNL     1      -4.042  -6.116   0.273  0.00  0.00    -0.195 NA
ATOM     11  N   UNL     1      -7.536  -4.087  -0.460  0.00  0.00    -0.267 N 
ATOM     12  H   UNL     1      -2.058  -4.556   0.361  0.00  0.00    +0.149 HD
ATOM     13  H   UNL     1      -8.379  -4.563  -0.520  0.00  0.00    +0.157 HD
ENDROOT
BRANCH  11  14
ATOM     14  C   UNL     1      -7.504  -2.712  -0.624  0.00  0.00    +0.226 A 
ATOM     15  C   UNL     1      -8.567  -1.913  -0.865  0.00  0.00    +0.037 A 
ATOM     16  C   UNL     1      -8.104  -0.587  -0.966  0.00  0.00    +0.089 A 
ATOM     17  N   UNL     1      -6.818  -0.591  -0.791  0.00  0.00    -0.081 NA
ATOM     18  O   UNL     1      -6.410  -1.930  -0.566  0.00  0.00    -0.339 OA
ATOM     19  C   UNL     1      -9.007   0.591  -1.240  0.00  0.00    +0.059 C 
ATOM     20  C   UNL     1     -10.339   0.058  -1.781  0.00  0.00    +0.010 C 
ATOM     21  C   UNL     1     -10.871  -1.040  -0.857  0.00  0.00    -0.009 C 
ATOM     22  C   UNL     1     -10.017  -2.304  -1.010  0.00  0.00    +0.045 C 
ATOM     23  C   UNL     1     -12.321  -1.358  -1.228  0.00  0.00    +0.008 C 
ENDBRANCH  11  14
BRANCH   8  24
ATOM     24  C   UNL     1      -4.529  -9.188   0.587  0.00  0.00    +0.068 A 
ATOM     25  C   UNL     1      -3.246  -9.115   0.062  0.00  0.00    +0.028 A 
ATOM     26  C   UNL     1      -2.339 -10.125   0.315  0.00  0.00    +0.002 A 
ATOM     27  C   UNL     1      -2.708 -11.209   1.090  0.00  0.00    +0.000 A 
ATOM     28  C   UNL     1      -3.985 -11.286   1.614  0.00  0.00    +0.002 A 
ATOM     29  C   UNL     1      -4.895 -10.276   1.370  0.00  0.00    +0.028 A 
ENDBRANCH   8  24
BRANCH   1  30
ATOM     30  C   UNL     1      -2.900  -2.637   0.017  0.00  0.00    +0.086 C 
BRANCH  30  31
ATOM     31  C   UNL     1      -1.473  -2.100   0.150  0.00  0.00    -0.060 C 
BRANCH  31  32
ATOM     32  N   UNL     1      -1.462  -0.661  -0.144  0.00  0.00    +0.380 N 
ATOM     33  H   UNL     1      -1.871  -0.500  -1.052  0.00  0.00    -0.082 HD
BRANCH  32  35
ATOM     34  C   UNL     1      -2.333   1.534   0.503  0.00  0.00    -0.017 C 
ATOM     35  C   UNL     1      -2.240   0.053   0.877  0.00  0.00    -0.082 C 
ENDBRANCH  32  35
BRANCH  32  36
ATOM     36  C   UNL     1      -0.077  -0.171  -0.137  0.00  0.00    -0.082 C 
ATOM     37  C   UNL     1       0.692  -0.798  -1.301  0.00  0.00    -0.017 C 
ENDBRANCH  32  36
ENDBRANCH  31  32
ENDBRANCH  30  31
ENDBRANCH   1  30
TORSDOF 7
