REMARK  Name = ZINC03333260
REMARK  10 active torsions:
REMARK  status: ('A' for Active; 'I' for Inactive)
REMARK    1  A    between atoms: C_1  and  C_2
REMARK    2  A    between atoms: C_2  and  O_3
REMARK    3  A    between atoms: O_3  and  C_4
REMARK    4  A    between atoms: C_4  and  C_6
REMARK    5  A    between atoms: C_7  and  C_29
REMARK    6  A    between atoms: C_8  and  C_28
REMARK    7  A    between atoms: C_10  and  N_11
REMARK    8  A    between atoms: C_12  and  C_14
REMARK    9  A    between atoms: C_14  and  N_15
REMARK   10  A    between atoms: C_32  and  C_35
REMARK                            x       y       z     vdW  Elec       q    Type
REMARK                         _______ _______ _______ _____ _____    ______ ____
ROOT
ATOM      1  N   UNL     1      -0.597  -2.458  -3.929  0.00  0.00    -0.278 N 
ATOM      2  C   UNL     1      -1.108  -2.787  -5.133  0.00  0.00    +0.236 C 
ATOM      3  O   UNL     1      -0.384  -3.229  -5.999  0.00  0.00    -0.274 OA
ATOM      4  H   UNL     1      -1.176  -2.104  -3.237  0.00  0.00    +0.155 HD
ENDROOT
BRANCH   1   9
ATOM      5  C   UNL     1       1.448  -2.344  -2.515  0.00  0.00    +0.095 A 
ATOM      6  C   UNL     1       2.874  -2.621  -2.522  0.00  0.00    +0.008 A 
ATOM      7  C   UNL     1       3.364  -3.124  -3.684  0.00  0.00    -0.003 A 
ATOM      8  S   UNL     1       1.927  -3.213  -4.730  0.00  0.00    -0.077 S 
ATOM      9  C   UNL     1       0.757  -2.626  -3.683  0.00  0.00    +0.087 A 
ATOM     10  C   UNL     1       4.784  -3.511  -4.011  0.00  0.00    +0.052 C 
BRANCH   6  11
ATOM     11  C   UNL     1       3.735  -2.373  -1.341  0.00  0.00    -0.016 A 
ATOM     12  C   UNL     1       3.928  -1.073  -0.876  0.00  0.00    +0.009 A 
ATOM     13  C   UNL     1       4.729  -0.848   0.224  0.00  0.00    +0.004 A 
ATOM     14  C   UNL     1       5.342  -1.909   0.865  0.00  0.00    -0.050 A 
ATOM     15  C   UNL     1       5.154  -3.202   0.409  0.00  0.00    +0.004 A 
ATOM     16  C   UNL     1       4.350  -3.440  -0.687  0.00  0.00    +0.009 A 
ATOM     17  C   UNL     1       6.217  -1.657   2.066  0.00  0.00    +0.044 C 
ENDBRANCH   6  11
BRANCH   5  18
ATOM     18  C   UNL     1       0.776  -1.800  -1.335  0.00  0.00    +0.342 C 
ATOM     19  O   UNL     1       0.312  -2.552  -0.499  0.00  0.00    -0.245 OA
BRANCH  18  20
ATOM     20  O   UNL     1       0.671  -0.465  -1.174  0.00  0.00    -0.461 OA
BRANCH  20  22
ATOM     21  C   UNL     1      -0.019   1.526   0.010  0.00  0.00    +0.048 C 
ATOM     22  C   UNL     1       0.002  -0.004   0.002  0.00  0.00    +0.229 C 
ENDBRANCH  20  22
ENDBRANCH  18  20
ENDBRANCH   5  18
ENDBRANCH   1   9
BRANCH   2  23
ATOM     23  C   UNL     1      -2.579  -2.604  -5.401  0.00  0.00    +0.214 C 
BRANCH  23  24
ATOM     24  N   UNL     1      -2.883  -3.030  -6.770  0.00  0.00    -0.215 N 
ATOM     25  C   UNL     1      -2.839  -2.217  -7.842  0.00  0.00    +0.247 C 
ATOM     26  O   UNL     1      -2.554  -1.039  -7.855  0.00  0.00    -0.273 OA
ATOM     27  C   UNL     1      -3.220  -3.081  -9.033  0.00  0.00    +0.113 C 
ATOM     28  C   UNL     1      -1.980  -3.197  -9.948  0.00  0.00    +0.035 C 
ATOM     29  C   UNL     1      -2.103  -4.446 -10.776  0.00  0.00    +0.003 C 
ATOM     30  C   UNL     1      -2.739  -4.184 -12.155  0.00  0.00    +0.000 C 
ATOM     31  C   UNL     1      -3.934  -3.215 -12.087  0.00  0.00    +0.000 C 
ATOM     32  C   UNL     1      -4.823  -3.485 -10.903  0.00  0.00    +0.003 C 
ATOM     33  C   UNL     1      -4.384  -2.569  -9.745  0.00  0.00    +0.035 C 
ATOM     34  N   UNL     1      -3.460  -4.406  -8.426  0.00  0.00    -0.285 N 
ATOM     35  C   UNL     1      -3.231  -4.276  -7.108  0.00  0.00    +0.310 C 
ATOM     36  O   UNL     1      -3.333  -5.189  -6.312  0.00  0.00    -0.252 OA
ATOM     37  H   UNL     1      -3.728  -5.214  -8.890  0.00  0.00    +0.151 HD
ENDBRANCH  23  24
ENDBRANCH   2  23
TORSDOF 7
