REMARK  Name = ZINC42448072
REMARK  8 active torsions:
REMARK  status: ('A' for Active; 'I' for Inactive)
REMARK    1  A    between atoms: C_1  and  C_2
REMARK    2  A    between atoms: C_2  and  N_3
REMARK    3  A    between atoms: N_3  and  C_4
REMARK    4  A    between atoms: N_3  and  C_10
REMARK    5  A    between atoms: C_4  and  C_5
REMARK    6  A    between atoms: C_5  and  C_7
REMARK    7  A    between atoms: C_5  and  C_8
REMARK    8  A    between atoms: C_15  and  N_16
REMARK                            x       y       z     vdW  Elec       q    Type
REMARK                         _______ _______ _______ _____ _____    ______ ____
ROOT
ATOM      1  C   UNL     1       1.695  -0.732   0.804  0.00  0.00    +0.051 A 
ATOM      2  C   UNL     1       2.752   0.081   1.183  0.00  0.00    +0.030 A 
ATOM      3  C   UNL     1       4.032  -0.195   0.738  0.00  0.00    -0.024 A 
ATOM      4  C   UNL     1       4.262  -1.287  -0.088  0.00  0.00    +0.038 A 
ATOM      5  C   UNL     1       3.207  -2.105  -0.469  0.00  0.00    +0.048 A 
ATOM      6  C   UNL     1       1.924  -1.833  -0.021  0.00  0.00    +0.048 A 
ATOM      7  N   UNL     1       5.560  -1.562  -0.536  0.00  0.00    -0.285 N 
ATOM      8  C   UNL     1       6.625  -1.034   0.095  0.00  0.00    +0.218 C 
ATOM      9  O   UNL     1       7.742  -1.270  -0.315  0.00  0.00    -0.275 OA
ATOM     10  C   UNL     1       6.446  -0.155   1.303  0.00  0.00    +0.101 C 
ATOM     11  C   UNL     1       5.181   0.689   1.149  0.00  0.00    +0.046 C 
ATOM     12  H   UNL     1       5.693  -2.136  -1.307  0.00  0.00    +0.155 HD
ENDROOT
BRANCH   6  13
ATOM     13  N   UNL     1       0.859  -2.659  -0.399  0.00  0.00    -0.356 N 
ATOM     14  H   UNL     1      -0.053  -2.398  -0.197  0.00  0.00    +0.142 HD
ATOM     15  H   UNL     1       1.033  -3.493  -0.863  0.00  0.00    +0.142 HD
ENDBRANCH   6  13
BRANCH   1  16
ATOM     16  N   UNL     1       0.398  -0.451   1.256  0.00  0.00    -0.328 N 
BRANCH  16  18
ATOM     17  C   UNL     1      -0.250   1.894   1.003  0.00  0.00    +0.024 C 
ATOM     18  C   UNL     1      -0.459   0.465   0.498  0.00  0.00    +0.102 C 
ENDBRANCH  16  18
BRANCH  16  19
ATOM     19  C   UNL     1      -0.102  -1.073   2.485  0.00  0.00    +0.123 C 
BRANCH  19  20
ATOM     20  C   UNL     1       0.623  -0.472   3.691  0.00  0.00    +0.106 C 
ATOM     21  C   UNL     1       0.330   1.027   3.766  0.00  0.00    +0.025 C 
BRANCH  20  22
ATOM     22  C   UNL     1       0.151  -1.127   4.922  0.00  0.00    +0.067 C 
ATOM     23  N   UNL     1      -0.213  -1.632   5.873  0.00  0.00    -0.196 NA
ENDBRANCH  20  22
ENDBRANCH  19  20
ENDBRANCH  16  19
ENDBRANCH   1  16
TORSDOF 6
