REMARK  Name = ZINC63751145
REMARK  6 active torsions:
REMARK  status: ('A' for Active; 'I' for Inactive)
REMARK    1  A    between atoms: C_1  and  O_2
REMARK    2  A    between atoms: O_2  and  C_3
REMARK    3  A    between atoms: C_8  and  S_13
REMARK    4  A    between atoms: S_13  and  C_14
REMARK    5  A    between atoms: C_14  and  C_15
REMARK    6  A    between atoms: C_28  and  C_30
REMARK                            x       y       z     vdW  Elec       q    Type
REMARK                         _______ _______ _______ _____ _____    ______ ____
ROOT
ATOM      1  C   UNL     1       5.981  -4.404  -2.053  0.00  0.00    +0.230 C 
ATOM      2  O   UNL     1       6.335  -5.401  -2.648  0.00  0.00    -0.274 OA
ATOM      3  N   UNL     1       6.797  -3.838  -1.142  0.00  0.00    -0.257 N 
ATOM      4  C   UNL     1       6.399  -2.690  -0.444  0.00  0.00    +0.058 A 
ATOM      5  C   UNL     1       6.330  -1.463  -1.082  0.00  0.00    +0.025 A 
ATOM      6  C   UNL     1       5.957  -0.337  -0.371  0.00  0.00    +0.002 A 
ATOM      7  C   UNL     1       5.655  -0.431   0.976  0.00  0.00    +0.002 A 
ATOM      8  C   UNL     1       5.714  -1.654   1.619  0.00  0.00    +0.025 A 
ATOM      9  C   UNL     1       6.075  -2.788   0.910  0.00  0.00    +0.055 A 
ATOM     10  N   UNL     1       6.087  -4.045   1.526  0.00  0.00    -0.284 N 
ATOM     11  C   UNL     1       7.148  -4.869   1.381  0.00  0.00    +0.219 C 
ATOM     12  O   UNL     1       7.111  -5.987   1.849  0.00  0.00    -0.275 OA
ATOM     13  C   UNL     1       8.377  -4.407   0.642  0.00  0.00    +0.128 C 
ATOM     14  C   UNL     1       8.114  -4.414  -0.861  0.00  0.00    +0.194 C 
ATOM     15  H   UNL     1       5.328  -4.327   2.060  0.00  0.00    +0.155 HD
ENDROOT
BRANCH  14  16
ATOM     16  C   UNL     1       9.192  -3.587  -1.564  0.00  0.00    +0.409 C 
ATOM     17  F   UNL     1       9.148  -2.269  -1.095  0.00  0.00    -0.169 F 
ATOM     18  F   UNL     1      10.450  -4.136  -1.296  0.00  0.00    -0.169 F 
ATOM     19  F   UNL     1       8.962  -3.599  -2.944  0.00  0.00    -0.169 F 
ENDBRANCH  14  16
BRANCH   1  20
ATOM     20  C   UNL     1       4.629  -3.800  -2.332  0.00  0.00    +0.169 C 
BRANCH  20  21
ATOM     21  S   UNL     1       3.777  -4.784  -3.596  0.00  0.00    -0.106 S 
BRANCH  21  27
ATOM     22  C   UNL     1       0.605  -0.606  -1.054  0.00  0.00    +0.122 A 
ATOM     23  C   UNL     1       1.193   0.221  -2.099  0.00  0.00    +0.048 A 
ATOM     24  C   UNL     1       1.804  -0.317  -3.171  0.00  0.00    +0.031 A 
ATOM     25  C   UNL     1       1.890  -1.778  -3.307  0.00  0.00    +0.061 A 
ATOM     26  N   UNL     1       2.412  -2.544  -4.221  0.00  0.00    -0.355 N 
ATOM     27  C   UNL     1       2.188  -3.936  -3.814  0.00  0.00    +0.236 C 
ATOM     28  N   UNL     1       1.464  -3.883  -2.538  0.00  0.00    -0.355 N 
ATOM     29  C   UNL     1       1.289  -2.624  -2.240  0.00  0.00    +0.064 A 
ATOM     30  C   UNL     1       0.647  -1.960  -1.104  0.00  0.00    +0.073 A 
ATOM     31  H   UNL     1       2.866  -2.248  -5.026  0.00  0.00    +0.162 HD
ATOM     32  H   UNL     1       1.170  -4.644  -2.012  0.00  0.00    +0.162 HD
BRANCH  22  34
ATOM     33  C   UNL     1      -0.017   1.425   0.010  0.00  0.00    +0.277 C 
ATOM     34  O   UNL     1       0.002  -0.004   0.002  0.00  0.00    -0.495 OA
ENDBRANCH  22  34
ENDBRANCH  21  27
ENDBRANCH  20  21
ENDBRANCH   1  20
TORSDOF 5
