REMARK  Name = ZINC09103563
REMARK  14 active torsions:
REMARK  status: ('A' for Active; 'I' for Inactive)
REMARK    1  A    between atoms: C_1  and  C_2
REMARK    2  A    between atoms: C_2  and  C_4
REMARK    3  A    between atoms: C_2  and  N_61
REMARK    4  A    between atoms: C_7  and  S_16
REMARK    5  A    between atoms: N_8  and  C_9
REMARK    6  A    between atoms: S_16  and  C_17
REMARK    7  A    between atoms: C_17  and  C_18
REMARK    8  A    between atoms: N_20  and  C_21
REMARK    9  A    between atoms: C_21  and  C_23
REMARK   10  A    between atoms: C_21  and  C_30
REMARK   11  A    between atoms: C_23  and  C_24
REMARK   12  A    between atoms: C_30  and  C_32
REMARK   13  A    between atoms: C_33  and  N_61
REMARK   14  A    between atoms: C_34  and  N_61
REMARK                            x       y       z     vdW  Elec       q    Type
REMARK                         _______ _______ _______ _____ _____    ______ ____
ROOT
ATOM      1  C   UNL     1      -1.735   3.449   0.092  0.00  0.00    +0.125 A 
ATOM      2  N   UNL     1      -1.709   3.008  -1.134  0.00  0.00    -0.135 NA
ATOM      3  N   UNL     1      -2.626   3.580  -1.830  0.00  0.00    -0.122 NA
ATOM      4  C   UNL     1      -3.289   4.431  -1.081  0.00  0.00    +0.197 A 
ATOM      5  N   UNL     1      -2.741   4.375   0.171  0.00  0.00    -0.275 N 
ENDROOT
BRANCH   5   6
ATOM      6  C   UNL     1      -3.128   5.112   1.300  0.00  0.00    +0.050 A 
ATOM      7  C   UNL     1      -3.666   4.462   2.402  0.00  0.00    +0.028 A 
ATOM      8  C   UNL     1      -4.041   5.189   3.515  0.00  0.00    +0.022 A 
ATOM      9  C   UNL     1      -3.893   6.565   3.527  0.00  0.00    +0.041 A 
ATOM     10  C   UNL     1      -3.362   7.215   2.427  0.00  0.00    +0.022 A 
ATOM     11  C   UNL     1      -2.980   6.492   1.314  0.00  0.00    +0.028 A 
ATOM     12 CL   UNL     1      -4.372   7.477   4.924  0.00  0.00    -0.084 Cl
ENDBRANCH   5   6
BRANCH   1  14
ATOM     13  C   UNL     1       0.559   3.650   1.013  0.00  0.00    -0.005 C 
ATOM     14  C   UNL     1      -0.822   3.023   1.213  0.00  0.00    -0.003 C 
BRANCH  14  17
ATOM     15  C   UNL     1      -0.013   1.086   0.008  0.00  0.00    -0.096 C 
ATOM     16  C   UNL     1      -0.016   1.091   2.429  0.00  0.00    -0.096 C 
ATOM     17  N   UNL     1      -0.727   1.548   1.217  0.00  0.00    +0.382 N 
ATOM     18  H   UNL     1      -1.674   1.153   1.216  0.00  0.00    -0.082 HD
ENDBRANCH  14  17
ENDBRANCH   1  14
BRANCH   4  19
ATOM     19  S   UNL     1      -4.631   5.452  -1.593  0.00  0.00    -0.076 S 
BRANCH  19  20
ATOM     20  C   UNL     1      -4.755   4.961  -3.331  0.00  0.00    +0.173 C 
BRANCH  20  21
ATOM     21  C   UNL     1      -5.871   5.729  -3.991  0.00  0.00    +0.224 C 
ATOM     22  O   UNL     1      -6.519   6.529  -3.350  0.00  0.00    -0.275 OA
ATOM     23  N   UNL     1      -6.149   5.526  -5.294  0.00  0.00    -0.305 N 
ATOM     24  H   UNL     1      -5.630   4.886  -5.807  0.00  0.00    +0.149 HD
BRANCH  23  25
ATOM     25  C   UNL     1      -7.234   6.272  -5.936  0.00  0.00    +0.143 C 
BRANCH  25  26
ATOM     26  C   UNL     1      -8.542   5.564  -5.696  0.00  0.00    +0.151 C 
ATOM     27  O   UNL     1      -8.546   4.423  -5.300  0.00  0.00    -0.296 OA
ATOM     28  C   UNL     1      -9.844   6.278  -5.950  0.00  0.00    +0.088 C 
ENDBRANCH  25  26
BRANCH  25  29
ATOM     29  C   UNL     1      -6.971   6.361  -7.441  0.00  0.00    +0.065 C 
BRANCH  29  30
ATOM     30  C   UNL     1      -5.727   7.176  -7.686  0.00  0.00    -0.045 A 
ATOM     31  C   UNL     1      -5.820   8.544  -7.862  0.00  0.00    +0.004 A 
ATOM     32  C   UNL     1      -4.679   9.292  -8.082  0.00  0.00    +0.000 A 
ATOM     33  C   UNL     1      -3.445   8.671  -8.137  0.00  0.00    +0.000 A 
ATOM     34  C   UNL     1      -3.353   7.302  -7.967  0.00  0.00    +0.000 A 
ATOM     35  C   UNL     1      -4.494   6.555  -7.742  0.00  0.00    +0.004 A 
ENDBRANCH  29  30
ENDBRANCH  25  29
ENDBRANCH  23  25
ENDBRANCH  20  21
ENDBRANCH  19  20
ENDBRANCH   4  19
TORSDOF 10
