REMARK  Name = ZINC20603808
REMARK  6 active torsions:
REMARK  status: ('A' for Active; 'I' for Inactive)
REMARK    1  A    between atoms: C_1  and  C_2
REMARK    2  A    between atoms: C_5  and  C_7
REMARK    3  A    between atoms: C_9  and  C_27
REMARK    4  A    between atoms: N_13  and  C_19
REMARK    5  A    between atoms: C_24  and  O_25
REMARK    6  A    between atoms: O_25  and  C_26
REMARK                            x       y       z     vdW  Elec       q    Type
REMARK                         _______ _______ _______ _____ _____    ______ ____
ROOT
ATOM      1  C   UNL     1      -0.021  -0.709  -3.510  0.00  0.00    +0.080 A 
ATOM      2  C   UNL     1      -0.003  -2.109  -3.543  0.00  0.00    +0.042 A 
ATOM      3  C   UNL     1       0.018  -2.811  -2.368  0.00  0.00    +0.073 A 
ATOM      4  C   UNL     1       0.019  -2.092  -1.170  0.00  0.00    +0.094 A 
ATOM      5  C   UNL     1      -0.000  -0.685  -1.201  0.00  0.00    +0.154 A 
ATOM      6  N   UNL     1      -0.019  -0.046  -2.357  0.00  0.00    -0.228 NA
ATOM      7  N   UNL     1       0.002  -0.004   0.002  0.00  0.00    -0.270 N 
ATOM      8  C   UNL     1       0.028  -0.688   1.180  0.00  0.00    +0.167 A 
ATOM      9  N   UNL     1       0.041  -2.002   1.246  0.00  0.00    -0.302 N 
ATOM     10  C   UNL     1       0.041  -2.762   0.141  0.00  0.00    +0.262 A 
ATOM     11  O   UNL     1       0.058  -3.979   0.220  0.00  0.00    -0.267 OA
ATOM     12  S   UNL     1       0.038   0.230   2.685  0.00  0.00    -0.012 S 
ATOM     13  H   UNL     1       0.052  -2.504   2.225  0.00  0.00    +0.171 HD
ENDROOT
BRANCH   1  18
ATOM     14  C   UNL     1      -0.096   1.276  -8.781  0.00  0.00    +0.051 C 
ATOM     15  C   UNL     1      -0.079   0.998  -7.300  0.00  0.00    -0.013 A 
ATOM     16  C   UNL     1      -0.081   1.880  -6.265  0.00  0.00    +0.011 A 
ATOM     17  C   UNL     1      -0.068   1.401  -4.976  0.00  0.00    +0.018 A 
ATOM     18  C   UNL     1      -0.042   0.044  -4.777  0.00  0.00    +0.038 A 
ATOM     19  S   UNL     1      -0.050  -0.573  -6.453  0.00  0.00    -0.092 S 
ENDBRANCH   1  18
BRANCH   7  20
ATOM     20  C   UNL     1      -0.017   1.398   0.010  0.00  0.00    +0.092 A 
ATOM     21  C   UNL     1      -1.227   2.077   0.019  0.00  0.00    +0.030 A 
ATOM     22  C   UNL     1      -1.243   3.459   0.033  0.00  0.00    +0.002 A 
ATOM     23  C   UNL     1      -0.056   4.168   0.025  0.00  0.00    +0.004 A 
ATOM     24  C   UNL     1       1.154   3.498   0.010  0.00  0.00    +0.048 A 
ATOM     25  C   UNL     1       1.179   2.112   0.002  0.00  0.00    +0.144 A 
BRANCH  25  26
ATOM     26  O   UNL     1       2.367   1.452  -0.012  0.00  0.00    -0.493 OA
ATOM     27  C   UNL     1       3.553   2.251  -0.019  0.00  0.00    +0.277 C 
ENDBRANCH  25  26
ENDBRANCH   7  20
BRANCH   3  28
ATOM     28  C   UNL     1       0.038  -4.318  -2.366  0.00  0.00    +0.418 C 
ATOM     29  F   UNL     1       0.032  -4.786  -3.685  0.00  0.00    -0.166 F 
ATOM     30  F   UNL     1       1.192  -4.769  -1.717  0.00  0.00    -0.166 F 
ATOM     31  F   UNL     1      -1.092  -4.799  -1.696  0.00  0.00    -0.166 F 
ENDBRANCH   3  28
TORSDOF 4
