REMARK  Name = ZINC09450062
REMARK  8 active torsions:
REMARK  status: ('A' for Active; 'I' for Inactive)
REMARK    1  A    between atoms: C_1  and  C_2
REMARK    2  A    between atoms: C_7  and  N_8
REMARK    3  A    between atoms: C_9  and  C_11
REMARK    4  A    between atoms: C_11  and  S_12
REMARK    5  A    between atoms: S_12  and  C_13
REMARK    6  A    between atoms: C_16  and  C_19
REMARK    7  A    between atoms: N_17  and  N_18
REMARK    8  A    between atoms: C_21  and  C_25
REMARK                            x       y       z     vdW  Elec       q    Type
REMARK                         _______ _______ _______ _____ _____    ______ ____
ROOT
ATOM      1  C   UNL     1      -0.386  -0.116   7.687  0.00  0.00    +0.209 A 
ATOM      2  N   UNL     1      -0.411   1.198   7.712  0.00  0.00    -0.120 NA
ATOM      3  N   UNL     1      -0.509   1.614   8.924  0.00  0.00    -0.125 NA
ATOM      4  C   UNL     1      -0.552   0.592   9.747  0.00  0.00    +0.202 A 
ATOM      5  N   UNL     1      -0.481  -0.547   8.980  0.00  0.00    -0.222 N 
ENDROOT
BRANCH   4   6
ATOM      6  C   UNL     1      -0.664   0.654  11.220  0.00  0.00    +0.132 A 
ATOM      7  C   UNL     1      -0.749   1.828  11.992  0.00  0.00    +0.061 A 
ATOM      8  C   UNL     1      -0.839   1.459  13.302  0.00  0.00    +0.066 A 
ATOM      9  N   UNL     1      -0.811   0.096  13.349  0.00  0.00    -0.276 N 
ATOM     10  H   UNL     1      -0.858  -0.448  14.151  0.00  0.00    +0.189 HD
ATOM     11  N   UNL     1      -0.707  -0.381  12.036  0.00  0.00    -0.170 NA
BRANCH   8  12
ATOM     12  C   UNL     1      -0.946   2.372  14.462  0.00  0.00    -0.000 A 
ATOM     13  C   UNL     1      -0.969   3.753  14.266  0.00  0.00    +0.011 A 
ATOM     14  C   UNL     1      -1.070   4.599  15.351  0.00  0.00    +0.020 A 
ATOM     15  C   UNL     1      -1.148   4.080  16.632  0.00  0.00    +0.041 A 
ATOM     16  C   UNL     1      -1.126   2.710  16.832  0.00  0.00    +0.020 A 
ATOM     17  C   UNL     1      -1.032   1.854  15.754  0.00  0.00    +0.011 A 
ATOM     18 CL   UNL     1      -1.274   5.151  17.992  0.00  0.00    -0.084 Cl
ENDBRANCH   8  12
ENDBRANCH   4   6
BRANCH   5  19
ATOM     19  N   UNL     1      -0.497  -1.841   9.419  0.00  0.00    -0.295 N 
ATOM     20  H   UNL     1       0.437  -2.170   9.609  0.00  0.00    +0.163 HD
ATOM     21  H   UNL     1      -1.088  -1.939  10.231  0.00  0.00    +0.163 HD
ENDBRANCH   5  19
BRANCH   1  22
ATOM     22  S   UNL     1      -0.260  -1.131   6.253  0.00  0.00    -0.075 S 
BRANCH  22  23
ATOM     23  C   UNL     1      -0.169   0.054   4.882  0.00  0.00    +0.173 C 
BRANCH  23  25
ATOM     24  N   UNL     1       0.025  -0.014   2.417  0.00  0.00    -0.285 N 
ATOM     25  C   UNL     1      -0.057  -0.693   3.578  0.00  0.00    +0.227 C 
ATOM     26  O   UNL     1      -0.040  -1.906   3.574  0.00  0.00    -0.275 OA
ATOM     27  H   UNL     1       0.077   0.955   2.425  0.00  0.00    +0.155 HD
BRANCH  24  34
ATOM     28  C   UNL     1      -1.265   1.183   0.181  0.00  0.00    +0.046 C 
ATOM     29  C   UNL     1      -0.584  -0.158   0.084  0.00  0.00    -0.028 A 
ATOM     30  C   UNL     1      -0.569  -0.841  -1.116  0.00  0.00    +0.025 A 
ATOM     31  C   UNL     1       0.056  -2.072  -1.206  0.00  0.00    +0.041 A 
ATOM     32  C   UNL     1       0.668  -2.623  -0.093  0.00  0.00    +0.022 A 
ATOM     33  C   UNL     1       0.656  -1.944   1.109  0.00  0.00    +0.025 A 
ATOM     34  C   UNL     1       0.034  -0.706   1.201  0.00  0.00    +0.036 A 
ATOM     35 CL   UNL     1       0.072  -2.928  -2.716  0.00  0.00    -0.084 Cl
ENDBRANCH  24  34
ENDBRANCH  23  25
ENDBRANCH  22  23
ENDBRANCH   1  22
TORSDOF 7
