REMARK  Name = ZINC06135310
REMARK  10 active torsions:
REMARK  status: ('A' for Active; 'I' for Inactive)
REMARK    1  A    between atoms: C_1  and  C_2
REMARK    2  A    between atoms: C_2  and  C_3
REMARK    3  A    between atoms: C_10  and  C_15
REMARK    4  A    between atoms: C_15  and  C_17
REMARK    5  A    between atoms: C_15  and  N_76
REMARK    6  A    between atoms: N_21  and  C_22
REMARK    7  A    between atoms: C_28  and  C_29
REMARK    8  A    between atoms: C_28  and  N_76
REMARK    9  A    between atoms: C_35  and  C_36
REMARK   10  A    between atoms: C_35  and  N_76
REMARK                            x       y       z     vdW  Elec       q    Type
REMARK                         _______ _______ _______ _____ _____    ______ ____
ROOT
ATOM      1  C   UNL     1       3.323   2.057  -1.959  0.00  0.00    +0.039 C 
ENDROOT
BRANCH   1   9
ATOM      2  C   UNL     1       8.813   4.768  -1.066  0.00  0.00    -0.047 A 
ATOM      3  C   UNL     1       8.560   5.210   0.226  0.00  0.00    +0.005 A 
ATOM      4  C   UNL     1       7.350   4.954   0.833  0.00  0.00    +0.026 A 
ATOM      5  C   UNL     1       6.369   4.245   0.145  0.00  0.00    +0.049 A 
ATOM      6  C   UNL     1       6.630   3.799  -1.164  0.00  0.00    -0.001 A 
ATOM      7  C   UNL     1       7.866   4.070  -1.760  0.00  0.00    +0.013 A 
ATOM      8  C   UNL     1       5.593   3.049  -1.877  0.00  0.00    +0.017 A 
ATOM      9  C   UNL     1       4.413   2.821  -1.251  0.00  0.00    +0.011 A 
ATOM     10  C   UNL     1       4.202   3.291   0.063  0.00  0.00    +0.251 A 
ATOM     11  O   UNL     1       3.135   3.070   0.609  0.00  0.00    -0.268 OA
ATOM     12  N   UNL     1       5.149   3.975   0.728  0.00  0.00    -0.322 N 
ATOM     13  H   UNL     1       4.966   4.294   1.658  0.00  0.00    +0.169 HD
BRANCH   2  15
ATOM     14  C   UNL     1      10.070   6.396  -2.452  0.00  0.00    +0.009 C 
ATOM     15  C   UNL     1      10.145   5.061  -1.708  0.00  0.00    +0.032 C 
ENDBRANCH   2  15
ENDBRANCH   1   9
BRANCH   1  16
ATOM     16  C   UNL     1       2.064   2.885  -1.984  0.00  0.00    +0.143 A 
ATOM     17  N   UNL     1       1.252   3.105  -0.980  0.00  0.00    -0.115 NA
ATOM     18  N   UNL     1       0.295   3.858  -1.399  0.00  0.00    -0.023 NA
ATOM     19  N   UNL     1       0.476   4.125  -2.646  0.00  0.00    -0.044 NA
ATOM     20  N   UNL     1       1.559   3.548  -3.041  0.00  0.00    -0.227 N 
BRANCH  20  21
ATOM     21  C   UNL     1       2.131   3.600  -4.389  0.00  0.00    +0.111 C 
ATOM     22  C   UNL     1       2.445   5.052  -4.754  0.00  0.00    +0.027 C 
ATOM     23  C   UNL     1       3.042   5.107  -6.162  0.00  0.00    +0.002 C 
ATOM     24  C   UNL     1       2.037   4.535  -7.164  0.00  0.00    +0.000 C 
ATOM     25  C   UNL     1       1.723   3.083  -6.800  0.00  0.00    +0.002 C 
ATOM     26  C   UNL     1       1.126   3.029  -5.392  0.00  0.00    +0.027 C 
ENDBRANCH  20  21
ENDBRANCH   1  16
BRANCH   1  27
ATOM     27  N   UNL     1       3.051   0.804  -1.224  0.00  0.00    +0.394 N 
ATOM     28  H   UNL     1       2.508   1.023  -0.381  0.00  0.00    -0.080 HD
BRANCH  27  29
ATOM     29  C   UNL     1       4.324   0.167  -0.823  0.00  0.00    -0.040 C 
BRANCH  29  30
ATOM     30  C   UNL     1       4.668   0.622   0.571  0.00  0.00    -0.046 A 
ATOM     31  C   UNL     1       3.717   0.579   1.579  0.00  0.00    +0.005 A 
ATOM     32  C   UNL     1       4.078   1.013   2.846  0.00  0.00    +0.020 A 
ATOM     33  C   UNL     1       5.367   1.462   3.062  0.00  0.00    +0.111 A 
ATOM     34  N   UNL     1       6.246   1.489   2.079  0.00  0.00    -0.263 NA
ATOM     35  C   UNL     1       5.936   1.089   0.861  0.00  0.00    +0.112 A 
ENDBRANCH  29  30
ENDBRANCH  27  29
BRANCH  27  36
ATOM     36  C   UNL     1       2.269  -0.120  -2.072  0.00  0.00    -0.045 C 
BRANCH  36  37
ATOM     37  C   UNL     1       0.795   0.284  -2.005  0.00  0.00    +0.102 C 
ATOM     38  C   UNL     1      -0.101  -0.864  -2.521  0.00  0.00    +0.032 C 
ATOM     39  C   UNL     1      -1.235  -0.142  -3.283  0.00  0.00    +0.030 C 
ATOM     40  C   UNL     1      -0.890   1.357  -3.137  0.00  0.00    +0.160 C 
ATOM     41  O   UNL     1       0.535   1.387  -2.901  0.00  0.00    -0.378 OA
ENDBRANCH  36  37
ENDBRANCH  27  36
ENDBRANCH   1  27
TORSDOF 9
