REMARK  Name = ZINC13032770
REMARK  12 active torsions:
REMARK  status: ('A' for Active; 'I' for Inactive)
REMARK    1  A    between atoms: C_1  and  C_2
REMARK    2  A    between atoms: C_5  and  C_38
REMARK    3  A    between atoms: C_9  and  C_14
REMARK    4  A    between atoms: C_14  and  N_67
REMARK    5  A    between atoms: C_15  and  C_16
REMARK    6  A    between atoms: C_15  and  N_67
REMARK    7  A    between atoms: C_19  and  O_22
REMARK    8  A    between atoms: O_22  and  C_23
REMARK    9  A    between atoms: C_24  and  C_25
REMARK   10  A    between atoms: C_24  and  N_67
REMARK   11  A    between atoms: N_29  and  C_30
REMARK   12  A    between atoms: C_30  and  C_31
REMARK                            x       y       z     vdW  Elec       q    Type
REMARK                         _______ _______ _______ _____ _____    ______ ____
ROOT
ATOM      1  N   UNL     1       1.849  -2.153  -1.677  0.00  0.00    +0.390 N 
ATOM      2  H   UNL     1       2.421  -1.523  -2.252  0.00  0.00    -0.080 HD
ENDROOT
BRANCH   1   3
ATOM      3  C   UNL     1       0.447  -2.084  -2.140  0.00  0.00    -0.036 C 
BRANCH   3  12
ATOM      4  C   UNL     1       0.351   1.650  -5.769  0.00  0.00    +0.044 C 
ATOM      5  C   UNL     1      -0.197   2.246  -4.498  0.00  0.00    -0.041 A 
ATOM      6  C   UNL     1      -0.603   3.551  -4.471  0.00  0.00    +0.004 A 
ATOM      7  C   UNL     1      -1.108   4.110  -3.305  0.00  0.00    +0.005 A 
ATOM      8  C   UNL     1      -1.211   3.361  -2.153  0.00  0.00    -0.026 A 
ATOM      9  C   UNL     1      -0.804   2.030  -2.156  0.00  0.00    +0.052 A 
ATOM     10  C   UNL     1      -0.292   1.467  -3.340  0.00  0.00    +0.002 A 
ATOM     11  C   UNL     1       0.134   0.066  -3.333  0.00  0.00    +0.017 A 
ATOM     12  C   UNL     1       0.019  -0.640  -2.182  0.00  0.00    +0.001 A 
ATOM     13  C   UNL     1      -0.507  -0.029  -1.023  0.00  0.00    +0.251 A 
ATOM     14  O   UNL     1      -0.606  -0.684   0.001  0.00  0.00    -0.268 OA
ATOM     15  N   UNL     1      -0.896   1.258  -1.018  0.00  0.00    -0.322 N 
ATOM     16  H   UNL     1      -1.249   1.647  -0.203  0.00  0.00    +0.169 HD
ATOM     17  C   UNL     1      -1.761   3.980  -0.894  0.00  0.00    +0.046 C 
ENDBRANCH   3  12
ENDBRANCH   1   3
BRANCH   1  18
ATOM     18  C   UNL     1       2.361  -3.532  -1.820  0.00  0.00    -0.042 C 
BRANCH  18  19
ATOM     19  C   UNL     1       2.468  -3.862  -3.286  0.00  0.00    -0.064 A 
ATOM     20  C   UNL     1       1.403  -4.453  -3.940  0.00  0.00    +0.005 A 
ATOM     21  C   UNL     1       1.496  -4.751  -5.286  0.00  0.00    +0.046 A 
ATOM     22  C   UNL     1       2.664  -4.467  -5.979  0.00  0.00    +0.120 A 
ATOM     23  C   UNL     1       3.733  -3.879  -5.319  0.00  0.00    +0.046 A 
ATOM     24  C   UNL     1       3.633  -3.578  -3.975  0.00  0.00    +0.005 A 
BRANCH  22  25
ATOM     25  O   UNL     1       2.760  -4.764  -7.301  0.00  0.00    -0.495 OA
ATOM     26  C   UNL     1       1.619  -5.368  -7.915  0.00  0.00    +0.277 C 
ENDBRANCH  22  25
ENDBRANCH  18  19
ENDBRANCH   1  18
BRANCH   1  27
ATOM     27  C   UNL     1       1.936  -1.725  -0.265  0.00  0.00    +0.001 C 
BRANCH  27  28
ATOM     28  C   UNL     1       3.385  -1.704   0.150  0.00  0.00    +0.135 A 
ATOM     29  N   UNL     1       4.084  -2.717   0.600  0.00  0.00    -0.115 NA
ATOM     30  N   UNL     1       5.278  -2.299   0.844  0.00  0.00    -0.023 NA
ATOM     31  N   UNL     1       5.358  -1.045   0.561  0.00  0.00    -0.044 NA
ATOM     32  N   UNL     1       4.211  -0.642   0.130  0.00  0.00    -0.227 N 
BRANCH  32  33
ATOM     33  C   UNL     1       3.872   0.717  -0.300  0.00  0.00    +0.182 C 
BRANCH  33  34
ATOM     34  C   UNL     1       4.343   0.928  -1.715  0.00  0.00    -0.026 A 
ATOM     35  C   UNL     1       5.636   1.357  -1.956  0.00  0.00    +0.008 A 
ATOM     36  C   UNL     1       6.071   1.547  -3.253  0.00  0.00    +0.038 A 
ATOM     37  C   UNL     1       5.209   1.318  -4.312  0.00  0.00    +0.123 A 
ATOM     38  C   UNL     1       3.914   0.894  -4.070  0.00  0.00    +0.038 A 
ATOM     39  C   UNL     1       3.482   0.700  -2.772  0.00  0.00    +0.008 A 
ATOM     40  F   UNL     1       5.632   1.508  -5.582  0.00  0.00    -0.205 F 
ENDBRANCH  33  34
ENDBRANCH  32  33
ENDBRANCH  27  28
ENDBRANCH   1  27
TORSDOF 9
