REMARK  Name = ZINC06693923
REMARK  6 active torsions:
REMARK  status: ('A' for Active; 'I' for Inactive)
REMARK    1  A    between atoms: C_1  and  C_2
REMARK    2  A    between atoms: C_2  and  C_3
REMARK    3  A    between atoms: C_6  and  C_8
REMARK    4  A    between atoms: C_9  and  C_22
REMARK    5  A    between atoms: C_10  and  N_21
REMARK    6  A    between atoms: C_11  and  C_19
REMARK                            x       y       z     vdW  Elec       q    Type
REMARK                         _______ _______ _______ _____ _____    ______ ____
ROOT
ATOM      1  C   UNL     1      -0.076   4.294   0.365  0.00  0.00    -0.007 C 
ATOM      2  C   UNL     1       1.101   3.637   0.041  0.00  0.00    +0.078 C 
ATOM      3  C   UNL     1       1.164   2.175   0.003  0.00  0.00    +0.060 C 
ATOM      4  C   UNL     1      -0.017   1.428   0.010  0.00  0.00    +0.077 C 
ATOM      5  C   UNL     1      -1.295   2.187   0.020  0.00  0.00    -0.025 C 
ATOM      6  C   UNL     1      -2.349   1.674  -0.592  0.00  0.00    -0.021 C 
ATOM      7  C   UNL     1      -3.651   2.429  -0.655  0.00  0.00    +0.027 C 
ATOM      8  C   UNL     1      -3.322   3.928  -0.713  0.00  0.00    +0.005 C 
ATOM      9  C   UNL     1      -2.570   4.306   0.575  0.00  0.00    +0.013 C 
ATOM     10  C   UNL     1      -1.300   3.505   0.736  0.00  0.00    +0.052 C 
ENDROOT
BRANCH   1  14
ATOM     11  C   UNL     1      -0.293   8.322   0.813  0.00  0.00    -0.010 A 
ATOM     12  C   UNL     1      -0.078   7.912  -0.466  0.00  0.00    +0.012 A 
ATOM     13  C   UNL     1       0.018   6.572  -0.733  0.00  0.00    +0.016 A 
ATOM     14  C   UNL     1      -0.125   5.701   0.347  0.00  0.00    +0.017 A 
ATOM     15  S   UNL     1      -0.377   6.835   1.700  0.00  0.00    -0.093 S 
BRANCH  11  17
ATOM     16  C   UNL     1      -1.895  10.155   1.287  0.00  0.00    +0.009 C 
ATOM     17  C   UNL     1      -0.426   9.730   1.334  0.00  0.00    +0.039 C 
ENDBRANCH  11  17
ENDBRANCH   1  14
BRANCH   3  18
ATOM     18  N   UNL     1       2.385   1.536  -0.041  0.00  0.00    -0.356 N 
ATOM     19  H   UNL     1       2.431   0.438  -0.070  0.00  0.00    +0.142 HD
ATOM     20  H   UNL     1       3.314   2.126  -0.047  0.00  0.00    +0.142 HD
ENDBRANCH   3  18
BRANCH   4  21
ATOM     21  C   UNL     1       0.002  -0.004   0.002  0.00  0.00    +0.101 C 
ATOM     22  N   UNL     1       0.018  -1.140  -0.004  0.00  0.00    -0.191 NA
ENDBRANCH   4  21
BRANCH   2  23
ATOM     23  C   UNL     1       2.274   4.401  -0.262  0.00  0.00    +0.101 C 
ATOM     24  N   UNL     1       3.205   5.006  -0.501  0.00  0.00    -0.191 NA
ENDBRANCH   2  23
TORSDOF 5
