REMARK  Name = ZINC39413638
REMARK  7 active torsions:
REMARK  status: ('A' for Active; 'I' for Inactive)
REMARK    1  A    between atoms: C_1  and  C_2
REMARK    2  A    between atoms: C_7  and  N_8
REMARK    3  A    between atoms: C_9  and  C_11
REMARK    4  A    between atoms: C_12  and  C_31
REMARK    5  A    between atoms: C_19  and  C_21
REMARK    6  A    between atoms: C_26  and  O_27
REMARK    7  A    between atoms: O_27  and  C_28
REMARK                            x       y       z     vdW  Elec       q    Type
REMARK                         _______ _______ _______ _____ _____    ______ ____
ROOT
ATOM      1  C   UNL     1      -0.183   0.273   4.444  0.00  0.00    +0.060 C 
ATOM      2  C   UNL     1      -0.132  -0.519   5.526  0.00  0.00    +0.018 C 
ATOM      3  N   UNL     1       0.018  -0.015   6.795  0.00  0.00    -0.287 N 
ATOM      4  C   UNL     1       0.380   1.320   6.913  0.00  0.00    +0.218 A 
ATOM      5  N   UNL     1       0.797   1.990   7.952  0.00  0.00    -0.201 NA
ATOM      6  C   UNL     1       1.035   3.258   7.601  0.00  0.00    +0.247 A 
ATOM      7  N   UNL     1       0.768   3.409   6.327  0.00  0.00    -0.156 NA
ATOM      8  N   UNL     1       0.338   2.169   5.857  0.00  0.00    -0.221 N 
ATOM      9  C   UNL     1      -0.087   1.773   4.518  0.00  0.00    +0.181 C 
ATOM     10  C   UNL     1      -0.245  -2.010   5.343  0.00  0.00    +0.061 C 
ATOM     11  H   UNL     1      -0.122  -0.571   7.577  0.00  0.00    +0.155 HD
ENDROOT
BRANCH   9  12
ATOM     12  C   UNL     1      -1.436   2.378   4.225  0.00  0.00    +0.023 A 
ATOM     13  C   UNL     1      -2.494   2.159   5.087  0.00  0.00    +0.009 A 
ATOM     14  C   UNL     1      -3.731   2.713   4.818  0.00  0.00    +0.001 A 
ATOM     15  C   UNL     1      -3.914   3.488   3.688  0.00  0.00    +0.004 A 
ATOM     16  C   UNL     1      -2.859   3.711   2.824  0.00  0.00    +0.046 A 
ATOM     17  C   UNL     1      -1.615   3.160   3.094  0.00  0.00    +0.132 A 
BRANCH  17  18
ATOM     18  O   UNL     1      -0.574   3.383   2.248  0.00  0.00    -0.434 OA
BRANCH  18  19
ATOM     19  C   UNL     1      -0.823   4.224   1.121  0.00  0.00    +0.541 C 
ATOM     20  F   UNL     1      -1.804   3.642   0.311  0.00  0.00    -0.166 F 
ATOM     21  F   UNL     1      -1.265   5.476   1.562  0.00  0.00    -0.166 F 
ENDBRANCH  18  19
ENDBRANCH  17  18
ENDBRANCH   9  12
BRANCH   1  23
ATOM     22  N   UNL     1      -1.544  -0.734   2.753  0.00  0.00    -0.281 N 
ATOM     23  C   UNL     1      -0.328  -0.332   3.173  0.00  0.00    +0.248 C 
ATOM     24  O   UNL     1       0.646  -0.488   2.459  0.00  0.00    -0.270 OA
ATOM     25  H   UNL     1      -2.329  -0.548   3.291  0.00  0.00    +0.155 HD
BRANCH  22  32
ATOM     26  C   UNL     1      -4.118  -0.856   1.547  0.00  0.00    +0.045 C 
ATOM     27  C   UNL     1      -2.911  -1.503   0.917  0.00  0.00    -0.029 A 
ATOM     28  C   UNL     1      -3.034  -2.175  -0.283  0.00  0.00    +0.005 A 
ATOM     29  C   UNL     1      -1.928  -2.769  -0.861  0.00  0.00    +0.000 A 
ATOM     30  C   UNL     1      -0.694  -2.692  -0.240  0.00  0.00    +0.002 A 
ATOM     31  C   UNL     1      -0.564  -2.022   0.960  0.00  0.00    +0.023 A 
ATOM     32  C   UNL     1      -1.673  -1.419   1.540  0.00  0.00    +0.037 A 
ENDBRANCH  22  32
ENDBRANCH   1  23
TORSDOF 5
