REMARK  Name = ZINC08778841
REMARK  3 active torsions:
REMARK  status: ('A' for Active; 'I' for Inactive)
REMARK    1  A    between atoms: C_1  and  C_2
REMARK    2  A    between atoms: C_5  and  C_8
REMARK    3  A    between atoms: C_9  and  C_14
REMARK                            x       y       z     vdW  Elec       q    Type
REMARK                         _______ _______ _______ _____ _____    ______ ____
ROOT
ATOM      1  C   UNL     1      -3.906   2.506   3.117  0.00  0.00    +0.072 A 
ATOM      2  C   UNL     1      -3.556   1.547   2.208  0.00  0.00    +0.036 A 
ATOM      3  C   UNL     1      -2.850   0.553   2.886  0.00  0.00    +0.141 A 
ATOM      4  N   UNL     1      -2.763   0.889   4.148  0.00  0.00    -0.181 NA
ATOM      5  N   UNL     1      -3.421   2.112   4.329  0.00  0.00    -0.277 N 
ATOM      6  H   UNL     1      -3.517   2.608   5.191  0.00  0.00    +0.189 HD
ENDROOT
BRANCH   2   7
ATOM      7  C   UNL     1      -3.881   1.559   0.737  0.00  0.00    +0.193 C 
ATOM      8  N   UNL     1      -5.231   1.018   0.533  0.00  0.00    -0.322 N 
ATOM      9  C   UNL     1      -5.418  -0.356   0.619  0.00  0.00    +0.041 A 
ATOM     10  C   UNL     1      -6.613  -0.907   1.048  0.00  0.00    +0.024 A 
ATOM     11  C   UNL     1      -6.743  -2.281   1.129  0.00  0.00    +0.002 A 
ATOM     12  C   UNL     1      -5.684  -3.110   0.790  0.00  0.00    +0.001 A 
ATOM     13  C   UNL     1      -4.485  -2.576   0.365  0.00  0.00    +0.015 A 
ATOM     14  C   UNL     1      -4.341  -1.194   0.278  0.00  0.00    +0.058 A 
ATOM     15  C   UNL     1      -3.084  -0.571  -0.175  0.00  0.00    +0.247 C 
ATOM     16  O   UNL     1      -2.226  -1.242  -0.716  0.00  0.00    -0.270 OA
ATOM     17  N   UNL     1      -2.897   0.751   0.017  0.00  0.00    -0.289 N 
ATOM     18  H   UNL     1      -5.976   1.607   0.338  0.00  0.00    +0.148 HD
ATOM     19  H   UNL     1      -2.095   1.173  -0.328  0.00  0.00    +0.151 HD
ENDBRANCH   2   7
BRANCH   1  24
ATOM     20  C   UNL     1      -6.880   7.312   2.031  0.00  0.00    +0.044 C 
ATOM     21  C   UNL     1      -6.101   6.054   2.315  0.00  0.00    -0.050 A 
ATOM     22  C   UNL     1      -6.456   5.252   3.385  0.00  0.00    +0.004 A 
ATOM     23  C   UNL     1      -5.747   4.098   3.651  0.00  0.00    +0.010 A 
ATOM     24  C   UNL     1      -4.671   3.741   2.838  0.00  0.00    +0.000 A 
ATOM     25  C   UNL     1      -4.315   4.558   1.764  0.00  0.00    +0.010 A 
ATOM     26  C   UNL     1      -5.035   5.705   1.505  0.00  0.00    +0.004 A 
ENDBRANCH   1  24
TORSDOF 2
