REMARK  Name = ZINC05800904
REMARK  3 active torsions:
REMARK  status: ('A' for Active; 'I' for Inactive)
REMARK    1  A    between atoms: C_9  and  C_11
REMARK    2  A    between atoms: N_21  and  C_22
REMARK    3  A    between atoms: C_25  and  C_28
REMARK                            x       y       z     vdW  Elec       q    Type
REMARK                         _______ _______ _______ _____ _____    ______ ____
ROOT
ATOM      1  C   UNL     1       4.037  -2.774   0.791  0.00  0.00    +0.078 A 
ATOM      2  C   UNL     1       3.283  -3.847   1.241  0.00  0.00    +0.028 A 
ATOM      3  C   UNL     1       3.817  -5.191   1.007  0.00  0.00    +0.019 A 
ATOM      4  C   UNL     1       3.012  -6.323   1.183  0.00  0.00    +0.026 A 
ATOM      5  C   UNL     1       3.539  -7.575   0.952  0.00  0.00    +0.019 A 
ATOM      6  C   UNL     1       4.859  -7.717   0.547  0.00  0.00    +0.019 A 
ATOM      7  C   UNL     1       5.665  -6.610   0.372  0.00  0.00    +0.048 A 
ATOM      8  C   UNL     1       5.156  -5.340   0.599  0.00  0.00    +0.137 A 
ATOM      9  O   UNL     1       5.937  -4.244   0.437  0.00  0.00    -0.439 OA
ATOM     10  C   UNL     1       5.309  -3.084   0.111  0.00  0.00    +0.210 A 
ATOM     11  N   UNL     1       5.820  -2.260  -0.782  0.00  0.00    -0.325 N 
ATOM     12 BR   UNL     1       2.458  -9.108   1.189  0.00  0.00    -0.050 Br
ATOM     13  H   UNL     1       6.710  -2.417  -1.133  0.00  0.00    +0.169 HD
ENDROOT
BRANCH   1  22
ATOM     14  C   UNL     1       1.665   2.715   1.297  0.00  0.00    +0.002 A 
ATOM     15  C   UNL     1       2.898   2.996   1.867  0.00  0.00    +0.002 A 
ATOM     16  C   UNL     1       3.848   2.021   1.989  0.00  0.00    +0.030 A 
ATOM     17  C   UNL     1       3.578   0.725   1.537  0.00  0.00    +0.089 A 
ATOM     18  C   UNL     1       2.327   0.441   0.960  0.00  0.00    +0.066 A 
ATOM     19  C   UNL     1       1.376   1.445   0.844  0.00  0.00    +0.028 A 
ATOM     20  N   UNL     1       2.356  -0.897   0.615  0.00  0.00    -0.338 N 
ATOM     21  H   UNL     1       1.640  -1.399   0.195  0.00  0.00    +0.167 HD
ATOM     22  C   UNL     1       3.584  -1.382   0.979  0.00  0.00    +0.144 A 
ATOM     23  N   UNL     1       4.298  -0.423   1.520  0.00  0.00    -0.228 NA
ENDBRANCH   1  22
BRANCH  11  24
ATOM     24  C   UNL     1       5.098  -1.189  -1.211  0.00  0.00    +0.042 A 
ATOM     25  C   UNL     1       5.614   0.106  -1.071  0.00  0.00    +0.026 A 
ATOM     26  C   UNL     1       4.890   1.179  -1.502  0.00  0.00    +0.015 A 
ATOM     27  C   UNL     1       3.632   0.987  -2.084  0.00  0.00    +0.037 A 
ATOM     28  C   UNL     1       3.116  -0.306  -2.224  0.00  0.00    +0.015 A 
ATOM     29  C   UNL     1       3.841  -1.381  -1.799  0.00  0.00    +0.026 A 
BRANCH  27  30
ATOM     30  C   UNL     1       2.850   2.147  -2.548  0.00  0.00    +0.242 C 
ATOM     31  O   UNL     1       3.299   3.270  -2.426  0.00  0.00    -0.270 OA
ATOM     32  N   UNL     1       1.639   1.962  -3.109  0.00  0.00    -0.325 N 
ATOM     33  H   UNL     1       1.281   1.065  -3.206  0.00  0.00    +0.145 HD
ATOM     34  H   UNL     1       1.124   2.725  -3.414  0.00  0.00    +0.145 HD
ENDBRANCH  27  30
ENDBRANCH  11  24
TORSDOF 3
