REMARK  Name = ZINC19831223
REMARK  12 active torsions:
REMARK  status: ('A' for Active; 'I' for Inactive)
REMARK    1  A    between atoms: C_1  and  C_2
REMARK    2  A    between atoms: C_3  and  C_26
REMARK    3  A    between atoms: C_4  and  C_14
REMARK    4  A    between atoms: C_16  and  O_24
REMARK    5  A    between atoms: C_17  and  O_22
REMARK    6  A    between atoms: C_18  and  O_20
REMARK    7  A    between atoms: O_20  and  C_21
REMARK    8  A    between atoms: O_22  and  C_23
REMARK    9  A    between atoms: O_24  and  C_25
REMARK   10  A    between atoms: N_28  and  C_29
REMARK   11  A    between atoms: C_34  and  O_35
REMARK   12  A    between atoms: O_35  and  C_36
REMARK                            x       y       z     vdW  Elec       q    Type
REMARK                         _______ _______ _______ _____ _____    ______ ____
ROOT
ATOM      1  C   UNL     1      -2.503   1.258  -0.031  0.00  0.00    +0.061 C 
ATOM      2  C   UNL     1      -1.224   2.053  -0.005  0.00  0.00    +0.014 C 
ATOM      3  C   UNL     1      -0.042   1.415   0.017  0.00  0.00    +0.043 C 
ATOM      4  C   UNL     1       1.252   2.174   0.044  0.00  0.00    +0.090 C 
ATOM      5  C   UNL     1       1.048   3.607  -0.378  0.00  0.00    +0.024 C 
ATOM      6  C   UNL     1      -0.184   4.159  -0.374  0.00  0.00    +0.015 C 
ATOM      7  N   UNL     1      -1.274   3.420   0.002  0.00  0.00    -0.321 N 
ATOM      8  C   UNL     1      -0.394   5.595  -0.783  0.00  0.00    +0.051 C 
ATOM      9  C   UNL     1       0.653   5.990  -1.827  0.00  0.00    +0.014 C 
ATOM     10  C   UNL     1       2.045   5.779  -1.224  0.00  0.00    +0.080 C 
ATOM     11  C   UNL     1       2.174   4.349  -0.777  0.00  0.00    +0.162 C 
ATOM     12  O   UNL     1       3.270   3.825  -0.761  0.00  0.00    -0.292 OA
ATOM     13  H   UNL     1      -2.195   3.936   0.310  0.00  0.00    +0.152 HD
ENDROOT
BRANCH   4  14
ATOM     14  C   UNL     1       1.813   2.145   1.443  0.00  0.00    -0.028 A 
ATOM     15  C   UNL     1       1.086   2.685   2.488  0.00  0.00    +0.054 A 
ATOM     16  C   UNL     1       1.596   2.655   3.777  0.00  0.00    +0.165 A 
ATOM     17  C   UNL     1       2.844   2.093   4.016  0.00  0.00    +0.204 A 
ATOM     18  C   UNL     1       3.574   1.557   2.962  0.00  0.00    +0.165 A 
ATOM     19  C   UNL     1       3.054   1.585   1.676  0.00  0.00    +0.054 A 
BRANCH  18  20
ATOM     20  O   UNL     1       4.796   1.006   3.191  0.00  0.00    -0.491 OA
ATOM     21  C   UNL     1       5.489   0.473   2.060  0.00  0.00    +0.277 C 
ENDBRANCH  18  20
BRANCH  17  22
ATOM     22  O   UNL     1       3.351   2.068   5.279  0.00  0.00    -0.488 OA
ATOM     23  C   UNL     1       4.139   3.189   5.684  0.00  0.00    +0.277 C 
ENDBRANCH  17  22
BRANCH  16  24
ATOM     24  O   UNL     1       0.878   3.181   4.805  0.00  0.00    -0.491 OA
ATOM     25  C   UNL     1      -0.397   3.742   4.486  0.00  0.00    +0.277 C 
ENDBRANCH  16  24
ENDBRANCH   4  14
BRANCH   3  26
ATOM     26  C   UNL     1      -0.017  -0.001   0.007  0.00  0.00    +0.247 C 
ATOM     27  O   UNL     1       0.201  -0.600  -1.030  0.00  0.00    -0.270 OA
ATOM     28  N   UNL     1      -0.235  -0.686   1.147  0.00  0.00    -0.279 N 
ATOM     29  H   UNL     1      -0.497  -0.149   2.071  0.00  0.00    +0.155 HD
BRANCH  28  30
ATOM     30  C   UNL     1      -0.127  -2.083   1.157  0.00  0.00    +0.076 A 
ATOM     31  C   UNL     1      -0.325  -2.803  -0.013  0.00  0.00    +0.027 A 
ATOM     32  C   UNL     1      -0.218  -4.181  -0.001  0.00  0.00    +0.002 A 
ATOM     33  C   UNL     1       0.086  -4.845   1.174  0.00  0.00    +0.004 A 
ATOM     34  C   UNL     1       0.284  -4.133   2.342  0.00  0.00    +0.047 A 
ATOM     35  C   UNL     1       0.184  -2.752   2.338  0.00  0.00    +0.141 A 
BRANCH  35  36
ATOM     36  O   UNL     1       0.385  -2.050   3.486  0.00  0.00    -0.493 OA
ATOM     37  C   UNL     1       0.700  -2.803   4.659  0.00  0.00    +0.277 C 
ENDBRANCH  35  36
ENDBRANCH  28  30
ENDBRANCH   3  26
TORSDOF 7
