REMARK  Name = ZINC33318037
REMARK  11 active torsions:
REMARK  status: ('A' for Active; 'I' for Inactive)
REMARK    1  A    between atoms: C_1  and  C_2
REMARK    2  A    between atoms: C_2  and  C_3
REMARK    3  A    between atoms: C_6  and  N_33
REMARK    4  A    between atoms: C_7  and  C_9
REMARK    5  A    between atoms: N_12  and  C_20
REMARK    6  A    between atoms: C_20  and  C_22
REMARK    7  A    between atoms: C_20  and  C_23
REMARK    8  A    between atoms: N_25  and  C_26
REMARK    9  A    between atoms: C_31  and  C_32
REMARK   10  A    between atoms: C_34  and  C_36
REMARK   11  A    between atoms: C_36  and  C_37
REMARK                            x       y       z     vdW  Elec       q    Type
REMARK                         _______ _______ _______ _____ _____    ______ ____
ROOT
ATOM      1  C   UNL     1      -0.032  -0.145   0.024  0.00  0.00    +0.138 A 
ATOM      2  C   UNL     1       0.002   1.318   0.212  0.00  0.00    +0.279 A 
ATOM      3  O   UNL     1      -1.015   1.928   0.485  0.00  0.00    -0.265 OA
ATOM      4  N   UNL     1       1.176   1.972   0.071  0.00  0.00    -0.293 N 
ATOM      5  C   UNL     1       2.312   1.251  -0.246  0.00  0.00    +0.071 A 
ATOM      6  C   UNL     1       3.533   1.900  -0.398  0.00  0.00    +0.028 A 
ATOM      7  C   UNL     1       4.662   1.174  -0.713  0.00  0.00    +0.002 A 
ATOM      8  C   UNL     1       4.590  -0.202  -0.881  0.00  0.00    +0.002 A 
ATOM      9  C   UNL     1       3.404  -0.860  -0.738  0.00  0.00    +0.030 A 
ATOM     10  C   UNL     1       2.239  -0.145  -0.417  0.00  0.00    +0.088 A 
ATOM     11  N   UNL     1       1.069  -0.793  -0.276  0.00  0.00    -0.240 NA
ENDROOT
BRANCH   1  16
ATOM     12  C   UNL     1      -2.662  -2.473   1.354  0.00  0.00    -0.047 A 
ATOM     13  C   UNL     1      -3.694  -2.261   0.456  0.00  0.00    +0.005 A 
ATOM     14  C   UNL     1      -3.543  -1.364  -0.584  0.00  0.00    +0.024 A 
ATOM     15  C   UNL     1      -2.352  -0.668  -0.734  0.00  0.00    +0.043 A 
ATOM     16  C   UNL     1      -1.305  -0.880   0.174  0.00  0.00    +0.027 A 
ATOM     17  C   UNL     1      -1.470  -1.793   1.217  0.00  0.00    +0.015 A 
BRANCH  15  18
ATOM     18  N   UNL     1      -2.198   0.239  -1.783  0.00  0.00    -0.285 N 
ATOM     19  C   UNL     1      -3.256   0.949  -2.221  0.00  0.00    +0.217 C 
ATOM     20  O   UNL     1      -4.320   0.870  -1.645  0.00  0.00    -0.275 OA
ATOM     21  H   UNL     1      -1.212   0.374  -2.252  0.00  0.00    +0.155 HD
BRANCH  19  22
ATOM     22  C   UNL     1      -3.117   1.841  -3.428  0.00  0.00    +0.093 C 
ATOM     23  C   UNL     1      -4.455   2.528  -3.711  0.00  0.00    +0.013 C 
ENDBRANCH  19  22
ENDBRANCH  15  18
BRANCH  12  25
ATOM     24  C   UNL     1      -2.387  -4.843   2.028  0.00  0.00    +0.009 C 
ATOM     25  C   UNL     1      -2.840  -3.454   2.483  0.00  0.00    +0.032 C 
ENDBRANCH  12  25
ENDBRANCH   1  16
BRANCH   4  26
ATOM     26  C   UNL     1       1.244   3.424   0.250  0.00  0.00    +0.174 C 
ATOM     27  C   UNL     1       0.243   4.101  -0.689  0.00  0.00    +0.041 C 
BRANCH  26  28
ATOM     28  C   UNL     1       0.907   3.770   1.677  0.00  0.00    +0.240 C 
ATOM     29  O   UNL     1       0.636   2.890   2.467  0.00  0.00    -0.273 OA
ATOM     30  N   UNL     1       0.905   5.057   2.076  0.00  0.00    -0.284 N 
ATOM     31  H   UNL     1       1.081   5.860   1.345  0.00  0.00    +0.155 HD
BRANCH  30  32
ATOM     32  C   UNL     1       0.681   5.373   3.421  0.00  0.00    +0.036 A 
ATOM     33  C   UNL     1      -0.188   4.601   4.181  0.00  0.00    +0.023 A 
ATOM     34  C   UNL     1      -0.403   4.912   5.510  0.00  0.00    +0.002 A 
ATOM     35  C   UNL     1       0.237   5.997   6.080  0.00  0.00    +0.000 A 
ATOM     36  C   UNL     1       1.099   6.771   5.324  0.00  0.00    +0.005 A 
ATOM     37  C   UNL     1       1.322   6.462   3.997  0.00  0.00    -0.029 A 
ATOM     38  C   UNL     1       2.261   7.306   3.174  0.00  0.00    +0.045 C 
ENDBRANCH  30  32
ENDBRANCH  26  28
ENDBRANCH   4  26
TORSDOF 7
