REMARK  Name = ZINC25679596
REMARK  9 active torsions:
REMARK  status: ('A' for Active; 'I' for Inactive)
REMARK    1  A    between atoms: C_1  and  C_2
REMARK    2  A    between atoms: C_2  and  C_3
REMARK    3  A    between atoms: C_6  and  C_9
REMARK    4  A    between atoms: C_11  and  C_14
REMARK    5  A    between atoms: C_14  and  C_15
REMARK    6  A    between atoms: C_15  and  C_16
REMARK    7  A    between atoms: N_18  and  C_19
REMARK    8  A    between atoms: C_19  and  C_20
REMARK    9  A    between atoms: N_22  and  C_23
REMARK                            x       y       z     vdW  Elec       q    Type
REMARK                         _______ _______ _______ _____ _____    ______ ____
ROOT
ATOM      1  C   UNL     1       3.671   1.508   0.008  0.00  0.00    +0.214 C 
ATOM      2  O   UNL     1       3.877   2.703   0.018  0.00  0.00    -0.276 OA
ATOM      3  N   UNL     1       2.406   1.042   0.007  0.00  0.00    -0.307 N 
ATOM      4  H   UNL     1       2.220  -0.042  -0.002  0.00  0.00    +0.149 HD
ENDROOT
BRANCH   1   5
ATOM      5  C   UNL     1       4.829   0.544  -0.004  0.00  0.00    +0.105 C 
BRANCH   5   6
ATOM      6  C   UNL     1       6.144   1.326  -0.000  0.00  0.00    +0.108 C 
BRANCH   6   9
ATOM      7  C   UNL     1       8.870  -0.939  -0.599  0.00  0.00    +0.202 A 
ATOM      8  N   UNL     1       7.898  -0.127  -1.071  0.00  0.00    -0.191 NA
ATOM      9  C   UNL     1       7.302   0.362  -0.011  0.00  0.00    +0.228 A 
ATOM     10  O   UNL     1       7.919  -0.151   1.058  0.00  0.00    -0.338 OA
ATOM     11  N   UNL     1       8.809  -0.897   0.706  0.00  0.00    -0.056 NA
BRANCH   7  15
ATOM     12  C   UNL     1      11.611  -3.211  -2.925  0.00  0.00    -0.048 A 
ATOM     13  C   UNL     1      11.669  -3.265  -1.544  0.00  0.00    +0.004 A 
ATOM     14  C   UNL     1      10.781  -2.530  -0.784  0.00  0.00    +0.012 A 
ATOM     15  C   UNL     1       9.827  -1.731  -1.411  0.00  0.00    +0.022 A 
ATOM     16  C   UNL     1       9.771  -1.684  -2.802  0.00  0.00    +0.012 A 
ATOM     17  C   UNL     1      10.666  -2.419  -3.552  0.00  0.00    +0.004 A 
BRANCH  12  19
ATOM     18  C   UNL     1      11.988  -5.396  -4.034  0.00  0.00    +0.009 C 
ATOM     19  C   UNL     1      12.582  -4.016  -3.749  0.00  0.00    +0.032 C 
ENDBRANCH  12  19
ENDBRANCH   7  15
ENDBRANCH   6   9
ENDBRANCH   5   6
ENDBRANCH   1   5
BRANCH   3  20
ATOM     20  C   UNL     1       1.280   1.979   0.018  0.00  0.00    +0.200 C 
BRANCH  20  21
ATOM     21  C   UNL     1      -0.015   1.208   0.015  0.00  0.00    +0.234 C 
ATOM     22  O   UNL     1       0.001  -0.004   0.004  0.00  0.00    -0.274 OA
ATOM     23  N   UNL     1      -1.191   1.867   0.018  0.00  0.00    -0.283 N 
ATOM     24  H   UNL     1      -1.207   2.963   0.102  0.00  0.00    +0.155 HD
BRANCH  23  25
ATOM     25  C   UNL     1      -2.391   1.155  -0.086  0.00  0.00    +0.047 A 
ATOM     26  C   UNL     1      -2.510  -0.099   0.499  0.00  0.00    +0.024 A 
ATOM     27  C   UNL     1      -3.698  -0.796   0.399  0.00  0.00    +0.002 A 
ATOM     28  C   UNL     1      -4.765  -0.252  -0.291  0.00  0.00    +0.001 A 
ATOM     29  C   UNL     1      -4.649   0.994  -0.880  0.00  0.00    +0.017 A 
ATOM     30  C   UNL     1      -3.465   1.699  -0.779  0.00  0.00    +0.039 A 
ATOM     31 BR   UNL     1      -3.307   3.402  -1.585  0.00  0.00    -0.048 Br
ENDBRANCH  23  25
ENDBRANCH  20  21
ENDBRANCH   3  20
TORSDOF 8
