REMARK  Name = ZINC15708009
REMARK  9 active torsions:
REMARK  status: ('A' for Active; 'I' for Inactive)
REMARK    1  A    between atoms: C_1  and  S_2
REMARK    2  A    between atoms: S_2  and  C_3
REMARK    3  A    between atoms: C_7  and  N_9
REMARK    4  A    between atoms: N_12  and  C_13
REMARK    5  A    between atoms: C_22  and  C_25
REMARK    6  A    between atoms: C_25  and  C_26
REMARK    7  A    between atoms: C_26  and  C_27
REMARK    8  A    between atoms: N_29  and  C_30
REMARK    9  A    between atoms: C_30  and  C_31
REMARK                            x       y       z     vdW  Elec       q    Type
REMARK                         _______ _______ _______ _____ _____    ______ ____
ROOT
ATOM      1  C   UNL     1      -1.359   1.799   3.395  0.00  0.00    +0.057 C 
ATOM      2  C   UNL     1      -2.615   1.427   2.564  0.00  0.00    +0.014 C 
ATOM      3  C   UNL     1      -2.043   0.904   1.246  0.00  0.00    +0.021 C 
ATOM      4  C   UNL     1      -2.853   1.196   0.026  0.00  0.00    +0.200 C 
ATOM      5  O   UNL     1      -4.063   1.235   0.087  0.00  0.00    -0.278 OA
ATOM      6  N   UNL     1      -2.220   1.415  -1.143  0.00  0.00    -0.318 N 
ATOM      7  C   UNL     1      -0.775   1.514  -1.296  0.00  0.00    +0.089 C 
ATOM      8  C   UNL     1      -0.027   1.095  -0.022  0.00  0.00    -0.050 C 
ATOM      9  C   UNL     1      -0.158   1.534   2.444  0.00  0.00    -0.055 C 
ATOM     10  H   UNL     1      -2.766   1.514  -1.939  0.00  0.00    +0.149 HD
ATOM     11  N   UNL     1      -0.820   1.649   1.135  0.00  0.00    +0.391 N 
ATOM     12  H   UNL     1      -1.021   2.638   0.949  0.00  0.00    -0.080 HD
ENDROOT
BRANCH   1  16
ATOM     13  N   UNL     1      -0.776   4.935   5.224  0.00  0.00    -0.269 N 
ATOM     14  C   UNL     1      -0.736   3.635   4.871  0.00  0.00    +0.304 C 
ATOM     15  O   UNL     1      -0.098   2.844   5.539  0.00  0.00    -0.253 OA
ATOM     16  N   UNL     1      -1.402   3.213   3.779  0.00  0.00    -0.298 N 
ATOM     17  H   UNL     1      -1.338   5.554   4.732  0.00  0.00    +0.156 HD
ATOM     18  H   UNL     1      -1.911   3.844   3.247  0.00  0.00    +0.150 HD
BRANCH  13  23
ATOM     19  C   UNL     1       0.961   5.034   8.470  0.00  0.00    +0.009 A 
ATOM     20  C   UNL     1       1.519   6.307   8.427  0.00  0.00    +0.015 A 
ATOM     21  C   UNL     1       1.314   7.115   7.326  0.00  0.00    +0.003 A 
ATOM     22  C   UNL     1       0.554   6.663   6.264  0.00  0.00    +0.023 A 
ATOM     23  C   UNL     1      -0.007   5.392   6.300  0.00  0.00    +0.036 A 
ATOM     24  C   UNL     1       0.192   4.579   7.407  0.00  0.00    +0.038 A 
BRANCH  19  26
ATOM     25  C   UNL     1       2.255   5.011  10.973  0.00  0.00    +0.090 C 
ATOM     26  S   UNL     1       1.222   4.003   9.874  0.00  0.00    -0.129 S 
ENDBRANCH  19  26
ENDBRANCH  13  23
ENDBRANCH   1  16
BRANCH   8  27
ATOM     27  C   UNL     1       1.396   1.656  -0.045  0.00  0.00    -0.005 C 
BRANCH  27  28
ATOM     28  C   UNL     1       2.181   1.009  -1.188  0.00  0.00    +0.094 C 
BRANCH  28  29
ATOM     29  C   UNL     1       3.615   1.468  -1.135  0.00  0.00    +0.213 C 
ATOM     30  O   UNL     1       3.974   2.238  -0.270  0.00  0.00    -0.276 OA
ATOM     31  N   UNL     1       4.499   1.024  -2.050  0.00  0.00    -0.311 N 
ATOM     32  H   UNL     1       4.212   0.408  -2.743  0.00  0.00    +0.149 HD
BRANCH  31  33
ATOM     33  C   UNL     1       5.893   1.471  -2.000  0.00  0.00    +0.146 C 
BRANCH  33  34
ATOM     34  C   UNL     1       6.667   0.833  -3.125  0.00  0.00    +0.007 A 
ATOM     35  C   UNL     1       6.867   1.285  -4.387  0.00  0.00    +0.013 A 
ATOM     36  C   UNL     1       7.620   0.523  -5.260  0.00  0.00    +0.008 A 
ATOM     37  C   UNL     1       8.137  -0.653  -4.829  0.00  0.00    +0.045 A 
ATOM     38  S   UNL     1       7.563  -0.711  -3.139  0.00  0.00    -0.100 S 
ENDBRANCH  33  34
ENDBRANCH  31  33
ENDBRANCH  28  29
ENDBRANCH  27  28
ENDBRANCH   8  27
TORSDOF 8
