REMARK  Name = ZINC01612673
REMARK  6 active torsions:
REMARK  status: ('A' for Active; 'I' for Inactive)
REMARK    1  A    between atoms: C_1  and  C_2
REMARK    2  A    between atoms: C_2  and  C_13
REMARK    3  A    between atoms: C_3  and  O_12
REMARK    4  A    between atoms: C_6  and  O_11
REMARK    5  A    between atoms: C_8  and  C_9
REMARK    6  A    between atoms: C_8  and  C_10
REMARK                            x       y       z     vdW  Elec       q    Type
REMARK                         _______ _______ _______ _____ _____    ______ ____
ROOT
ATOM      1  C   UNL     1       3.308   4.442   0.112  0.00  0.00    +0.016 C 
ATOM      2  C   UNL     1       2.338   3.563   0.905  0.00  0.00    +0.026 C 
ATOM      3  C   UNL     1       3.025   2.247   1.331  0.00  0.00    +0.256 C 
ATOM      4  O   UNL     1       1.998   1.239   1.213  0.00  0.00    -0.322 OA
ATOM      5  C   UNL     1       1.286   1.562  -0.002  0.00  0.00    +0.256 C 
ATOM      6  C   UNL     1       1.168   3.102   0.008  0.00  0.00    +0.026 C 
ATOM      7  C   UNL     1       1.325   3.660  -1.408  0.00  0.00    +0.016 C 
ATOM      8  C   UNL     1      -0.171   3.533   0.609  0.00  0.00    +0.016 C 
ATOM      9  C   UNL     1       1.811   4.317   2.128  0.00  0.00    +0.016 C 
ENDROOT
BRANCH   5  10
ATOM     10  O   UNL     1      -0.011   0.963   0.007  0.00  0.00    -0.366 OA
ATOM     11  H   UNL     1       0.002  -0.004   0.002  0.00  0.00    +0.212 HD
ENDBRANCH   5  10
BRANCH   3  12
ATOM     12  O   UNL     1       4.117   1.950   0.458  0.00  0.00    -0.366 OA
ATOM     13  H   UNL     1       4.586   1.134   0.678  0.00  0.00    +0.212 HD
ENDBRANCH   3  12
TORSDOF 2
