REMARK  Name = ZINC28822563
REMARK  12 active torsions:
REMARK  status: ('A' for Active; 'I' for Inactive)
REMARK    1  A    between atoms: C_1  and  C_2
REMARK    2  A    between atoms: C_3  and  C_24
REMARK    3  A    between atoms: N_7  and  C_23
REMARK    4  A    between atoms: C_9  and  C_12
REMARK    5  A    between atoms: N_14  and  C_15
REMARK    6  A    between atoms: C_15  and  C_16
REMARK    7  A    between atoms: C_24  and  N_25
REMARK    8  A    between atoms: N_25  and  C_26
REMARK    9  A    between atoms: N_25  and  C_27
REMARK   10  A    between atoms: C_27  and  C_28
REMARK   11  A    between atoms: C_28  and  C_30
REMARK   12  A    between atoms: C_28  and  O_36
REMARK                            x       y       z     vdW  Elec       q    Type
REMARK                         _______ _______ _______ _____ _____    ______ ____
ROOT
ATOM      1  C   UNL     1       0.605   4.308  -3.085  0.00  0.00    +0.047 C 
ATOM      2  C   UNL     1      -0.406   3.434  -3.782  0.00  0.00    -0.015 A 
ATOM      3  C   UNL     1      -0.471   2.116  -3.488  0.00  0.00    +0.009 A 
ATOM      4  S   UNL     1      -1.784   1.547  -4.554  0.00  0.00    -0.086 S 
ATOM      5  C   UNL     1      -2.173   3.100  -5.318  0.00  0.00    +0.084 A 
ATOM      6  C   UNL     1      -1.272   3.991  -4.728  0.00  0.00    +0.063 A 
ATOM      7  N   UNL     1      -1.332   5.323  -5.139  0.00  0.00    -0.348 N 
ATOM      8  C   UNL     1      -2.197   5.769  -6.054  0.00  0.00    +0.102 A 
ATOM      9  C   UNL     1      -3.108   4.934  -6.668  0.00  0.00    +0.100 A 
ATOM     10  C   UNL     1      -3.103   3.511  -6.283  0.00  0.00    +0.208 A 
ATOM     11  O   UNL     1      -3.882   2.717  -6.787  0.00  0.00    -0.286 OA
ATOM     12  C   UNL     1      -0.400   6.280  -4.538  0.00  0.00    +0.149 C 
ENDROOT
BRANCH   9  13
ATOM     13  C   UNL     1      -4.052   5.447  -7.674  0.00  0.00    +0.249 C 
ATOM     14  O   UNL     1      -4.846   4.693  -8.202  0.00  0.00    -0.270 OA
ATOM     15  N   UNL     1      -4.036   6.753  -8.009  0.00  0.00    -0.307 N 
ATOM     16  H   UNL     1      -3.317   7.434  -7.531  0.00  0.00    +0.149 HD
BRANCH  15  17
ATOM     17  C   UNL     1      -4.976   7.263  -9.010  0.00  0.00    +0.139 C 
BRANCH  17  18
ATOM     18  C   UNL     1      -4.752   8.741  -9.201  0.00  0.00    -0.030 A 
ATOM     19  C   UNL     1      -5.449   9.651  -8.427  0.00  0.00    +0.006 A 
ATOM     20  C   UNL     1      -5.241  11.007  -8.598  0.00  0.00    +0.020 A 
ATOM     21  C   UNL     1      -4.342  11.454  -9.551  0.00  0.00    +0.041 A 
ATOM     22  C   UNL     1      -3.649  10.543 -10.328  0.00  0.00    +0.020 A 
ATOM     23  C   UNL     1      -3.855   9.187 -10.153  0.00  0.00    +0.006 A 
ATOM     24 CL   UNL     1      -4.085  13.156  -9.770  0.00  0.00    -0.084 Cl
ENDBRANCH  17  18
ENDBRANCH  15  17
ENDBRANCH   9  13
BRANCH   3  25
ATOM     25  C   UNL     1       0.361   1.325  -2.511  0.00  0.00    +0.127 C 
BRANCH  25  26
ATOM     26  N   UNL     1      -0.288   1.337  -1.194  0.00  0.00    -0.298 NA
ATOM     27  C   UNL     1      -1.566   0.613  -1.231  0.00  0.00    +0.105 C 
BRANCH  26  28
ATOM     28  C   UNL     1       0.601   0.783  -0.164  0.00  0.00    +0.123 C 
BRANCH  28  29
ATOM     29  C   UNL     1       1.670   1.816   0.196  0.00  0.00    +0.196 C 
BRANCH  29  30
ATOM     30  C   UNL     1       2.594   1.240   1.238  0.00  0.00    +0.159 A 
ATOM     31  N   UNL     1       2.176   1.147   2.484  0.00  0.00    -0.238 NA
ATOM     32  C   UNL     1       2.958   0.642   3.425  0.00  0.00    +0.114 A 
ATOM     33  C   UNL     1       4.234   0.220   3.087  0.00  0.00    +0.039 A 
ATOM     34  C   UNL     1       4.640   0.340   1.767  0.00  0.00    +0.114 A 
ATOM     35  N   UNL     1       3.801   0.849   0.879  0.00  0.00    -0.238 NA
ENDBRANCH  29  30
BRANCH  29  36
ATOM     36  O   UNL     1       1.042   2.991   0.713  0.00  0.00    -0.383 OA
ATOM     37  H   UNL     1       1.655   3.849   1.028  0.00  0.00    +0.210 HD
ENDBRANCH  29  36
ENDBRANCH  28  29
ENDBRANCH  26  28
ENDBRANCH  25  26
ENDBRANCH   3  25
TORSDOF 9
