REMARK  Name = ZINC63040809
REMARK  7 active torsions:
REMARK  status: ('A' for Active; 'I' for Inactive)
REMARK    1  A    between atoms: C_1  and  C_2
REMARK    2  A    between atoms: C_2  and  C_4
REMARK    3  A    between atoms: C_4  and  C_6
REMARK    4  A    between atoms: C_4  and  C_16
REMARK    5  A    between atoms: C_7  and  N_13
REMARK    6  A    between atoms: C_16  and  C_17
REMARK    7  A    between atoms: C_16  and  C_18
REMARK                            x       y       z     vdW  Elec       q    Type
REMARK                         _______ _______ _______ _____ _____    ______ ____
ROOT
ATOM      1  C   UNL     1       0.628  -0.326   2.993  0.00  0.00    +0.076 A 
ATOM      2  C   UNL     1       0.253   1.002   3.071  0.00  0.00    +0.149 A 
ATOM      3  C   UNL     1      -0.916   1.335   3.736  0.00  0.00    +0.051 A 
ATOM      4  C   UNL     1      -1.669   0.316   4.300  0.00  0.00    +0.038 A 
ATOM      5  C   UNL     1      -1.231  -0.990   4.180  0.00  0.00    +0.126 A 
ATOM      6  N   UNL     1      -0.115  -1.271   3.536  0.00  0.00    -0.256 NA
ATOM      7 BR   UNL     1      -3.275   0.706   5.220  0.00  0.00    -0.049 Br
ENDROOT
BRANCH   2   8
ATOM      8  N   UNL     1       1.091   2.054   2.454  0.00  0.00    +0.058 N 
ATOM      9  O   UNL     1       1.125   3.162   2.939  0.00  0.00    -0.126 OA
ATOM     10  O   UNL     1       1.741   1.807   1.465  0.00  0.00    -0.126 OA
ENDBRANCH   2   8
BRANCH   1  11
ATOM     11  C   UNL     1       1.898  -0.700   2.272  0.00  0.00    +0.060 C 
BRANCH  11  13
ATOM     12  C   UNL     1       0.919  -0.429  -0.010  0.00  0.00    +0.025 C 
ATOM     13  C   UNL     1       1.552  -1.421   0.968  0.00  0.00    +0.087 C 
ATOM     14 CL   UNL     1       0.386  -2.754   1.309  0.00  0.00    -0.121 Cl
ENDBRANCH  11  13
BRANCH  11  15
ATOM     15  C   UNL     1       2.734  -1.625   3.159  0.00  0.00    -0.007 C 
ATOM     16  C   UNL     1       4.024  -2.005   2.428  0.00  0.00    +0.008 C 
ATOM     17  C   UNL     1       3.081  -0.904   4.464  0.00  0.00    +0.008 C 
ENDBRANCH  11  15
ENDBRANCH   1  11
TORSDOF 4
