REMARK  Name = ZINC01821330
REMARK  15 active torsions:
REMARK  status: ('A' for Active; 'I' for Inactive)
REMARK    1  A    between atoms: C_1  and  O_2
REMARK    2  A    between atoms: O_2  and  C_3
REMARK    3  A    between atoms: C_3  and  C_5
REMARK    4  A    between atoms: C_8  and  C_11
REMARK    5  A    between atoms: C_17  and  C_37
REMARK    6  A    between atoms: C_18  and  C_27
REMARK    7  A    between atoms: C_20  and  C_23
REMARK    8  A    between atoms: C_21  and  N_22
REMARK    9  A    between atoms: C_23  and  O_25
REMARK   10  A    between atoms: O_25  and  C_26
REMARK   11  A    between atoms: C_30  and  C_33
REMARK   12  A    between atoms: C_33  and  O_35
REMARK   13  A    between atoms: O_35  and  C_36
REMARK   14  A    between atoms: C_37  and  O_39
REMARK   15  A    between atoms: O_39  and  C_40
REMARK                            x       y       z     vdW  Elec       q    Type
REMARK                         _______ _______ _______ _____ _____    ______ ____
ROOT
ATOM      1  C   UNL     1      -0.291  -6.369  -2.054  0.00  0.00    +0.028 C 
ATOM      2  C   UNL     1       0.521  -6.955  -2.969  0.00  0.00    +0.079 A 
ATOM      3  C   UNL     1       1.418  -6.333  -3.956  0.00  0.00    +0.271 A 
ATOM      4  O   UNL     1       1.511  -5.124  -4.038  0.00  0.00    -0.266 OA
ATOM      5  N   UNL     1       2.134  -7.139  -4.766  0.00  0.00    -0.257 N 
ATOM      6  C   UNL     1       1.978  -8.502  -4.616  0.00  0.00    +0.100 A 
ATOM      7  C   UNL     1       2.630  -9.435  -5.359  0.00  0.00    +0.079 C 
ATOM      8  C   UNL     1       3.596  -8.958  -6.426  0.00  0.00    +0.099 C 
ATOM      9  C   UNL     1       3.739  -7.455  -6.559  0.00  0.00    +0.087 C 
ATOM     10  C   UNL     1       3.014  -6.657  -5.739  0.00  0.00    +0.115 C 
ATOM     11  S   UNL     1       0.798  -8.688  -3.294  0.00  0.00    -0.065 S 
ENDROOT
BRANCH   1  15
ATOM     12  C   UNL     1      -0.866  -2.174  -2.113  0.00  0.00    +0.059 A 
ATOM     13  C   UNL     1      -0.762  -2.848  -0.892  0.00  0.00    +0.015 A 
ATOM     14  C   UNL     1      -0.577  -4.201  -0.871  0.00  0.00    +0.009 A 
ATOM     15  C   UNL     1      -0.491  -4.913  -2.074  0.00  0.00    -0.024 A 
ATOM     16  C   UNL     1      -0.596  -4.237  -3.296  0.00  0.00    +0.009 A 
ATOM     17  C   UNL     1      -0.786  -2.885  -3.314  0.00  0.00    +0.015 A 
BRANCH  12  18
ATOM     18  C   UNL     1      -1.066  -0.712  -2.133  0.00  0.00    +0.339 C 
ATOM     19  O   UNL     1      -1.162  -0.127  -3.193  0.00  0.00    -0.245 OA
BRANCH  18  21
ATOM     20  C   UNL     1      -1.337   1.387  -1.070  0.00  0.00    +0.280 C 
ATOM     21  O   UNL     1      -1.143  -0.026  -0.976  0.00  0.00    -0.464 OA
ENDBRANCH  18  21
ENDBRANCH  12  18
ENDBRANCH   1  15
BRANCH   8  22
ATOM     22  C   UNL     1       4.956  -9.532  -6.121  0.00  0.00    -0.035 A 
ATOM     23  C   UNL     1       5.574  -9.237  -4.919  0.00  0.00    +0.005 A 
ATOM     24  C   UNL     1       6.819  -9.759  -4.634  0.00  0.00    +0.015 A 
ATOM     25  C   UNL     1       7.455 -10.587  -5.562  0.00  0.00    +0.059 A 
ATOM     26  C   UNL     1       6.825 -10.880  -6.773  0.00  0.00    +0.015 A 
ATOM     27  C   UNL     1       5.578 -10.356  -7.043  0.00  0.00    +0.005 A 
BRANCH  25  28
ATOM     28  C   UNL     1       8.788 -11.149  -5.264  0.00  0.00    +0.339 C 
ATOM     29  O   UNL     1       9.334 -10.892  -4.210  0.00  0.00    -0.245 OA
BRANCH  28  30
ATOM     30  O   UNL     1       9.398 -11.947  -6.161  0.00  0.00    -0.464 OA
ATOM     31  C   UNL     1      10.686 -12.455  -5.807  0.00  0.00    +0.280 C 
ENDBRANCH  28  30
ENDBRANCH  25  28
ENDBRANCH   8  22
BRANCH  10  32
ATOM     32  N   UNL     1       3.153  -5.300  -5.870  0.00  0.00    -0.344 N 
ATOM     33  H   UNL     1       3.185  -4.737  -5.081  0.00  0.00    +0.144 HD
ATOM     34  H   UNL     1       3.219  -4.903  -6.753  0.00  0.00    +0.144 HD
ENDBRANCH  10  32
BRANCH   9  35
ATOM     35  C   UNL     1       4.605  -6.901  -7.513  0.00  0.00    +0.339 C 
ATOM     36  O   UNL     1       4.789  -5.697  -7.543  0.00  0.00    -0.245 OA
BRANCH  35  37
ATOM     37  O   UNL     1       5.235  -7.703  -8.399  0.00  0.00    -0.465 OA
ATOM     38  C   UNL     1       6.103  -7.071  -9.343  0.00  0.00    +0.280 C 
ENDBRANCH  35  37
ENDBRANCH   9  35
BRANCH   7  39
ATOM     39  C   UNL     1       2.416 -10.804  -5.144  0.00  0.00    +0.338 C 
ATOM     40  O   UNL     1       1.637 -11.170  -4.282  0.00  0.00    -0.245 OA
BRANCH  39  41
ATOM     41  O   UNL     1       3.074 -11.717  -5.891  0.00  0.00    -0.465 OA
ATOM     42  C   UNL     1       2.807 -13.094  -5.618  0.00  0.00    +0.280 C 
ENDBRANCH  39  41
ENDBRANCH   7  39
TORSDOF 11
