REMARK  Name = ZINC40683081
REMARK  6 active torsions:
REMARK  status: ('A' for Active; 'I' for Inactive)
REMARK    1  A    between atoms: C_1  and  C_2
REMARK    2  A    between atoms: C_7  and  C_9
REMARK    3  A    between atoms: C_7  and  C_10
REMARK    4  A    between atoms: C_14  and  N_30
REMARK    5  A    between atoms: C_15  and  O_19
REMARK    6  A    between atoms: O_19  and  C_20
REMARK                            x       y       z     vdW  Elec       q    Type
REMARK                         _______ _______ _______ _____ _____    ______ ____
ROOT
ATOM      1  C   UNL     1       0.618   0.267   1.747  0.00  0.00    +0.013 C 
ATOM      2  C   UNL     1       0.272  -1.188   1.396  0.00  0.00    -0.014 C 
ATOM      3  C   UNL     1       1.171  -1.751   0.260  0.00  0.00    +0.030 C 
ATOM      4  C   UNL     1       0.304  -2.956  -0.182  0.00  0.00    +0.076 C 
ATOM      5  C   UNL     1       0.470  -4.045   0.875  0.00  0.00    +0.029 C 
ATOM      6  C   UNL     1       0.128  -3.591   2.282  0.00  0.00    -0.033 C 
ATOM      7  C   UNL     1       0.405  -2.131   2.591  0.00  0.00    +0.014 C 
ATOM      8  C   UNL     1      -1.336  -3.928   2.597  0.00  0.00    +0.011 C 
ATOM      9  C   UNL     1       0.990  -4.435   3.256  0.00  0.00    +0.011 C 
ATOM     10  N   UNL     1      -1.085  -2.457  -0.148  0.00  0.00    -0.310 N 
ATOM     11  C   UNL     1      -1.143  -1.327   0.792  0.00  0.00    +0.113 C 
ATOM     12  C   UNL     1      -2.152  -2.958  -0.884  0.00  0.00    +0.149 A 
ATOM     13  C   UNL     1      -3.448  -2.480  -0.671  0.00  0.00    +0.128 A 
ATOM     14  C   UNL     1      -4.481  -3.017  -1.437  0.00  0.00    +0.246 A 
ATOM     15  N   UNL     1      -4.198  -3.957  -2.334  0.00  0.00    -0.199 NA
ATOM     16  C   UNL     1      -2.963  -4.381  -2.504  0.00  0.00    +0.227 A 
ATOM     17  N   UNL     1      -1.955  -3.897  -1.806  0.00  0.00    -0.219 NA
ENDROOT
BRANCH  13  18
ATOM     18  N   UNL     1      -3.702  -1.486   0.287  0.00  0.00    -0.351 N 
ATOM     19  H   UNL     1      -3.041  -0.796   0.456  0.00  0.00    +0.143 HD
ATOM     20  H   UNL     1      -4.537  -1.489   0.779  0.00  0.00    +0.143 HD
ENDBRANCH  13  18
BRANCH  14  21
ATOM     21  O   UNL     1      -5.757  -2.587  -1.269  0.00  0.00    -0.436 OA
BRANCH  21  22
ATOM     22  C   UNL     1      -6.740  -3.227  -1.953  0.00  0.00    +0.138 A 
ATOM     23  C   UNL     1      -7.140  -2.766  -3.188  0.00  0.00    +0.047 A 
ATOM     24  C   UNL     1      -8.146  -3.414  -3.898  0.00  0.00    +0.004 A 
ATOM     25  C   UNL     1      -8.762  -4.519  -3.394  0.00  0.00    +0.009 A 
ATOM     26  C   UNL     1      -8.384  -5.020  -2.138  0.00  0.00    -0.014 A 
ATOM     27  C   UNL     1      -7.357  -4.372  -1.409  0.00  0.00    +0.024 A 
ATOM     28  C   UNL     1      -6.977  -4.877  -0.155  0.00  0.00    +0.012 A 
ATOM     29  C   UNL     1      -7.594  -5.985   0.340  0.00  0.00    +0.001 A 
ATOM     30  C   UNL     1      -8.601  -6.627  -0.379  0.00  0.00    +0.001 A 
ATOM     31  C   UNL     1      -9.003  -6.158  -1.592  0.00  0.00    +0.008 A 
ENDBRANCH  21  22
ENDBRANCH  14  21
TORSDOF 3
