REMARK  Name = ZINC36161558
REMARK  15 active torsions:
REMARK  status: ('A' for Active; 'I' for Inactive)
REMARK    1  A    between atoms: C_1  and  C_2
REMARK    2  A    between atoms: C_15  and  C_17
REMARK    3  A    between atoms: C_17  and  N_18
REMARK    4  A    between atoms: N_18  and  C_19
REMARK    5  A    between atoms: N_18  and  C_24
REMARK    6  A    between atoms: C_19  and  C_20
REMARK    7  A    between atoms: C_20  and  C_21
REMARK    8  A    between atoms: C_21  and  O_22
REMARK    9  A    between atoms: O_22  and  C_23
REMARK   10  A    between atoms: C_24  and  C_25
REMARK   11  A    between atoms: C_25  and  C_27
REMARK   12  A    between atoms: C_25  and  O_32
REMARK   13  A    between atoms: C_27  and  O_28
REMARK   14  A    between atoms: O_28  and  C_29
REMARK   15  A    between atoms: C_29  and  C_30
REMARK                            x       y       z     vdW  Elec       q    Type
REMARK                         _______ _______ _______ _____ _____    ______ ____
ROOT
ATOM      1  C   UNL     1      -0.587  -7.999   2.881  0.00  0.00    -0.003 C 
ENDROOT
BRANCH   1  15
ATOM      2  C   UNL     1      -1.478   1.704   4.929  0.00  0.00    +0.008 C 
ATOM      3  C   UNL     1      -1.341   0.329   4.273  0.00  0.00    -0.009 C 
ATOM      4  C   UNL     1      -2.710  -0.356   4.224  0.00  0.00    +0.008 C 
ATOM      5  C   UNL     1      -2.631  -1.611   3.354  0.00  0.00    +0.037 C 
ATOM      6  C   UNL     1      -1.481  -2.484   3.849  0.00  0.00    -0.023 A 
ATOM      7  C   UNL     1      -0.504  -1.959   4.625  0.00  0.00    -0.004 A 
ATOM      8  S   UNL     1       0.601  -3.308   4.957  0.00  0.00    -0.073 S 
ATOM      9  C   UNL     1      -0.246  -4.568   4.059  0.00  0.00    +0.116 A 
ATOM     10  C   UNL     1      -1.368  -3.895   3.526  0.00  0.00    +0.075 A 
ATOM     11  C   UNL     1      -2.275  -4.669   2.727  0.00  0.00    +0.260 A 
ATOM     12  O   UNL     1      -3.272  -4.183   2.222  0.00  0.00    -0.267 OA
ATOM     13  N   UNL     1      -1.951  -5.975   2.570  0.00  0.00    -0.312 N 
ATOM     14  H   UNL     1      -2.536  -6.536   2.037  0.00  0.00    +0.170 HD
ATOM     15  C   UNL     1      -0.848  -6.534   3.122  0.00  0.00    +0.094 A 
ATOM     16  N   UNL     1       0.006  -5.858   3.860  0.00  0.00    -0.229 NA
ATOM     17  C   UNL     1      -0.381  -0.542   5.096  0.00  0.00    +0.046 C 
ENDBRANCH   1  15
BRANCH   1  18
ATOM     18  N   UNL     1       0.721  -8.362   3.442  0.00  0.00    +0.386 N 
ATOM     19  H   UNL     1       0.765  -8.072   4.407  0.00  0.00    -0.081 HD
BRANCH  18  20
ATOM     20  C   UNL     1       1.784  -7.693   2.680  0.00  0.00    -0.076 C 
BRANCH  20  21
ATOM     21  C   UNL     1       1.774  -8.200   1.237  0.00  0.00    +0.009 C 
BRANCH  21  22
ATOM     22  C   UNL     1       2.941  -7.576   0.469  0.00  0.00    +0.157 C 
BRANCH  22  23
ATOM     23  O   UNL     1       2.932  -8.050  -0.879  0.00  0.00    -0.383 OA
ATOM     24  C   UNL     1       3.987  -7.525  -1.687  0.00  0.00    +0.193 C 
ENDBRANCH  22  23
ENDBRANCH  21  22
ENDBRANCH  20  21
ENDBRANCH  18  20
BRANCH  18  25
ATOM     25  C   UNL     1       0.902  -9.818   3.360  0.00  0.00    -0.044 C 
BRANCH  25  26
ATOM     26  C   UNL     1       2.186 -10.214   4.091  0.00  0.00    +0.124 C 
BRANCH  26  27
ATOM     27  O   UNL     1       3.316  -9.706   3.380  0.00  0.00    -0.391 OA
ATOM     28  H   UNL     1       3.391 -10.034   2.474  0.00  0.00    +0.210 HD
ENDBRANCH  26  27
BRANCH  26  29
ATOM     29  C   UNL     1       2.278 -11.739   4.171  0.00  0.00    +0.189 C 
BRANCH  29  30
ATOM     30  O   UNL     1       3.414 -12.108   4.954  0.00  0.00    -0.373 OA
BRANCH  30  31
ATOM     31  C   UNL     1       3.592 -13.519   5.092  0.00  0.00    +0.186 C 
BRANCH  31  32
ATOM     32  C   UNL     1       4.814 -13.792   5.931  0.00  0.00    -0.007 C 
ATOM     33  C   UNL     1       4.767 -14.692   6.882  0.00  0.00    +0.006 C 
ENDBRANCH  31  32
ENDBRANCH  30  31
ENDBRANCH  29  30
ENDBRANCH  26  29
ENDBRANCH  25  26
ENDBRANCH  18  25
ENDBRANCH   1  18
TORSDOF 13
