REMARK  Name = ZINC35427380
REMARK  7 active torsions:
REMARK  status: ('A' for Active; 'I' for Inactive)
REMARK    1  A    between atoms: C_1  and  N_2
REMARK    2  A    between atoms: C_16  and  C_33
REMARK    3  A    between atoms: N_22  and  C_23
REMARK    4  A    between atoms: C_25  and  O_31
REMARK    5  A    between atoms: C_28  and  O_29
REMARK    6  A    between atoms: O_29  and  C_30
REMARK    7  A    between atoms: O_31  and  C_32
REMARK                            x       y       z     vdW  Elec       q    Type
REMARK                         _______ _______ _______ _____ _____    ______ ____
ROOT
ATOM      1  C   UNL     1       0.925   0.985  -1.515  0.00  0.00    -0.096 C 
ATOM      2  N   UNL     1       0.663  -0.427  -1.207  0.00  0.00    +0.381 N 
ATOM      3  C   UNL     1      -0.707  -0.771  -1.608  0.00  0.00    -0.074 C 
ATOM      4  C   UNL     1      -0.901  -2.290  -1.595  0.00  0.00    +0.018 C 
ATOM      5  C   UNL     1      -0.460  -2.810  -0.229  0.00  0.00    -0.034 A 
ATOM      6  C   UNL     1      -0.822  -4.078   0.263  0.00  0.00    +0.004 A 
ATOM      7  C   UNL     1      -0.349  -4.414   1.494  0.00  0.00    +0.090 A 
ATOM      8  S   UNL     1       0.575  -3.001   2.016  0.00  0.00    -0.077 S 
ATOM      9  C   UNL     1       0.317  -2.020   0.562  0.00  0.00    -0.021 A 
ATOM     10  C   UNL     1       0.820  -0.651   0.243  0.00  0.00    -0.036 C 
ATOM     11  N   UNL     1      -0.585  -5.636   2.112  0.00  0.00    -0.312 N 
ATOM     12  C   UNL     1      -0.956  -5.943   3.377  0.00  0.00    +0.092 A 
ATOM     13  C   UNL     1      -1.119  -7.284   3.451  0.00  0.00    +0.020 A 
ATOM     14  C   UNL     1      -0.815  -7.820   2.181  0.00  0.00    +0.025 A 
ATOM     15  C   UNL     1      -0.468  -6.798   1.385  0.00  0.00    +0.049 A 
ATOM     16  C   UNL     1       0.019  -6.817  -0.033  0.00  0.00    +0.155 C 
ATOM     17  N   UNL     1      -0.976  -6.235  -0.965  0.00  0.00    -0.268 N 
ATOM     18  C   UNL     1      -1.704  -5.041  -0.500  0.00  0.00    +0.148 C 
ATOM     19  C   UNL     1      -1.204  -6.773  -2.180  0.00  0.00    +0.308 C 
ATOM     20  O   UNL     1      -0.587  -7.758  -2.534  0.00  0.00    -0.252 OA
ATOM     21  N   UNL     1      -2.117  -6.218  -3.002  0.00  0.00    -0.266 N 
ATOM     22  H   UNL     1      -2.551  -5.386  -2.754  0.00  0.00    +0.156 HD
ATOM     23  H   UNL     1       1.317  -1.008  -1.710  0.00  0.00    -0.082 HD
ENDROOT
BRANCH  21  24
ATOM     24  C   UNL     1      -2.438  -6.842  -4.215  0.00  0.00    +0.080 A 
ATOM     25  C   UNL     1      -2.154  -8.186  -4.402  0.00  0.00    +0.072 A 
ATOM     26  C   UNL     1      -2.474  -8.801  -5.602  0.00  0.00    +0.122 A 
ATOM     27  C   UNL     1      -3.078  -8.072  -6.617  0.00  0.00    +0.049 A 
ATOM     28  C   UNL     1      -3.361  -6.731  -6.433  0.00  0.00    +0.051 A 
ATOM     29  C   UNL     1      -3.049  -6.114  -5.234  0.00  0.00    +0.141 A 
BRANCH  29  30
ATOM     30  O   UNL     1      -3.334  -4.796  -5.052  0.00  0.00    -0.493 OA
ATOM     31  C   UNL     1      -3.961  -4.112  -6.139  0.00  0.00    +0.277 C 
ENDBRANCH  29  30
BRANCH  26  32
ATOM     32  O   UNL     1      -2.195 -10.119  -5.786  0.00  0.00    -0.495 OA
ATOM     33  C   UNL     1      -2.552 -10.688  -7.048  0.00  0.00    +0.277 C 
ENDBRANCH  26  32
ENDBRANCH  21  24
BRANCH  16  34
ATOM     34  C   UNL     1       1.297  -6.023  -0.124  0.00  0.00    -0.021 A 
ATOM     35  C   UNL     1       2.222  -6.083   0.901  0.00  0.00    +0.006 A 
ATOM     36  C   UNL     1       3.394  -5.355   0.818  0.00  0.00    +0.000 A 
ATOM     37  C   UNL     1       3.641  -4.567  -0.291  0.00  0.00    +0.000 A 
ATOM     38  C   UNL     1       2.716  -4.508  -1.316  0.00  0.00    +0.000 A 
ATOM     39  C   UNL     1       1.546  -5.239  -1.235  0.00  0.00    +0.006 A 
ENDBRANCH  16  34
TORSDOF 4
