REMARK  Name = ZINC27664023
REMARK  4 active torsions:
REMARK  status: ('A' for Active; 'I' for Inactive)
REMARK    1  A    between atoms: C_4  and  S_7
REMARK    2  A    between atoms: S_7  and  C_10
REMARK    3  A    between atoms: C_11  and  C_20
REMARK    4  A    between atoms: C_13  and  C_15
REMARK                            x       y       z     vdW  Elec       q    Type
REMARK                         _______ _______ _______ _____ _____    ______ ____
ROOT
ATOM      1  C   UNL     1       1.069   2.249   0.004  0.00  0.00    +0.284 A 
ATOM      2  C   UNL     1      -0.017   1.428   0.010  0.00  0.00    +0.205 A 
ATOM      3  N   UNL     1      -1.122   2.218   0.019  0.00  0.00    -0.196 NA
ATOM      4  C   UNL     1      -0.735   3.472   0.028  0.00  0.00    +0.237 A 
ATOM      5  O   UNL     1       0.610   3.514   0.015  0.00  0.00    -0.416 OA
ENDROOT
BRANCH   4   6
ATOM      6  C   UNL     1      -1.626   4.641   0.043  0.00  0.00    +0.074 A 
ATOM      7  C   UNL     1      -3.008   4.684   0.056  0.00  0.00    +0.021 A 
ATOM      8  C   UNL     1      -3.625   5.913   0.070  0.00  0.00    +0.008 A 
ATOM      9  C   UNL     1      -2.864   7.039   0.070  0.00  0.00    +0.046 A 
ATOM     10  S   UNL     1      -1.206   6.376   0.057  0.00  0.00    -0.092 S 
ENDBRANCH   4   6
BRANCH   1  11
ATOM     11  S   UNL     1       2.758   1.750  -0.014  0.00  0.00    +0.061 S 
ATOM     12  O   UNL     1       3.506   2.826   0.535  0.00  0.00    -0.161 OA
ATOM     13  O   UNL     1       2.800   0.438   0.530  0.00  0.00    -0.161 OA
BRANCH  11  17
ATOM     14  C   UNL     1       4.003   1.391  -4.351  0.00  0.00    +0.000 A 
ATOM     15  C   UNL     1       4.152   2.594  -3.687  0.00  0.00    +0.002 A 
ATOM     16  C   UNL     1       3.772   2.704  -2.362  0.00  0.00    +0.027 A 
ATOM     17  C   UNL     1       3.242   1.610  -1.702  0.00  0.00    +0.097 A 
ATOM     18  C   UNL     1       3.098   0.406  -2.366  0.00  0.00    +0.027 A 
ATOM     19  C   UNL     1       3.473   0.298  -3.692  0.00  0.00    +0.002 A 
ENDBRANCH  11  17
ENDBRANCH   1  11
BRANCH   2  20
ATOM     20  C   UNL     1       0.002  -0.004   0.002  0.00  0.00    +0.124 C 
ATOM     21  N   UNL     1       0.018  -1.140  -0.004  0.00  0.00    -0.189 NA
ENDBRANCH   2  20
TORSDOF 4
