REMARK  Name = ZINC39605227
REMARK  11 active torsions:
REMARK  status: ('A' for Active; 'I' for Inactive)
REMARK    1  A    between atoms: C_1  and  C_2
REMARK    2  A    between atoms: C_2  and  C_3
REMARK    3  A    between atoms: C_2  and  O_4
REMARK    4  A    between atoms: O_4  and  C_5
REMARK    5  A    between atoms: C_5  and  C_6
REMARK    6  A    between atoms: C_6  and  C_7
REMARK    7  A    between atoms: C_7  and  N_8
REMARK    8  A    between atoms: C_9  and  C_11
REMARK    9  A    between atoms: C_22  and  C_24
REMARK   10  A    between atoms: C_27  and  O_30
REMARK   11  A    between atoms: O_30  and  C_31
REMARK                            x       y       z     vdW  Elec       q    Type
REMARK                         _______ _______ _______ _____ _____    ______ ____
ROOT
ATOM      1  C   UNL     1      -7.353  -5.214  -1.503  0.00  0.00    +0.100 C 
ATOM      2  C   UNL     1      -7.968  -4.086  -2.361  0.00  0.00    +0.121 C 
ATOM      3  N   UNL     1      -8.011  -4.641  -3.735  0.00  0.00    -0.296 N 
ATOM      4  C   UNL     1      -8.403  -6.058  -3.547  0.00  0.00    +0.115 C 
ATOM      5  C   UNL     1      -7.644  -6.507  -2.283  0.00  0.00    -0.004 C 
ATOM      6  C   UNL     1      -6.338  -7.196  -2.670  0.00  0.00    -0.010 C 
ATOM      7  C   UNL     1      -6.654  -8.507  -3.395  0.00  0.00    -0.082 C 
ATOM      8  N   UNL     1      -7.447  -9.375  -2.516  0.00  0.00    +0.379 N 
ATOM      9  C   UNL     1      -8.740  -8.745  -2.224  0.00  0.00    -0.082 C 
ATOM     10  C   UNL     1      -8.512  -7.444  -1.450  0.00  0.00    -0.010 C 
ATOM     11  C   UNL     1      -7.751  -4.002  -4.892  0.00  0.00    +0.248 C 
ATOM     12  O   UNL     1      -7.312  -2.868  -4.876  0.00  0.00    -0.270 OA
ATOM     13  H   UNL     1      -7.602 -10.262  -2.972  0.00  0.00    -0.086 HD
ATOM     14  H   UNL     1      -6.946  -9.527  -1.654  0.00  0.00    -0.086 HD
ENDROOT
BRANCH  11  15
ATOM     15  C   UNL     1      -7.999  -4.678  -6.181  0.00  0.00    +0.055 A 
ATOM     16  C   UNL     1      -8.862  -5.782  -6.250  0.00  0.00    +0.020 A 
ATOM     17  C   UNL     1      -9.062  -6.381  -7.477  0.00  0.00    +0.068 A 
ATOM     18  C   UNL     1      -8.407  -5.875  -8.596  0.00  0.00    +0.220 A 
ATOM     19  N   UNL     1      -7.598  -4.831  -8.498  0.00  0.00    -0.220 NA
ATOM     20  C   UNL     1      -7.383  -4.226  -7.348  0.00  0.00    +0.127 A 
BRANCH  18  21
ATOM     21  O   UNL     1      -8.600  -6.459  -9.803  0.00  0.00    -0.438 OA
BRANCH  21  22
ATOM     22  C   UNL     1      -8.023  -5.882 -10.890  0.00  0.00    +0.130 A 
ATOM     23  C   UNL     1      -6.673  -6.076 -11.146  0.00  0.00    +0.046 A 
ATOM     24  C   UNL     1      -6.088  -5.489 -12.251  0.00  0.00    +0.004 A 
ATOM     25  C   UNL     1      -6.848  -4.708 -13.103  0.00  0.00    +0.000 A 
ATOM     26  C   UNL     1      -8.193  -4.513 -12.851  0.00  0.00    +0.004 A 
ATOM     27  C   UNL     1      -8.784  -5.103 -11.750  0.00  0.00    +0.046 A 
ENDBRANCH  21  22
ENDBRANCH  18  21
ENDBRANCH  11  15
BRANCH   1  29
ATOM     28  N   UNL     1      -5.223  -5.494  -0.276  0.00  0.00    -0.315 N 
ATOM     29  C   UNL     1      -5.866  -5.012  -1.358  0.00  0.00    +0.218 C 
ATOM     30  O   UNL     1      -5.249  -4.416  -2.215  0.00  0.00    -0.275 OA
ATOM     31  H   UNL     1      -5.717  -5.970   0.409  0.00  0.00    +0.149 HD
BRANCH  28  32
ATOM     32  C   UNL     1      -3.778  -5.297  -0.135  0.00  0.00    +0.106 C 
BRANCH  32  33
ATOM     33  C   UNL     1      -3.301  -5.936   1.171  0.00  0.00    +0.047 C 
BRANCH  33  34
ATOM     34  C   UNL     1      -1.792  -5.731   1.318  0.00  0.00    +0.161 C 
BRANCH  34  35
ATOM     35  O   UNL     1      -1.347  -6.327   2.538  0.00  0.00    -0.377 OA
BRANCH  35  37
ATOM     36  C   UNL     1       0.318  -6.145   4.280  0.00  0.00    +0.037 C 
ATOM     37  C   UNL     1       0.056  -6.191   2.773  0.00  0.00    +0.112 C 
ATOM     38  C   UNL     1       0.793  -7.385   2.164  0.00  0.00    +0.037 C 
ENDBRANCH  35  37
ENDBRANCH  34  35
ENDBRANCH  33  34
ENDBRANCH  32  33
ENDBRANCH  28  32
ENDBRANCH   1  29
TORSDOF 9
