REMARK  Name = ZINC35967135
REMARK  12 active torsions:
REMARK  status: ('A' for Active; 'I' for Inactive)
REMARK    1  A    between atoms: C_1  and  C_2
REMARK    2  A    between atoms: C_2  and  N_3
REMARK    3  A    between atoms: C_6  and  C_11
REMARK    4  A    between atoms: C_15  and  O_17
REMARK    5  A    between atoms: O_17  and  C_18
REMARK    6  A    between atoms: N_26  and  C_28
REMARK    7  A    between atoms: C_28  and  C_29
REMARK    8  A    between atoms: N_31  and  C_32
REMARK    9  A    between atoms: C_32  and  C_33
REMARK   10  A    between atoms: C_33  and  N_34
REMARK   11  A    between atoms: N_34  and  C_35
REMARK   12  A    between atoms: N_34  and  C_36
REMARK                            x       y       z     vdW  Elec       q    Type
REMARK                         _______ _______ _______ _____ _____    ______ ____
ROOT
ATOM      1  N   UNL     1      -1.843  -0.904  -2.062  0.00  0.00    -0.257 N 
ATOM      2  C   UNL     1      -2.091  -1.206  -0.754  0.00  0.00    +0.042 C 
ATOM      3  C   UNL     1      -3.315  -1.599  -0.346  0.00  0.00    +0.058 C 
ATOM      4  C   UNL     1      -4.408  -1.695  -1.392  0.00  0.00    +0.142 C 
ATOM      5  N   UNL     1      -4.040  -1.349  -2.775  0.00  0.00    -0.288 N 
ATOM      6  C   UNL     1      -2.772  -0.967  -3.026  0.00  0.00    +0.307 C 
ATOM      7  O   UNL     1      -2.460  -0.674  -4.163  0.00  0.00    -0.252 OA
ATOM      8  C   UNL     1      -3.313  -1.851   1.041  0.00  0.00    +0.247 C 
ATOM      9  O   UNL     1      -4.284  -2.220   1.675  0.00  0.00    -0.270 OA
ATOM     10  N   UNL     1      -2.097  -1.630   1.573  0.00  0.00    -0.283 N 
ATOM     11  C   UNL     1      -1.214  -1.200   0.478  0.00  0.00    +0.160 C 
ATOM     12  H   UNL     1      -4.696  -1.391  -3.488  0.00  0.00    +0.151 HD
ENDROOT
BRANCH   4  13
ATOM     13  C   UNL     1      -5.535  -0.788  -0.970  0.00  0.00    -0.019 A 
ATOM     14  C   UNL     1      -5.454   0.571  -1.209  0.00  0.00    +0.006 A 
ATOM     15  C   UNL     1      -6.486   1.406  -0.824  0.00  0.00    +0.004 A 
ATOM     16  C   UNL     1      -7.602   0.884  -0.199  0.00  0.00    +0.046 A 
ATOM     17  C   UNL     1      -7.686  -0.480   0.043  0.00  0.00    +0.129 A 
ATOM     18  C   UNL     1      -6.650  -1.316  -0.350  0.00  0.00    +0.052 A 
BRANCH  17  19
ATOM     19  O   UNL     1      -8.782  -0.996   0.658  0.00  0.00    -0.456 OA
BRANCH  19  20
ATOM     20  C   UNL     1      -8.817  -2.336   0.880  0.00  0.00    +0.128 A 
ATOM     21  C   UNL     1      -8.312  -2.859   2.062  0.00  0.00    +0.046 A 
ATOM     22  C   UNL     1      -8.349  -4.222   2.285  0.00  0.00    +0.004 A 
ATOM     23  C   UNL     1      -8.888  -5.065   1.331  0.00  0.00    +0.000 A 
ATOM     24  C   UNL     1      -9.392  -4.547   0.152  0.00  0.00    +0.004 A 
ATOM     25  C   UNL     1      -9.363  -3.184  -0.073  0.00  0.00    +0.046 A 
ENDBRANCH  19  20
ENDBRANCH  17  19
ENDBRANCH   4  13
BRANCH   1  27
ATOM     26  C   UNL     1      -0.376   1.038  -2.305  0.00  0.00    +0.025 C 
ATOM     27  C   UNL     1      -0.490  -0.483  -2.432  0.00  0.00    +0.111 C 
ENDBRANCH   1  27
BRANCH  10  28
ATOM     28  C   UNL     1      -1.723  -1.787   2.981  0.00  0.00    +0.204 C 
BRANCH  28  29
ATOM     29  C   UNL     1      -1.240  -3.195   3.218  0.00  0.00    +0.230 C 
ATOM     30  O   UNL     1      -1.212  -3.989   2.301  0.00  0.00    -0.274 OA
ATOM     31  N   UNL     1      -0.841  -3.572   4.448  0.00  0.00    -0.316 N 
ATOM     32  H   UNL     1      -0.863  -2.938   5.181  0.00  0.00    +0.149 HD
BRANCH  31  33
ATOM     33  C   UNL     1      -0.372  -4.941   4.679  0.00  0.00    +0.085 C 
BRANCH  33  34
ATOM     34  C   UNL     1       0.019  -5.106   6.149  0.00  0.00    -0.061 C 
BRANCH  34  35
ATOM     35  N   UNL     1       0.489  -6.478   6.380  0.00  0.00    +0.377 N 
ATOM     36  C   UNL     1       1.726  -6.706   5.621  0.00  0.00    -0.097 C 
ATOM     37  C   UNL     1       0.751  -6.671   7.812  0.00  0.00    -0.097 C 
ATOM     38  H   UNL     1      -0.217  -7.131   6.076  0.00  0.00    -0.083 HD
ENDBRANCH  34  35
ENDBRANCH  33  34
ENDBRANCH  31  33
ENDBRANCH  28  29
ENDBRANCH  10  28
TORSDOF 9
