REMARK  Name = ZINC12192761
REMARK  9 active torsions:
REMARK  status: ('A' for Active; 'I' for Inactive)
REMARK    1  A    between atoms: C_1  and  C_2
REMARK    2  A    between atoms: C_2  and  C_3
REMARK    3  A    between atoms: C_3  and  C_20
REMARK    4  A    between atoms: N_6  and  C_10
REMARK    5  A    between atoms: C_10  and  C_11
REMARK    6  A    between atoms: C_25  and  C_26
REMARK    7  A    between atoms: C_25  and  N_61
REMARK    8  A    between atoms: C_27  and  C_28
REMARK    9  A    between atoms: C_27  and  C_29
REMARK                            x       y       z     vdW  Elec       q    Type
REMARK                         _______ _______ _______ _____ _____    ______ ____
ROOT
ATOM      1  C   UNL     1       1.979  -0.702  -2.262  0.00  0.00    +0.115 C 
ATOM      2  C   UNL     1       3.482  -0.509  -2.286  0.00  0.00    +0.247 C 
ATOM      3  O   UNL     1       4.272  -0.803  -1.415  0.00  0.00    -0.273 OA
ATOM      4  N   UNL     1       3.758   0.057  -3.478  0.00  0.00    -0.220 N 
ATOM      5  C   UNL     1       2.649   0.246  -4.202  0.00  0.00    +0.310 C 
ATOM      6  O   UNL     1       2.644   0.742  -5.312  0.00  0.00    -0.252 OA
ATOM      7  N   UNL     1       1.538  -0.175  -3.565  0.00  0.00    -0.285 N 
ATOM      8  H   UNL     1       0.627  -0.140  -3.898  0.00  0.00    +0.151 HD
ENDROOT
BRANCH   1   9
ATOM      9  C   UNL     1       1.629  -2.186  -2.135  0.00  0.00    +0.018 C 
ATOM     10  C   UNL     1       2.051  -2.695  -0.754  0.00  0.00    -0.013 C 
ATOM     11  C   UNL     1       1.756  -4.193  -0.656  0.00  0.00    -0.078 C 
ATOM     12  C   UNL     1       2.063  -4.471  -3.043  0.00  0.00    -0.078 C 
ATOM     13  C   UNL     1       2.370  -2.981  -3.214  0.00  0.00    -0.013 C 
ATOM     14  N   UNL     1       2.518  -4.904  -1.705  0.00  0.00    +0.382 N 
ATOM     15  H   UNL     1       3.514  -4.679  -1.602  0.00  0.00    -0.081 HD
BRANCH  14  16
ATOM     16  C   UNL     1       2.337  -6.363  -1.559  0.00  0.00    -0.051 C 
BRANCH  16  17
ATOM     17  C   UNL     1       2.544  -6.744  -0.115  0.00  0.00    -0.047 C 
ATOM     18  C   UNL     1       1.628  -7.433   0.518  0.00  0.00    -0.081 C 
ATOM     19  C   UNL     1       0.426  -7.953  -0.228  0.00  0.00    +0.038 C 
ATOM     20  C   UNL     1       1.776  -7.707   1.993  0.00  0.00    +0.038 C 
ENDBRANCH  16  17
ENDBRANCH  14  16
ENDBRANCH   1   9
BRANCH   1  22
ATOM     21  C   UNL     1       1.611   1.589  -1.337  0.00  0.00    +0.006 C 
ATOM     22  C   UNL     1       1.351   0.097  -1.118  0.00  0.00    +0.032 C 
ENDBRANCH   1  22
BRANCH   4  23
ATOM     23  C   UNL     1       5.105   0.419  -3.925  0.00  0.00    +0.153 C 
BRANCH  23  24
ATOM     24  C   UNL     1       5.722  -0.746  -4.655  0.00  0.00    -0.026 A 
ATOM     25  C   UNL     1       5.553  -0.872  -6.021  0.00  0.00    +0.009 A 
ATOM     26  C   UNL     1       6.118  -1.939  -6.695  0.00  0.00    +0.050 A 
ATOM     27  C   UNL     1       6.856  -2.884  -6.002  0.00  0.00    +0.166 A 
ATOM     28  C   UNL     1       7.027  -2.757  -4.625  0.00  0.00    +0.167 A 
ATOM     29  C   UNL     1       6.462  -1.683  -3.957  0.00  0.00    +0.054 A 
ATOM     30  O   UNL     1       7.784  -3.803  -4.181  0.00  0.00    -0.453 OA
ATOM     31  C   UNL     1       7.731  -4.788  -5.229  0.00  0.00    +0.466 C 
ATOM     32  O   UNL     1       7.506  -4.010  -6.420  0.00  0.00    -0.453 OA
ENDBRANCH  23  24
ENDBRANCH   4  23
TORSDOF 6
