REMARK  Name = ZINC14457739
REMARK  6 active torsions:
REMARK  status: ('A' for Active; 'I' for Inactive)
REMARK    1  A    between atoms: C_1  and  C_2
REMARK    2  A    between atoms: C_4  and  C_29
REMARK    3  A    between atoms: C_5  and  C_9
REMARK    4  A    between atoms: C_6  and  C_8
REMARK    5  A    between atoms: C_20  and  N_26
REMARK    6  A    between atoms: C_22  and  O_25
REMARK                            x       y       z     vdW  Elec       q    Type
REMARK                         _______ _______ _______ _____ _____    ______ ____
ROOT
ATOM      1  C   UNL     1       0.694   3.256   2.071  0.00  0.00    +0.105 C 
ATOM      2  C   UNL     1       0.692   3.300   0.541  0.00  0.00    +0.029 C 
ATOM      3  C   UNL     1      -0.780   3.251   0.046  0.00  0.00    +0.033 C 
ATOM      4  C   UNL     1      -1.115   1.773   0.064  0.00  0.00    -0.030 C 
ATOM      5  C   UNL     1      -0.022   1.054   0.040  0.00  0.00    -0.023 C 
ATOM      6  C   UNL     1       1.198   1.946   0.001  0.00  0.00    +0.049 C 
ATOM      7  C   UNL     1       2.292   1.383   0.860  0.00  0.00    -0.014 A 
ATOM      8  C   UNL     1       2.949   0.242   0.413  0.00  0.00    +0.039 A 
ATOM      9  C   UNL     1       3.962  -0.326   1.157  0.00  0.00    +0.130 A 
ATOM     10  C   UNL     1       4.335   0.239   2.364  0.00  0.00    +0.080 A 
ATOM     11  C   UNL     1       3.726   1.399   2.790  0.00  0.00    +0.140 A 
ATOM     12  C   UNL     1       2.688   1.967   2.046  0.00  0.00    +0.074 A 
ATOM     13  N   UNL     1       2.069   3.114   2.552  0.00  0.00    -0.334 N 
ATOM     14  H   UNL     1       2.612   3.939   2.345  0.00  0.00    +0.147 HD
ENDROOT
BRANCH   1  19
ATOM     15  C   UNL     1      -1.571   8.153   4.141  0.00  0.00    +0.044 C 
ATOM     16  C   UNL     1      -0.981   6.876   3.601  0.00  0.00    -0.050 A 
ATOM     17  C   UNL     1      -0.380   5.975   4.461  0.00  0.00    +0.007 A 
ATOM     18  C   UNL     1       0.162   4.804   3.965  0.00  0.00    -0.045 A 
ATOM     19  C   UNL     1       0.103   4.533   2.611  0.00  0.00    -0.021 A 
ATOM     20  C   UNL     1      -0.493   5.436   1.751  0.00  0.00    -0.045 A 
ATOM     21  C   UNL     1      -1.040   6.605   2.247  0.00  0.00    +0.007 A 
ATOM     22  C   UNL     1      -0.552   5.144   0.274  0.00  0.00    +0.044 C 
ATOM     23  C   UNL     1       0.818   3.822   4.902  0.00  0.00    +0.044 C 
ENDBRANCH   1  19
BRANCH   9  24
ATOM     24  N   UNL     1       4.649  -1.540   0.665  0.00  0.00    +0.057 N 
ATOM     25  O   UNL     1       4.321  -2.038  -0.397  0.00  0.00    -0.126 OA
ATOM     26  O   UNL     1       5.544  -2.042   1.323  0.00  0.00    -0.126 OA
ENDBRANCH   9  24
BRANCH  11  27
ATOM     27  O   UNL     1       4.103   1.964   3.969  0.00  0.00    -0.505 OA
ATOM     28  H   UNL     1       3.627   1.622   4.738  0.00  0.00    +0.292 HD
ENDBRANCH  11  27
TORSDOF 3
