REMARK  Name = ZINC64589156
REMARK  6 active torsions:
REMARK  status: ('A' for Active; 'I' for Inactive)
REMARK    1  A    between atoms: C_1  and  C_2
REMARK    2  A    between atoms: C_6  and  C_8
REMARK    3  A    between atoms: N_12  and  C_14
REMARK    4  A    between atoms: C_17  and  N_23
REMARK    5  A    between atoms: C_18  and  C_20
REMARK    6  A    between atoms: C_24  and  C_26
REMARK                            x       y       z     vdW  Elec       q    Type
REMARK                         _______ _______ _______ _____ _____    ______ ____
ROOT
ATOM      1  C   UNL     1      -1.338  -5.600   4.308  0.00  0.00    +0.031 A 
ATOM      2  C   UNL     1      -2.712  -5.405   4.197  0.00  0.00    +0.025 A 
ATOM      3  C   UNL     1      -3.589  -6.208   4.896  0.00  0.00    +0.026 A 
ATOM      4  C   UNL     1      -3.106  -7.219   5.718  0.00  0.00    +0.048 A 
ATOM      5  C   UNL     1      -1.722  -7.421   5.835  0.00  0.00    +0.086 A 
ATOM      6  C   UNL     1      -0.841  -6.606   5.118  0.00  0.00    +0.040 A 
ENDROOT
BRANCH   1  10
ATOM      7  C   UNL     1       0.385  -2.738   2.666  0.00  0.00    +0.038 C 
ATOM      8  C   UNL     1       1.554  -3.757   2.701  0.00  0.00    +0.028 C 
ATOM      9  C   UNL     1       1.009  -4.877   3.613  0.00  0.00    +0.106 C 
ATOM     10  N   UNL     1      -0.458  -4.779   3.595  0.00  0.00    -0.329 N 
ATOM     11  C   UNL     1      -0.848  -3.675   2.699  0.00  0.00    +0.113 C 
BRANCH   7  17
ATOM     12  C   UNL     1       0.503   1.703   0.361  0.00  0.00    +0.044 C 
ATOM     13  C   UNL     1       0.469   0.198   0.293  0.00  0.00    -0.050 A 
ATOM     14  C   UNL     1       0.464  -0.439  -0.934  0.00  0.00    +0.003 A 
ATOM     15  C   UNL     1       0.433  -1.819  -0.996  0.00  0.00    +0.001 A 
ATOM     16  C   UNL     1       0.408  -2.563   0.169  0.00  0.00    +0.004 A 
ATOM     17  C   UNL     1       0.414  -1.927   1.396  0.00  0.00    -0.042 A 
ATOM     18  C   UNL     1       0.449  -0.546   1.458  0.00  0.00    +0.007 A 
ENDBRANCH   7  17
ENDBRANCH   1  10
BRANCH   4  19
ATOM     19  N   UNL     1      -3.994  -8.029   6.424  0.00  0.00    -0.285 N 
ATOM     20  C   UNL     1      -5.250  -8.206   5.971  0.00  0.00    +0.220 C 
ATOM     21  O   UNL     1      -5.580  -7.745   4.899  0.00  0.00    -0.275 OA
ATOM     22  H   UNL     1      -3.706  -8.465   7.242  0.00  0.00    +0.155 HD
BRANCH  20  23
ATOM     23  C   UNL     1      -6.247  -8.977   6.798  0.00  0.00    +0.075 C 
ATOM     24  C   UNL     1      -6.133 -10.502   6.636  0.00  0.00    +0.013 C 
ATOM     25  C   UNL     1      -7.670 -10.540   6.654  0.00  0.00    +0.001 C 
ATOM     26  C   UNL     1      -7.634  -9.091   6.143  0.00  0.00    +0.013 C 
ENDBRANCH  20  23
ENDBRANCH   4  19
BRANCH   5  27
ATOM     27  C   UNL     1      -1.202  -8.489   6.703  0.00  0.00    +0.388 C 
ATOM     28  O   UNL     1       0.004  -8.602   6.879  0.00  0.00    -0.241 OA
ATOM     29  O   UNL     1      -1.974  -9.264   7.250  0.00  0.00    -0.241 OA
ENDBRANCH   5  27
TORSDOF 5
