REMARK  Name = ZINC09308676
REMARK  11 active torsions:
REMARK  status: ('A' for Active; 'I' for Inactive)
REMARK    1  A    between atoms: C_1  and  C_2
REMARK    2  A    between atoms: C_7  and  N_8
REMARK    3  A    between atoms: C_11  and  C_12
REMARK    4  A    between atoms: N_13  and  C_14
REMARK    5  A    between atoms: C_14  and  C_16
REMARK    6  A    between atoms: C_14  and  C_27
REMARK    7  A    between atoms: C_16  and  C_17
REMARK    8  A    between atoms: C_27  and  O_29
REMARK    9  A    between atoms: O_29  and  C_30
REMARK   10  A    between atoms: C_30  and  C_31
REMARK   11  A    between atoms: C_30  and  C_32
REMARK                            x       y       z     vdW  Elec       q    Type
REMARK                         _______ _______ _______ _____ _____    ______ ____
ROOT
ATOM      1  C   UNL     1       4.806   5.375  -2.331  0.00  0.00    +0.100 C 
ATOM      2  N   UNL     1       4.316   4.975  -3.522  0.00  0.00    -0.280 NA
ENDROOT
BRANCH   1   6
ATOM      3  N   UNL     1       2.351   3.902   0.001  0.00  0.00    -0.193 N 
ATOM      4  C   UNL     1       2.906   4.245  -1.179  0.00  0.00    +0.245 C 
ATOM      5  O   UNL     1       2.368   3.955  -2.231  0.00  0.00    -0.274 OA
ATOM      6  C   UNL     1       4.180   4.985  -1.161  0.00  0.00    +0.202 C 
ATOM      7  C   UNL     1       4.761   5.289   0.160  0.00  0.00    +0.238 C 
ATOM      8  O   UNL     1       5.812   5.894   0.256  0.00  0.00    -0.274 OA
ATOM      9  N   UNL     1       4.095   4.878   1.258  0.00  0.00    -0.238 N 
ATOM     10  C   UNL     1       2.936   4.211   1.167  0.00  0.00    +0.319 C 
ATOM     11  O   UNL     1       2.387   3.868   2.196  0.00  0.00    -0.251 OA
ATOM     12  H   UNL     1       4.464   5.069   2.135  0.00  0.00    +0.159 HD
BRANCH   3  19
ATOM     13  C   UNL     1       2.440   1.057  -0.045  0.00  0.00    +0.045 C 
ATOM     14  C   UNL     1       1.137   1.812  -0.013  0.00  0.00    -0.029 A 
ATOM     15  C   UNL     1      -0.061   1.124  -0.004  0.00  0.00    +0.005 A 
ATOM     16  C   UNL     1      -1.258   1.816   0.020  0.00  0.00    +0.000 A 
ATOM     17  C   UNL     1      -1.260   3.199   0.047  0.00  0.00    +0.002 A 
ATOM     18  C   UNL     1      -0.066   3.893   0.039  0.00  0.00    +0.024 A 
ATOM     19  C   UNL     1       1.138   3.200   0.009  0.00  0.00    +0.048 A 
ENDBRANCH   3  19
ENDBRANCH   1   6
BRANCH   2  20
ATOM     20  C   UNL     1       4.979   5.388  -4.761  0.00  0.00    +0.217 C 
BRANCH  20  21
ATOM     21  C   UNL     1       6.106   4.436  -5.069  0.00  0.00    +0.332 C 
ATOM     22  O   UNL     1       6.333   3.509  -4.328  0.00  0.00    -0.248 OA
BRANCH  21  23
ATOM     23  O   UNL     1       6.859   4.619  -6.165  0.00  0.00    -0.460 OA
BRANCH  23  24
ATOM     24  C   UNL     1       7.927   3.664  -6.398  0.00  0.00    +0.170 C 
ATOM     25  C   UNL     1       7.397   2.501  -7.239  0.00  0.00    +0.052 C 
ATOM     26  C   UNL     1       9.073   4.352  -7.144  0.00  0.00    +0.052 C 
ENDBRANCH  23  24
ENDBRANCH  21  23
ENDBRANCH  20  21
BRANCH  20  27
ATOM     27  C   UNL     1       3.969   5.369  -5.910  0.00  0.00    +0.075 C 
BRANCH  27  28
ATOM     28  C   UNL     1       2.906   6.408  -5.662  0.00  0.00    -0.020 A 
ATOM     29  C   UNL     1       1.712   6.207  -5.081  0.00  0.00    +0.087 A 
ATOM     30  N   UNL     1       1.016   7.383  -5.026  0.00  0.00    -0.360 N 
ATOM     31  H   UNL     1       0.128   7.488  -4.650  0.00  0.00    +0.165 HD
ATOM     32  C   UNL     1       1.763   8.396  -5.585  0.00  0.00    +0.047 A 
ATOM     33  C   UNL     1       2.982   7.831  -6.002  0.00  0.00    +0.003 A 
ATOM     34  C   UNL     1       3.946   8.632  -6.617  0.00  0.00    +0.010 A 
ATOM     35  C   UNL     1       3.705   9.964  -6.801  0.00  0.00    +0.001 A 
ATOM     36  C   UNL     1       2.506  10.527  -6.386  0.00  0.00    +0.002 A 
ATOM     37  C   UNL     1       1.539   9.755  -5.782  0.00  0.00    +0.026 A 
ENDBRANCH  27  28
ENDBRANCH  20  27
ENDBRANCH   2  20
TORSDOF 8
