REMARK  Name = ZINC18107196
REMARK  2 active torsions:
REMARK  status: ('A' for Active; 'I' for Inactive)
REMARK    1  A    between atoms: C_4  and  C_7
REMARK    2  A    between atoms: C_12  and  C_22
REMARK                            x       y       z     vdW  Elec       q    Type
REMARK                         _______ _______ _______ _____ _____    ______ ____
ROOT
ATOM      1  C   UNL     1      -0.199   7.202   3.909  0.00  0.00    +0.032 C 
ATOM      2  C   UNL     1      -1.563   6.783   3.364  0.00  0.00    +0.059 C 
ATOM      3  C   UNL     1      -1.438   6.394   1.900  0.00  0.00    +0.017 C 
ATOM      4  C   UNL     1      -0.316   5.816   1.444  0.00  0.00    +0.036 C 
ATOM      5  C   UNL     1      -0.070   5.347   0.030  0.00  0.00    +0.136 C 
ATOM      6  N   UNL     1      -1.057   5.798  -0.930  0.00  0.00    -0.331 N 
ATOM      7  C   UNL     1      -2.385   5.386  -0.844  0.00  0.00    +0.049 A 
ATOM      8  C   UNL     1      -2.964   4.597  -1.826  0.00  0.00    +0.025 A 
ATOM      9  C   UNL     1      -4.273   4.175  -1.675  0.00  0.00    +0.002 A 
ATOM     10  C   UNL     1      -5.000   4.533  -0.554  0.00  0.00    +0.002 A 
ATOM     11  C   UNL     1      -4.430   5.335   0.420  0.00  0.00    +0.025 A 
ATOM     12  C   UNL     1      -3.128   5.775   0.261  0.00  0.00    +0.052 A 
ATOM     13  N   UNL     1      -2.533   6.667   1.146  0.00  0.00    -0.316 N 
ATOM     14  C   UNL     1       0.779   5.599   2.315  0.00  0.00    +0.163 C 
ATOM     15  O   UNL     1       1.777   5.061   1.878  0.00  0.00    -0.292 OA
ATOM     16  C   UNL     1       0.751   6.007   3.757  0.00  0.00    +0.088 C 
ATOM     17  H   UNL     1      -0.788   6.397  -1.644  0.00  0.00    +0.147 HD
ATOM     18  H   UNL     1      -2.929   7.549   1.230  0.00  0.00    +0.152 HD
ENDROOT
BRANCH   1  22
ATOM     19  C   UNL     1      -0.549   8.257   8.033  0.00  0.00    +0.000 A 
ATOM     20  C   UNL     1      -0.101   9.190   7.116  0.00  0.00    +0.000 A 
ATOM     21  C   UNL     1       0.013   8.848   5.782  0.00  0.00    +0.004 A 
ATOM     22  C   UNL     1      -0.322   7.574   5.364  0.00  0.00    -0.044 A 
ATOM     23  C   UNL     1      -0.775   6.643   6.280  0.00  0.00    +0.004 A 
ATOM     24  C   UNL     1      -0.884   6.983   7.615  0.00  0.00    +0.000 A 
ENDBRANCH   1  22
BRANCH   5  25
ATOM     25  C   UNL     1      -0.050   3.840   0.022  0.00  0.00    -0.023 A 
ATOM     26  C   UNL     1      -1.199   3.132   0.323  0.00  0.00    +0.006 A 
ATOM     27  C   UNL     1      -1.180   1.750   0.316  0.00  0.00    +0.000 A 
ATOM     28  C   UNL     1      -0.012   1.076   0.010  0.00  0.00    +0.000 A 
ATOM     29  C   UNL     1       1.137   1.784  -0.285  0.00  0.00    +0.000 A 
ATOM     30  C   UNL     1       1.117   3.166  -0.284  0.00  0.00    +0.006 A 
ENDBRANCH   5  25
TORSDOF 2
